MODEL 1
REMARK VINA RESULT:     -12.0      0.000      0.000
REMARK SMILES C[C@@H](C(=O)NCCCCCCNC(=O)c1ccc(-c2c3nc(c(-c4c(F)c(F)c(F)c(F)c4F)c4ccc([nH]4)c(-c4c(F)c(F)c(F)c(F)c4F)c4nc(c(-c5c(F)c(F)c(F)c(F)c5F)c5ccc2[nH]5)C=C4)C=C3)cc1)c1cccn(C(F)F)c1=O
REMARK SMILES IDX 8 1 7 4 6 7 5 10 3 11 4 12 2 14 1 16 78 20 79 21 86 22 80 23
REMARK SMILES IDX 82 25 87 26 81 27 83 30 84 31 85 32 9 34 10 37 11 40 12 43
REMARK SMILES IDX 13 44 14 46 15 47 16 48 77 49 17 50 76 52 18 54 19 57 20 58
REMARK SMILES IDX 70 59 21 60 75 61 69 62 71 63 22 64 74 65 68 67 67 69 23 71
REMARK SMILES IDX 55 74 35 75 54 76 36 77 39 78 53 79 72 80 37 81 38 83 52 85
REMARK SMILES IDX 73 86 40 89 24 91 25 92 33 93 26 94 27 95 31 96 34 97 28 98
REMARK SMILES IDX 29 99 32 100 30 101 56 102 57 103 65 104 58 105 59 106
REMARK SMILES IDX 63 107 66 108 60 109 61 110 64 111 62 112 41 113 42 114
REMARK SMILES IDX 50 115 43 116 44 117 48 118 51 119 45 120 46 121 49 122
REMARK SMILES IDX 47 123
REMARK H PARENT 8 2 8 3 7 5 7 6 6 8 6 9 5 13 2 15 1 17 1 18 1 19 79 24 80 28
REMARK H PARENT 81 29 83 33 9 35 9 36 10 38 10 39 11 41 11 42 12 45 16 51
REMARK H PARENT 77 53 17 55 76 56 75 66 69 68 71 70 74 72 68 73 36 82 39 84
REMARK H PARENT 72 87 37 88 73 90
REMARK Flexibility Score: inf
ROOT
ATOM      1  C   UNL A   1      32.688  29.798  26.865  1.00  0.00    -0.052 C 
ATOM      2  H   UNL A   1      33.470  29.436  26.230  1.00  0.00     0.027 H 
ATOM      3  H   UNL A   1      33.049  30.383  27.686  1.00  0.00     0.027 H 
ENDROOT
BRANCH   1   4
ATOM      4  C   UNL A   1      31.971  28.586  27.479  1.00  0.00    -0.036 C 
ATOM      5  H   UNL A   1      32.344  28.438  28.471  1.00  0.00     0.028 H 
ATOM      6  H   UNL A   1      30.923  28.801  27.469  1.00  0.00     0.028 H 
BRANCH   4   7
ATOM      7  C   UNL A   1      32.177  27.294  26.684  1.00  0.00     0.017 C 
ATOM      8  H   UNL A   1      32.222  27.522  25.639  1.00  0.00     0.049 H 
ATOM      9  H   UNL A   1      33.091  26.830  26.990  1.00  0.00     0.049 H 
BRANCH   7  10
ATOM     10  N   UNL A   1      31.074  26.388  26.931  1.00  0.00    -0.356 N 
ATOM     11  C   UNL A   1      30.274  25.726  26.045  1.00  0.00     0.227 C 
ATOM     12  O   UNL A   1      29.238  25.234  26.499  1.00  0.00    -0.274 OA
ATOM     13  H   UNL A   1      30.871  26.227  27.881  1.00  0.00     0.163 HD
BRANCH  11  14
ATOM     14  C   UNL A   1      30.728  25.545  24.584  1.00  0.00     0.066 C 
ATOM     15  H   UNL A   1      30.117  24.827  24.079  1.00  0.00     0.045 H 
BRANCH  14  16
ATOM     16  C   UNL A   1      32.119  24.913  24.486  1.00  0.00    -0.049 C 
ATOM     17  H   UNL A   1      32.604  24.968  25.439  1.00  0.00     0.024 H 
ATOM     18  H   UNL A   1      32.701  25.441  23.759  1.00  0.00     0.024 H 
ATOM     19  H   UNL A   1      32.026  23.889  24.192  1.00  0.00     0.024 H 
ENDBRANCH  14  16
BRANCH  14  20
ATOM     20  C   UNL A   1      30.536  26.869  23.850  1.00  0.00     0.030 A 
ATOM     21  C   UNL A   1      31.594  27.624  23.485  1.00  0.00    -0.051 A 
ATOM     22  C   UNL A   1      29.162  27.378  23.494  1.00  0.00     0.258 A 
ATOM     23  C   UNL A   1      31.441  28.862  22.768  1.00  0.00    -0.045 A 
ATOM     24  H   UNL A   1      32.544  27.303  23.728  1.00  0.00     0.063 H 
ATOM     25  N   UNL A   1      29.100  28.633  22.910  1.00  0.00    -0.258 N 
ATOM     26  O   UNL A   1      28.151  26.726  23.741  1.00  0.00    -0.269 OA
ATOM     27  C   UNL A   1      30.218  29.338  22.521  1.00  0.00     0.013 A 
ATOM     28  H   UNL A   1      32.273  29.380  22.445  1.00  0.00     0.064 H 
ATOM     29  H   UNL A   1      30.110  30.241  22.035  1.00  0.00     0.082 H 
BRANCH  25  30
ATOM     30  C   UNL A   1      27.792  29.192  22.678  1.00  0.00     0.321 C 
ATOM     31  F   UNL A   1      27.532  30.139  23.621  1.00  0.00    -0.185 F 
ATOM     32  F   UNL A   1      27.772  29.836  21.482  1.00  0.00    -0.185 F 
ATOM     33  H   UNL A   1      27.077  28.396  22.703  1.00  0.00     0.131 H 
ENDBRANCH  25  30
ENDBRANCH  14  20
ENDBRANCH  11  14
ENDBRANCH   7  10
ENDBRANCH   4   7
ENDBRANCH   1   4
BRANCH   1  34
ATOM     34  C   UNL A   1      31.790  30.722  26.037  1.00  0.00    -0.052 C 
ATOM     35  H   UNL A   1      30.876  30.204  25.831  1.00  0.00     0.027 H 
ATOM     36  H   UNL A   1      32.339  30.968  25.152  1.00  0.00     0.027 H 
BRANCH  34  37
ATOM     37  C   UNL A   1      31.444  32.046  26.717  1.00  0.00    -0.036 C 
ATOM     38  H   UNL A   1      30.700  31.860  27.463  1.00  0.00     0.028 H 
ATOM     39  H   UNL A   1      31.101  32.710  25.952  1.00  0.00     0.028 H 
BRANCH  37  40
ATOM     40  C   UNL A   1      32.634  32.725  27.388  1.00  0.00     0.018 C 
ATOM     41  H   UNL A   1      33.491  32.625  26.755  1.00  0.00     0.049 H 
ATOM     42  H   UNL A   1      32.797  32.251  28.333  1.00  0.00     0.049 H 
BRANCH  40  43
ATOM     43  N   UNL A   1      32.385  34.139  27.626  1.00  0.00    -0.352 N 
ATOM     44  C   UNL A   1      32.961  34.968  28.554  1.00  0.00     0.251 C 
ATOM     45  H   UNL A   1      31.713  34.557  27.042  1.00  0.00     0.163 HD
ATOM     46  O   UNL A   1      32.494  36.081  28.779  1.00  0.00    -0.269 OA
BRANCH  44  47
ATOM     47  C   UNL A   1      34.144  34.499  29.301  1.00  0.00     0.039 A 
ATOM     48  C   UNL A   1      33.971  33.906  30.554  1.00  0.00    -0.049 A 
ATOM     49  C   UNL A   1      35.420  34.625  28.745  1.00  0.00    -0.049 A 
ATOM     50  C   UNL A   1      35.076  33.378  31.223  1.00  0.00    -0.053 A 
ATOM     51  H   UNL A   1      33.033  33.860  30.982  1.00  0.00     0.063 H 
ATOM     52  C   UNL A   1      36.505  34.027  29.375  1.00  0.00    -0.053 A 
ATOM     53  H   UNL A   1      35.555  35.157  27.872  1.00  0.00     0.063 H 
ATOM     54  C   UNL A   1      36.345  33.403  30.622  1.00  0.00    -0.014 A 
ATOM     55  H   UNL A   1      34.961  32.969  32.164  1.00  0.00     0.063 H 
ATOM     56  H   UNL A   1      37.433  34.044  28.924  1.00  0.00     0.063 H 
BRANCH  54  57
ATOM     57  C   UNL A   1      37.528  32.788  31.273  1.00  0.00     0.031 A 
ATOM     58  C   UNL A   1      38.219  31.626  30.618  1.00  0.00     0.074 A 
ATOM     59  C   UNL A   1      37.914  33.205  32.493  1.00  0.00     0.049 A 
ATOM     60  N   UNL A   1      39.177  30.862  31.079  1.00  0.00    -0.248 NA
ATOM     61  C   UNL A   1      37.740  31.250  29.279  1.00  0.00    -0.034 C 
ATOM     62  C   UNL A   1      37.291  34.291  33.249  1.00  0.00    -0.036 A 
ATOM     63  N   UNL A   1      38.905  32.744  33.325  1.00  0.00    -0.354 N 
ATOM     64  C   UNL A   1      39.397  29.904  30.099  1.00  0.00     0.074 A 
ATOM     65  C   UNL A   1      38.436  30.148  29.046  1.00  0.00    -0.034 C 
ATOM     66  H   UNL A   1      37.046  31.721  28.679  1.00  0.00     0.065 H 
ATOM     67  C   UNL A   1      37.914  34.415  34.432  1.00  0.00    -0.036 A 
ATOM     68  H   UNL A   1      36.501  34.870  32.925  1.00  0.00     0.065 H 
ATOM     69  C   UNL A   1      38.947  33.387  34.536  1.00  0.00     0.049 A 
ATOM     70  H   UNL A   1      39.525  32.021  33.075  1.00  0.00     0.167 HD
ATOM     71  C   UNL A   1      40.329  28.922  30.074  1.00  0.00     0.037 A 
ATOM     72  H   UNL A   1      38.309  29.541  28.220  1.00  0.00     0.065 H 
ATOM     73  H   UNL A   1      37.697  35.122  35.152  1.00  0.00     0.065 H 
ATOM     74  C   UNL A   1      39.712  33.159  35.621  1.00  0.00     0.037 A 
ATOM     75  C   UNL A   1      41.292  28.701  31.120  1.00  0.00     0.049 A 
ATOM     76  C   UNL A   1      40.737  32.058  35.579  1.00  0.00     0.074 A 
ATOM     77  C   UNL A   1      42.327  27.784  31.161  1.00  0.00    -0.036 A 
ATOM     78  N   UNL A   1      41.328  29.398  32.321  1.00  0.00    -0.354 N 
ATOM     79  N   UNL A   1      40.993  31.206  34.615  1.00  0.00    -0.248 NA
ATOM     80  C   UNL A   1      41.583  31.890  36.767  1.00  0.00    -0.034 C 
ATOM     81  C   UNL A   1      42.947  27.880  32.411  1.00  0.00    -0.036 A 
ATOM     82  H   UNL A   1      42.595  27.140  30.399  1.00  0.00     0.065 H 
ATOM     83  C   UNL A   1      42.345  28.906  33.123  1.00  0.00     0.049 A 
ATOM     84  H   UNL A   1      40.721  30.133  32.565  1.00  0.00     0.167 HD
ATOM     85  C   UNL A   1      42.045  30.420  35.068  1.00  0.00     0.074 A 
ATOM     86  C   UNL A   1      42.383  30.901  36.391  1.00  0.00    -0.034 C 
ATOM     87  H   UNL A   1      41.562  32.406  37.661  1.00  0.00     0.065 H 
ATOM     88  H   UNL A   1      43.721  27.287  32.746  1.00  0.00     0.065 H 
ATOM     89  C   UNL A   1      42.674  29.397  34.439  1.00  0.00     0.037 A 
ATOM     90  H   UNL A   1      43.149  30.521  36.969  1.00  0.00     0.065 H 
BRANCH  71  91
ATOM     91  C   UNL A   1      40.335  28.005  28.884  1.00  0.00     0.064 A 
ATOM     92  C   UNL A   1      39.628  26.791  28.877  1.00  0.00     0.173 A 
ATOM     93  C   UNL A   1      41.060  28.342  27.731  1.00  0.00     0.173 A 
ATOM     94  F   UNL A   1      38.924  26.414  29.956  1.00  0.00    -0.203 F 
ATOM     95  C   UNL A   1      39.689  25.931  27.785  1.00  0.00     0.198 A 
ATOM     96  C   UNL A   1      41.086  27.498  26.625  1.00  0.00     0.198 A 
ATOM     97  F   UNL A   1      41.747  29.493  27.676  1.00  0.00    -0.203 F 
ATOM     98  F   UNL A   1      39.065  24.745  27.833  1.00  0.00    -0.200 F 
ATOM     99  C   UNL A   1      40.414  26.286  26.657  1.00  0.00     0.200 A 
ATOM    100  F   UNL A   1      41.774  27.851  25.529  1.00  0.00    -0.200 F 
ATOM    101  F   UNL A   1      40.473  25.456  25.608  1.00  0.00    -0.200 F 
ENDBRANCH  71  91
BRANCH  74 102
ATOM    102  C   UNL A   1      39.530  34.000  36.832  1.00  0.00     0.064 A 
ATOM    103  C   UNL A   1      38.751  33.559  37.910  1.00  0.00     0.173 A 
ATOM    104  C   UNL A   1      40.164  35.247  36.951  1.00  0.00     0.173 A 
ATOM    105  F   UNL A   1      38.112  32.383  37.836  1.00  0.00    -0.203 F 
ATOM    106  C   UNL A   1      38.606  34.335  39.059  1.00  0.00     0.198 A 
ATOM    107  C   UNL A   1      40.042  36.009  38.112  1.00  0.00     0.198 A 
ATOM    108  F   UNL A   1      40.926  35.711  35.952  1.00  0.00    -0.203 F 
ATOM    109  F   UNL A   1      37.832  33.903  40.063  1.00  0.00    -0.200 F 
ATOM    110  C   UNL A   1      39.259  35.554  39.162  1.00  0.00     0.200 A 
ATOM    111  F   UNL A   1      40.690  37.176  38.215  1.00  0.00    -0.200 F 
ATOM    112  F   UNL A   1      39.134  36.292  40.273  1.00  0.00    -0.200 F 
ENDBRANCH  74 102
BRANCH  89 113
ATOM    113  C   UNL A   1      43.824  28.742  35.150  1.00  0.00     0.064 A 
ATOM    114  C   UNL A   1      43.644  27.618  35.967  1.00  0.00     0.173 A 
ATOM    115  C   UNL A   1      45.135  29.200  34.941  1.00  0.00     0.173 A 
ATOM    116  F   UNL A   1      42.411  27.150  36.210  1.00  0.00    -0.203 F 
ATOM    117  C   UNL A   1      44.733  26.982  36.557  1.00  0.00     0.198 A 
ATOM    118  C   UNL A   1      46.224  28.544  35.507  1.00  0.00     0.198 A 
ATOM    119  F   UNL A   1      45.361  30.270  34.163  1.00  0.00    -0.203 F 
ATOM    120  F   UNL A   1      44.537  25.927  37.361  1.00  0.00    -0.200 F 
ATOM    121  C   UNL A   1      46.022  27.437  36.317  1.00  0.00     0.200 A 
ATOM    122  F   UNL A   1      47.468  28.976  35.259  1.00  0.00    -0.200 F 
ATOM    123  F   UNL A   1      47.070  26.809  36.867  1.00  0.00    -0.200 F 
ENDBRANCH  89 113
ENDBRANCH  54  57
ENDBRANCH  44  47
ENDBRANCH  40  43
ENDBRANCH  37  40
ENDBRANCH  34  37
ENDBRANCH   1  34
TORSDOF 16
ENDMDL
MODEL 2
REMARK VINA RESULT:     -12.0      0.615      2.079
REMARK SMILES C[C@@H](C(=O)NCCCCCCNC(=O)c1ccc(-c2c3nc(c(-c4c(F)c(F)c(F)c(F)c4F)c4ccc([nH]4)c(-c4c(F)c(F)c(F)c(F)c4F)c4nc(c(-c5c(F)c(F)c(F)c(F)c5F)c5ccc2[nH]5)C=C4)C=C3)cc1)c1cccn(C(F)F)c1=O
REMARK SMILES IDX 8 1 7 4 6 7 5 10 3 11 4 12 2 14 1 16 78 20 79 21 86 22 80 23
REMARK SMILES IDX 82 25 87 26 81 27 83 30 84 31 85 32 9 34 10 37 11 40 12 43
REMARK SMILES IDX 13 44 14 46 15 47 16 48 77 49 17 50 76 52 18 54 19 57 20 58
REMARK SMILES IDX 70 59 21 60 75 61 69 62 71 63 22 64 74 65 68 67 67 69 23 71
REMARK SMILES IDX 55 74 35 75 54 76 36 77 39 78 53 79 72 80 37 81 38 83 52 85
REMARK SMILES IDX 73 86 40 89 24 91 25 92 33 93 26 94 27 95 31 96 34 97 28 98
REMARK SMILES IDX 29 99 32 100 30 101 56 102 57 103 65 104 58 105 59 106
REMARK SMILES IDX 63 107 66 108 60 109 61 110 64 111 62 112 41 113 42 114
REMARK SMILES IDX 50 115 43 116 44 117 48 118 51 119 45 120 46 121 49 122
REMARK SMILES IDX 47 123
REMARK H PARENT 8 2 8 3 7 5 7 6 6 8 6 9 5 13 2 15 1 17 1 18 1 19 79 24 80 28
REMARK H PARENT 81 29 83 33 9 35 9 36 10 38 10 39 11 41 11 42 12 45 16 51
REMARK H PARENT 77 53 17 55 76 56 75 66 69 68 71 70 74 72 68 73 36 82 39 84
REMARK H PARENT 72 87 37 88 73 90
REMARK Flexibility Score: inf
ROOT
ATOM      1  C   UNL A   1      32.658  29.380  26.552  1.00  0.00    -0.052 C 
ATOM      2  H   UNL A   1      33.068  28.747  25.792  1.00  0.00     0.027 H 
ATOM      3  H   UNL A   1      33.404  29.887  27.127  1.00  0.00     0.027 H 
ENDROOT
BRANCH   1   4
ATOM      4  C   UNL A   1      31.874  28.499  27.537  1.00  0.00    -0.036 C 
ATOM      5  H   UNL A   1      32.538  28.190  28.317  1.00  0.00     0.028 H 
ATOM      6  H   UNL A   1      31.061  29.087  27.908  1.00  0.00     0.028 H 
BRANCH   4   7
ATOM      7  C   UNL A   1      31.272  27.251  26.886  1.00  0.00     0.017 C 
ATOM      8  H   UNL A   1      30.977  26.560  27.649  1.00  0.00     0.049 H 
ATOM      9  H   UNL A   1      30.419  27.530  26.304  1.00  0.00     0.049 H 
BRANCH   7  10
ATOM     10  N   UNL A   1      32.256  26.626  26.026  1.00  0.00    -0.356 N 
ATOM     11  C   UNL A   1      32.078  25.807  24.949  1.00  0.00     0.227 C 
ATOM     12  O   UNL A   1      33.070  25.189  24.556  1.00  0.00    -0.274 OA
ATOM     13  H   UNL A   1      33.193  26.820  26.254  1.00  0.00     0.163 HD
BRANCH  11  14
ATOM     14  C   UNL A   1      30.714  25.763  24.233  1.00  0.00     0.066 C 
ATOM     15  H   UNL A   1      29.916  25.651  24.937  1.00  0.00     0.045 H 
BRANCH  14  16
ATOM     16  C   UNL A   1      30.558  24.513  23.363  1.00  0.00    -0.049 C 
ATOM     17  H   UNL A   1      30.957  24.705  22.389  1.00  0.00     0.024 H 
ATOM     18  H   UNL A   1      29.520  24.263  23.280  1.00  0.00     0.024 H 
ATOM     19  H   UNL A   1      31.087  23.698  23.810  1.00  0.00     0.024 H 
ENDBRANCH  14  16
BRANCH  14  20
ATOM     20  C   UNL A   1      30.491  27.101  23.536  1.00  0.00     0.030 A 
ATOM     21  C   UNL A   1      31.528  27.823  23.061  1.00  0.00    -0.051 A 
ATOM     22  C   UNL A   1      29.105  27.664  23.340  1.00  0.00     0.258 A 
ATOM     23  C   UNL A   1      31.342  29.074  22.375  1.00  0.00    -0.045 A 
ATOM     24  H   UNL A   1      32.486  27.465  23.192  1.00  0.00     0.063 H 
ATOM     25  N   UNL A   1      29.024  28.927  22.776  1.00  0.00    -0.258 N 
ATOM     26  O   UNL A   1      28.105  27.046  23.694  1.00  0.00    -0.269 OA
ATOM     27  C   UNL A   1      30.118  29.596  22.270  1.00  0.00     0.013 A 
ATOM     28  H   UNL A   1      32.151  29.566  21.964  1.00  0.00     0.064 H 
ATOM     29  H   UNL A   1      29.989  30.509  21.807  1.00  0.00     0.082 H 
BRANCH  25  30
ATOM     30  C   UNL A   1      27.720  29.535  22.697  1.00  0.00     0.321 C 
ATOM     31  F   UNL A   1      27.594  30.462  23.686  1.00  0.00    -0.185 F 
ATOM     32  F   UNL A   1      27.600  30.215  21.526  1.00  0.00    -0.185 F 
ATOM     33  H   UNL A   1      26.984  28.763  22.776  1.00  0.00     0.131 H 
ENDBRANCH  25  30
ENDBRANCH  14  20
ENDBRANCH  11  14
ENDBRANCH   7  10
ENDBRANCH   4   7
ENDBRANCH   1   4
BRANCH   1  34
ATOM     34  C   UNL A   1      31.826  30.470  25.866  1.00  0.00    -0.052 C 
ATOM     35  H   UNL A   1      30.901  30.035  25.548  1.00  0.00     0.027 H 
ATOM     36  H   UNL A   1      32.417  30.839  25.054  1.00  0.00     0.027 H 
BRANCH  34  37
ATOM     37  C   UNL A   1      31.505  31.673  26.753  1.00  0.00    -0.036 C 
ATOM     38  H   UNL A   1      30.941  31.332  27.596  1.00  0.00     0.028 H 
ATOM     39  H   UNL A   1      30.960  32.368  26.149  1.00  0.00     0.028 H 
BRANCH  37  40
ATOM     40  C   UNL A   1      32.738  32.407  27.268  1.00  0.00     0.018 C 
ATOM     41  H   UNL A   1      33.518  32.326  26.539  1.00  0.00     0.049 H 
ATOM     42  H   UNL A   1      33.030  31.959  28.194  1.00  0.00     0.049 H 
BRANCH  40  43
ATOM     43  N   UNL A   1      32.465  33.816  27.513  1.00  0.00    -0.352 N 
ATOM     44  C   UNL A   1      33.019  34.648  28.451  1.00  0.00     0.251 C 
ATOM     45  H   UNL A   1      31.792  34.227  26.924  1.00  0.00     0.163 HD
ATOM     46  O   UNL A   1      32.532  35.752  28.678  1.00  0.00    -0.269 OA
BRANCH  44  47
ATOM     47  C   UNL A   1      34.202  34.193  29.206  1.00  0.00     0.039 A 
ATOM     48  C   UNL A   1      34.023  33.419  30.355  1.00  0.00    -0.049 A 
ATOM     49  C   UNL A   1      35.487  34.512  28.759  1.00  0.00    -0.049 A 
ATOM     50  C   UNL A   1      35.139  32.908  31.021  1.00  0.00    -0.053 A 
ATOM     51  H   UNL A   1      33.074  33.226  30.710  1.00  0.00     0.063 H 
ATOM     52  C   UNL A   1      36.591  33.938  29.375  1.00  0.00    -0.053 A 
ATOM     53  H   UNL A   1      35.614  35.171  27.974  1.00  0.00     0.063 H 
ATOM     54  C   UNL A   1      36.430  33.134  30.514  1.00  0.00    -0.014 A 
ATOM     55  H   UNL A   1      35.016  32.364  31.889  1.00  0.00     0.063 H 
ATOM     56  H   UNL A   1      37.536  34.103  28.992  1.00  0.00     0.063 H 
BRANCH  54  57
ATOM     57  C   UNL A   1      37.632  32.549  31.155  1.00  0.00     0.031 A 
ATOM     58  C   UNL A   1      38.345  31.403  30.496  1.00  0.00     0.074 A 
ATOM     59  C   UNL A   1      38.019  32.975  32.372  1.00  0.00     0.049 A 
ATOM     60  N   UNL A   1      39.325  30.663  30.949  1.00  0.00    -0.248 NA
ATOM     61  C   UNL A   1      37.865  31.015  29.161  1.00  0.00    -0.034 C 
ATOM     62  C   UNL A   1      37.376  34.047  33.133  1.00  0.00    -0.036 A 
ATOM     63  N   UNL A   1      39.027  32.539  33.196  1.00  0.00    -0.354 N 
ATOM     64  C   UNL A   1      39.560  29.710  29.967  1.00  0.00     0.074 A 
ATOM     65  C   UNL A   1      38.585  29.930  28.922  1.00  0.00    -0.034 C 
ATOM     66  H   UNL A   1      37.155  31.469  28.566  1.00  0.00     0.065 H 
ATOM     67  C   UNL A   1      38.005  34.186  34.310  1.00  0.00    -0.036 A 
ATOM     68  H   UNL A   1      36.569  34.607  32.816  1.00  0.00     0.065 H 
ATOM     69  C   UNL A   1      39.064  33.184  34.407  1.00  0.00     0.049 A 
ATOM     70  H   UNL A   1      39.662  31.831  32.941  1.00  0.00     0.167 HD
ATOM     71  C   UNL A   1      40.516  28.751  29.934  1.00  0.00     0.037 A 
ATOM     72  H   UNL A   1      38.466  29.320  28.097  1.00  0.00     0.065 H 
ATOM     73  H   UNL A   1      37.777  34.888  35.032  1.00  0.00     0.065 H 
ATOM     74  C   UNL A   1      39.843  32.974  35.485  1.00  0.00     0.037 A 
ATOM     75  C   UNL A   1      41.493  28.553  30.973  1.00  0.00     0.049 A 
ATOM     76  C   UNL A   1      40.894  31.899  35.435  1.00  0.00     0.074 A 
ATOM     77  C   UNL A   1      42.549  27.661  31.005  1.00  0.00    -0.036 A 
ATOM     78  N   UNL A   1      41.522  29.252  32.173  1.00  0.00    -0.354 N 
ATOM     79  N   UNL A   1      41.163  31.053  34.469  1.00  0.00    -0.248 NA
ATOM     80  C   UNL A   1      41.754  31.751  36.616  1.00  0.00    -0.034 C 
ATOM     81  C   UNL A   1      43.177  27.773  32.250  1.00  0.00    -0.036 A 
ATOM     82  H   UNL A   1      42.826  27.024  30.242  1.00  0.00     0.065 H 
ATOM     83  C   UNL A   1      42.556  28.784  32.967  1.00  0.00     0.049 A 
ATOM     84  H   UNL A   1      40.899  29.972  32.422  1.00  0.00     0.167 HD
ATOM     85  C   UNL A   1      42.236  30.292  34.913  1.00  0.00     0.074 A 
ATOM     86  C   UNL A   1      42.574  30.782  36.234  1.00  0.00    -0.034 C 
ATOM     87  H   UNL A   1      41.728  32.267  37.509  1.00  0.00     0.065 H 
ATOM     88  H   UNL A   1      43.968  27.199  32.579  1.00  0.00     0.065 H 
ATOM     89  C   UNL A   1      42.885  29.285  34.280  1.00  0.00     0.037 A 
ATOM     90  H   UNL A   1      43.354  30.421  36.805  1.00  0.00     0.065 H 
BRANCH  71  91
ATOM     91  C   UNL A   1      40.534  27.833  28.745  1.00  0.00     0.064 A 
ATOM     92  C   UNL A   1      41.272  28.130  27.588  1.00  0.00     0.173 A 
ATOM     93  C   UNL A   1      39.800  26.638  28.760  1.00  0.00     0.173 A 
ATOM     94  F   UNL A   1      41.987  29.264  27.515  1.00  0.00    -0.203 F 
ATOM     95  C   UNL A   1      41.234  27.292  26.477  1.00  0.00     0.198 A 
ATOM     96  C   UNL A   1      39.795  25.782  27.662  1.00  0.00     0.198 A 
ATOM     97  F   UNL A   1      39.082  26.298  29.841  1.00  0.00    -0.203 F 
ATOM     98  F   UNL A   1      41.889  27.635  25.359  1.00  0.00    -0.200 F 
ATOM     99  C   UNL A   1      40.499  26.117  26.515  1.00  0.00     0.200 A 
ATOM    100  F   UNL A   1      39.097  24.638  27.708  1.00  0.00    -0.200 F 
ATOM    101  F   UNL A   1      40.461  25.312  25.445  1.00  0.00    -0.200 F 
ENDBRANCH  71  91
BRANCH  74 102
ATOM    102  C   UNL A   1      39.651  33.812  36.697  1.00  0.00     0.064 A 
ATOM    103  C   UNL A   1      40.249  35.074  36.808  1.00  0.00     0.173 A 
ATOM    104  C   UNL A   1      38.833  33.382  37.754  1.00  0.00     0.173 A 
ATOM    105  F   UNL A   1      41.053  35.521  35.833  1.00  0.00    -0.203 F 
ATOM    106  C   UNL A   1      40.043  35.873  37.931  1.00  0.00     0.198 A 
ATOM    107  C   UNL A   1      38.604  34.193  38.863  1.00  0.00     0.198 A 
ATOM    108  F   UNL A   1      38.231  32.186  37.693  1.00  0.00    -0.203 F 
ATOM    109  F   UNL A   1      40.650  37.063  38.025  1.00  0.00    -0.200 F 
ATOM    110  C   UNL A   1      39.213  35.436  38.953  1.00  0.00     0.200 A 
ATOM    111  F   UNL A   1      37.786  33.775  39.839  1.00  0.00    -0.200 F 
ATOM    112  F   UNL A   1      39.001  36.210  40.026  1.00  0.00    -0.200 F 
ENDBRANCH  74 102
BRANCH  89 113
ATOM    113  C   UNL A   1      44.056  28.658  34.981  1.00  0.00     0.064 A 
ATOM    114  C   UNL A   1      45.350  29.188  34.876  1.00  0.00     0.173 A 
ATOM    115  C   UNL A   1      43.863  27.561  35.835  1.00  0.00     0.173 A 
ATOM    116  F   UNL A   1      45.591  30.226  34.062  1.00  0.00    -0.203 F 
ATOM    117  C   UNL A   1      46.408  28.635  35.593  1.00  0.00     0.198 A 
ATOM    118  C   UNL A   1      44.916  27.031  36.573  1.00  0.00     0.198 A 
ATOM    119  F   UNL A   1      42.642  27.020  35.974  1.00  0.00    -0.203 F 
ATOM    120  F   UNL A   1      47.644  29.137  35.454  1.00  0.00    -0.200 F 
ATOM    121  C   UNL A   1      46.188  27.566  36.450  1.00  0.00     0.200 A 
ATOM    122  F   UNL A   1      44.697  26.009  37.413  1.00  0.00    -0.200 F 
ATOM    123  F   UNL A   1      47.205  27.051  37.156  1.00  0.00    -0.200 F 
ENDBRANCH  89 113
ENDBRANCH  54  57
ENDBRANCH  44  47
ENDBRANCH  40  43
ENDBRANCH  37  40
ENDBRANCH  34  37
ENDBRANCH   1  34
TORSDOF 16
ENDMDL
MODEL 3
REMARK VINA RESULT:     -11.9      2.187      2.905
REMARK SMILES C[C@@H](C(=O)NCCCCCCNC(=O)c1ccc(-c2c3nc(c(-c4c(F)c(F)c(F)c(F)c4F)c4ccc([nH]4)c(-c4c(F)c(F)c(F)c(F)c4F)c4nc(c(-c5c(F)c(F)c(F)c(F)c5F)c5ccc2[nH]5)C=C4)C=C3)cc1)c1cccn(C(F)F)c1=O
REMARK SMILES IDX 8 1 7 4 6 7 5 10 3 11 4 12 2 14 1 16 78 20 79 21 86 22 80 23
REMARK SMILES IDX 82 25 87 26 81 27 83 30 84 31 85 32 9 34 10 37 11 40 12 43
REMARK SMILES IDX 13 44 14 46 15 47 16 48 77 49 17 50 76 52 18 54 19 57 20 58
REMARK SMILES IDX 70 59 21 60 75 61 69 62 71 63 22 64 74 65 68 67 67 69 23 71
REMARK SMILES IDX 55 74 35 75 54 76 36 77 39 78 53 79 72 80 37 81 38 83 52 85
REMARK SMILES IDX 73 86 40 89 24 91 25 92 33 93 26 94 27 95 31 96 34 97 28 98
REMARK SMILES IDX 29 99 32 100 30 101 56 102 57 103 65 104 58 105 59 106
REMARK SMILES IDX 63 107 66 108 60 109 61 110 64 111 62 112 41 113 42 114
REMARK SMILES IDX 50 115 43 116 44 117 48 118 51 119 45 120 46 121 49 122
REMARK SMILES IDX 47 123
REMARK H PARENT 8 2 8 3 7 5 7 6 6 8 6 9 5 13 2 15 1 17 1 18 1 19 79 24 80 28
REMARK H PARENT 81 29 83 33 9 35 9 36 10 38 10 39 11 41 11 42 12 45 16 51
REMARK H PARENT 77 53 17 55 76 56 75 66 69 68 71 70 74 72 68 73 36 82 39 84
REMARK H PARENT 72 87 37 88 73 90
REMARK Flexibility Score: inf
ROOT
ATOM      1  C   UNL A   1      32.445  29.646  27.228  1.00  0.00    -0.052 C 
ATOM      2  H   UNL A   1      33.402  29.370  26.836  1.00  0.00     0.027 H 
ATOM      3  H   UNL A   1      32.508  30.207  28.137  1.00  0.00     0.027 H 
ENDROOT
BRANCH   1   4
ATOM      4  C   UNL A   1      31.678  28.359  27.566  1.00  0.00    -0.036 C 
ATOM      5  H   UNL A   1      32.193  27.854  28.356  1.00  0.00     0.028 H 
ATOM      6  H   UNL A   1      30.687  28.647  27.850  1.00  0.00     0.028 H 
BRANCH   4   7
ATOM      7  C   UNL A   1      31.550  27.400  26.379  1.00  0.00     0.017 C 
ATOM      8  H   UNL A   1      30.748  27.723  25.747  1.00  0.00     0.049 H 
ATOM      9  H   UNL A   1      32.465  27.396  25.825  1.00  0.00     0.049 H 
BRANCH   7  10
ATOM     10  N   UNL A   1      31.274  26.062  26.860  1.00  0.00    -0.356 N 
ATOM     11  C   UNL A   1      31.075  24.907  26.159  1.00  0.00     0.227 C 
ATOM     12  O   UNL A   1      30.590  23.961  26.783  1.00  0.00    -0.274 OA
ATOM     13  H   UNL A   1      31.222  25.973  27.839  1.00  0.00     0.163 HD
BRANCH  11  14
ATOM     14  C   UNL A   1      31.539  24.807  24.694  1.00  0.00     0.066 C 
ATOM     15  H   UNL A   1      31.909  25.748  24.344  1.00  0.00     0.045 H 
BRANCH  14  16
ATOM     16  C   UNL A   1      30.375  24.540  23.736  1.00  0.00    -0.049 C 
ATOM     17  H   UNL A   1      30.053  23.524  23.842  1.00  0.00     0.024 H 
ATOM     18  H   UNL A   1      30.694  24.710  22.729  1.00  0.00     0.024 H 
ATOM     19  H   UNL A   1      29.563  25.197  23.969  1.00  0.00     0.024 H 
ENDBRANCH  14  16
BRANCH  14  20
ATOM     20  C   UNL A   1      32.708  23.830  24.622  1.00  0.00     0.030 A 
ATOM     21  C   UNL A   1      32.508  22.520  24.361  1.00  0.00    -0.051 A 
ATOM     22  C   UNL A   1      34.131  24.288  24.826  1.00  0.00     0.258 A 
ATOM     23  C   UNL A   1      33.596  21.584  24.261  1.00  0.00    -0.045 A 
ATOM     24  H   UNL A   1      31.543  22.179  24.229  1.00  0.00     0.063 H 
ATOM     25  N   UNL A   1      35.104  23.303  24.830  1.00  0.00    -0.258 N 
ATOM     26  O   UNL A   1      34.403  25.471  25.013  1.00  0.00    -0.269 OA
ATOM     27  C   UNL A   1      34.843  21.987  24.514  1.00  0.00     0.013 A 
ATOM     28  H   UNL A   1      33.413  20.603  23.993  1.00  0.00     0.064 H 
ATOM     29  H   UNL A   1      35.618  21.308  24.473  1.00  0.00     0.082 H 
BRANCH  25  30
ATOM     30  C   UNL A   1      36.451  23.703  25.149  1.00  0.00     0.321 C 
ATOM     31  F   UNL A   1      36.613  23.703  26.501  1.00  0.00    -0.185 F 
ATOM     32  F   UNL A   1      37.331  22.788  24.664  1.00  0.00    -0.185 F 
ATOM     33  H   UNL A   1      36.623  24.671  24.725  1.00  0.00     0.131 H 
ENDBRANCH  25  30
ENDBRANCH  14  20
ENDBRANCH  11  14
ENDBRANCH   7  10
ENDBRANCH   4   7
ENDBRANCH   1   4
BRANCH   1  34
ATOM     34  C   UNL A   1      31.754  30.554  26.206  1.00  0.00    -0.052 C 
ATOM     35  H   UNL A   1      30.823  30.102  25.932  1.00  0.00     0.027 H 
ATOM     36  H   UNL A   1      32.429  30.654  25.381  1.00  0.00     0.027 H 
BRANCH  34  37
ATOM     37  C   UNL A   1      31.466  31.969  26.708  1.00  0.00    -0.036 C 
ATOM     38  H   UNL A   1      30.678  31.919  27.429  1.00  0.00     0.028 H 
ATOM     39  H   UNL A   1      31.203  32.555  25.852  1.00  0.00     0.028 H 
BRANCH  37  40
ATOM     40  C   UNL A   1      32.667  32.650  27.356  1.00  0.00     0.018 C 
ATOM     41  H   UNL A   1      33.513  32.550  26.708  1.00  0.00     0.049 H 
ATOM     42  H   UNL A   1      32.847  32.178  28.299  1.00  0.00     0.049 H 
BRANCH  40  43
ATOM     43  N   UNL A   1      32.421  34.064  27.596  1.00  0.00    -0.352 N 
ATOM     44  C   UNL A   1      32.994  34.889  28.530  1.00  0.00     0.251 C 
ATOM     45  H   UNL A   1      31.754  34.486  27.008  1.00  0.00     0.163 HD
ATOM     46  O   UNL A   1      32.528  36.003  28.754  1.00  0.00    -0.269 OA
BRANCH  44  47
ATOM     47  C   UNL A   1      34.170  34.415  29.283  1.00  0.00     0.039 A 
ATOM     48  C   UNL A   1      33.985  33.787  30.517  1.00  0.00    -0.049 A 
ATOM     49  C   UNL A   1      35.454  34.569  28.751  1.00  0.00    -0.049 A 
ATOM     50  C   UNL A   1      35.086  33.254  31.190  1.00  0.00    -0.053 A 
ATOM     51  H   UNL A   1      33.042  33.719  30.929  1.00  0.00     0.063 H 
ATOM     52  C   UNL A   1      36.535  33.968  29.382  1.00  0.00    -0.053 A 
ATOM     53  H   UNL A   1      35.596  35.126  27.894  1.00  0.00     0.063 H 
ATOM     54  C   UNL A   1      36.364  33.310  30.609  1.00  0.00    -0.014 A 
ATOM     55  H   UNL A   1      34.961  32.820  32.118  1.00  0.00     0.063 H 
ATOM     56  H   UNL A   1      37.470  34.008  28.946  1.00  0.00     0.063 H 
BRANCH  54  57
ATOM     57  C   UNL A   1      37.544  32.692  31.263  1.00  0.00     0.031 A 
ATOM     58  C   UNL A   1      38.233  31.529  30.609  1.00  0.00     0.074 A 
ATOM     59  C   UNL A   1      37.928  33.107  32.484  1.00  0.00     0.049 A 
ATOM     60  N   UNL A   1      39.189  30.763  31.072  1.00  0.00    -0.248 NA
ATOM     61  C   UNL A   1      37.758  31.155  29.269  1.00  0.00    -0.034 C 
ATOM     62  C   UNL A   1      37.306  34.195  33.240  1.00  0.00    -0.036 A 
ATOM     63  N   UNL A   1      38.916  32.644  33.318  1.00  0.00    -0.354 N 
ATOM     64  C   UNL A   1      39.409  29.805  30.092  1.00  0.00     0.074 A 
ATOM     65  C   UNL A   1      38.452  30.051  29.036  1.00  0.00    -0.034 C 
ATOM     66  H   UNL A   1      37.066  31.628  28.667  1.00  0.00     0.065 H 
ATOM     67  C   UNL A   1      37.926  34.316  34.424  1.00  0.00    -0.036 A 
ATOM     68  H   UNL A   1      36.517  34.776  32.914  1.00  0.00     0.065 H 
ATOM     69  C   UNL A   1      38.956  33.286  34.530  1.00  0.00     0.049 A 
ATOM     70  H   UNL A   1      39.535  31.920  33.069  1.00  0.00     0.167 HD
ATOM     71  C   UNL A   1      40.340  28.821  30.068  1.00  0.00     0.037 A 
ATOM     72  H   UNL A   1      38.325  29.445  28.210  1.00  0.00     0.065 H 
ATOM     73  H   UNL A   1      37.709  35.023  35.144  1.00  0.00     0.065 H 
ATOM     74  C   UNL A   1      39.719  33.055  35.616  1.00  0.00     0.037 A 
ATOM     75  C   UNL A   1      41.300  28.597  31.117  1.00  0.00     0.049 A 
ATOM     76  C   UNL A   1      40.741  31.953  35.576  1.00  0.00     0.074 A 
ATOM     77  C   UNL A   1      42.332  27.678  31.160  1.00  0.00    -0.036 A 
ATOM     78  N   UNL A   1      41.334  29.293  32.318  1.00  0.00    -0.354 N 
ATOM     79  N   UNL A   1      40.998  31.101  34.613  1.00  0.00    -0.248 NA
ATOM     80  C   UNL A   1      41.584  31.782  36.766  1.00  0.00    -0.034 C 
ATOM     81  C   UNL A   1      42.949  27.771  32.411  1.00  0.00    -0.036 A 
ATOM     82  H   UNL A   1      42.601  27.034  30.398  1.00  0.00     0.065 H 
ATOM     83  C   UNL A   1      42.348  28.798  33.123  1.00  0.00     0.049 A 
ATOM     84  H   UNL A   1      40.728  30.029  32.561  1.00  0.00     0.167 HD
ATOM     85  C   UNL A   1      42.046  30.312  35.067  1.00  0.00     0.074 A 
ATOM     86  C   UNL A   1      42.383  30.791  36.392  1.00  0.00    -0.034 C 
ATOM     87  H   UNL A   1      41.562  32.297  37.660  1.00  0.00     0.065 H 
ATOM     88  H   UNL A   1      43.722  27.177  32.748  1.00  0.00     0.065 H 
ATOM     89  C   UNL A   1      42.675  29.288  34.440  1.00  0.00     0.037 A 
ATOM     90  H   UNL A   1      43.147  30.410  36.971  1.00  0.00     0.065 H 
BRANCH  71  91
ATOM     91  C   UNL A   1      40.346  27.904  28.878  1.00  0.00     0.064 A 
ATOM     92  C   UNL A   1      39.624  26.700  28.863  1.00  0.00     0.173 A 
ATOM     93  C   UNL A   1      41.088  28.233  27.733  1.00  0.00     0.173 A 
ATOM     94  F   UNL A   1      38.903  26.331  29.934  1.00  0.00    -0.203 F 
ATOM     95  C   UNL A   1      39.685  25.840  27.771  1.00  0.00     0.198 A 
ATOM     96  C   UNL A   1      41.115  27.389  26.627  1.00  0.00     0.198 A 
ATOM     97  F   UNL A   1      41.790  29.375  27.687  1.00  0.00    -0.203 F 
ATOM     98  F   UNL A   1      39.045  24.662  27.811  1.00  0.00    -0.200 F 
ATOM     99  C   UNL A   1      40.426  26.186  26.651  1.00  0.00     0.200 A 
ATOM    100  F   UNL A   1      41.819  27.734  25.539  1.00  0.00    -0.200 F 
ATOM    101  F   UNL A   1      40.486  25.356  25.601  1.00  0.00    -0.200 F 
ENDBRANCH  71  91
BRANCH  74 102
ATOM    102  C   UNL A   1      39.535  33.897  36.828  1.00  0.00     0.064 A 
ATOM    103  C   UNL A   1      38.727  33.470  37.890  1.00  0.00     0.173 A 
ATOM    104  C   UNL A   1      40.197  35.127  36.963  1.00  0.00     0.173 A 
ATOM    105  F   UNL A   1      38.060  32.310  37.800  1.00  0.00    -0.203 F 
ATOM    106  C   UNL A   1      38.580  34.245  39.039  1.00  0.00     0.198 A 
ATOM    107  C   UNL A   1      40.073  35.887  38.125  1.00  0.00     0.198 A 
ATOM    108  F   UNL A   1      40.988  35.576  35.979  1.00  0.00    -0.203 F 
ATOM    109  F   UNL A   1      37.778  33.829  40.027  1.00  0.00    -0.200 F 
ATOM    110  C   UNL A   1      39.261  35.448  39.159  1.00  0.00     0.200 A 
ATOM    111  F   UNL A   1      40.747  37.039  38.244  1.00  0.00    -0.200 F 
ATOM    112  F   UNL A   1      39.133  36.185  40.271  1.00  0.00    -0.200 F 
ENDBRANCH  74 102
BRANCH  89 113
ATOM    113  C   UNL A   1      43.822  28.631  35.153  1.00  0.00     0.064 A 
ATOM    114  C   UNL A   1      43.638  27.503  35.965  1.00  0.00     0.173 A 
ATOM    115  C   UNL A   1      45.133  29.089  34.951  1.00  0.00     0.173 A 
ATOM    116  F   UNL A   1      42.404  27.034  36.201  1.00  0.00    -0.203 F 
ATOM    117  C   UNL A   1      44.725  26.864  36.557  1.00  0.00     0.198 A 
ATOM    118  C   UNL A   1      46.220  28.430  35.519  1.00  0.00     0.198 A 
ATOM    119  F   UNL A   1      45.363  30.161  34.178  1.00  0.00    -0.203 F 
ATOM    120  F   UNL A   1      44.524  25.807  37.356  1.00  0.00    -0.200 F 
ATOM    121  C   UNL A   1      46.014  27.321  36.324  1.00  0.00     0.200 A 
ATOM    122  F   UNL A   1      47.465  28.863  35.278  1.00  0.00    -0.200 F 
ATOM    123  F   UNL A   1      47.060  26.690  36.877  1.00  0.00    -0.200 F 
ENDBRANCH  89 113
ENDBRANCH  54  57
ENDBRANCH  44  47
ENDBRANCH  40  43
ENDBRANCH  37  40
ENDBRANCH  34  37
ENDBRANCH   1  34
TORSDOF 16
ENDMDL
MODEL 4
REMARK VINA RESULT:     -11.8      1.928      2.920
REMARK SMILES C[C@@H](C(=O)NCCCCCCNC(=O)c1ccc(-c2c3nc(c(-c4c(F)c(F)c(F)c(F)c4F)c4ccc([nH]4)c(-c4c(F)c(F)c(F)c(F)c4F)c4nc(c(-c5c(F)c(F)c(F)c(F)c5F)c5ccc2[nH]5)C=C4)C=C3)cc1)c1cccn(C(F)F)c1=O
REMARK SMILES IDX 8 1 7 4 6 7 5 10 3 11 4 12 2 14 1 16 78 20 79 21 86 22 80 23
REMARK SMILES IDX 82 25 87 26 81 27 83 30 84 31 85 32 9 34 10 37 11 40 12 43
REMARK SMILES IDX 13 44 14 46 15 47 16 48 77 49 17 50 76 52 18 54 19 57 20 58
REMARK SMILES IDX 70 59 21 60 75 61 69 62 71 63 22 64 74 65 68 67 67 69 23 71
REMARK SMILES IDX 55 74 35 75 54 76 36 77 39 78 53 79 72 80 37 81 38 83 52 85
REMARK SMILES IDX 73 86 40 89 24 91 25 92 33 93 26 94 27 95 31 96 34 97 28 98
REMARK SMILES IDX 29 99 32 100 30 101 56 102 57 103 65 104 58 105 59 106
REMARK SMILES IDX 63 107 66 108 60 109 61 110 64 111 62 112 41 113 42 114
REMARK SMILES IDX 50 115 43 116 44 117 48 118 51 119 45 120 46 121 49 122
REMARK SMILES IDX 47 123
REMARK H PARENT 8 2 8 3 7 5 7 6 6 8 6 9 5 13 2 15 1 17 1 18 1 19 79 24 80 28
REMARK H PARENT 81 29 83 33 9 35 9 36 10 38 10 39 11 41 11 42 12 45 16 51
REMARK H PARENT 77 53 17 55 76 56 75 66 69 68 71 70 74 72 68 73 36 82 39 84
REMARK H PARENT 72 87 37 88 73 90
REMARK Flexibility Score: inf
ROOT
ATOM      1  C   UNL A   1      32.510  29.715  27.092  1.00  0.00    -0.052 C 
ATOM      2  H   UNL A   1      33.398  29.345  26.622  1.00  0.00     0.027 H 
ATOM      3  H   UNL A   1      32.707  30.267  27.988  1.00  0.00     0.027 H 
ENDROOT
BRANCH   1   4
ATOM      4  C   UNL A   1      31.650  28.511  27.504  1.00  0.00    -0.036 C 
ATOM      5  H   UNL A   1      31.827  28.305  28.539  1.00  0.00     0.028 H 
ATOM      6  H   UNL A   1      30.630  28.772  27.313  1.00  0.00     0.028 H 
BRANCH   4   7
ATOM      7  C   UNL A   1      31.954  27.245  26.698  1.00  0.00     0.017 C 
ATOM      8  H   UNL A   1      33.006  27.185  26.513  1.00  0.00     0.049 H 
ATOM      9  H   UNL A   1      31.636  26.387  27.251  1.00  0.00     0.049 H 
BRANCH   7  10
ATOM     10  N   UNL A   1      31.246  27.290  25.435  1.00  0.00    -0.356 N 
ATOM     11  C   UNL A   1      31.726  27.483  24.172  1.00  0.00     0.227 C 
ATOM     12  O   UNL A   1      30.895  27.750  23.301  1.00  0.00    -0.274 OA
ATOM     13  H   UNL A   1      30.272  27.161  25.498  1.00  0.00     0.163 HD
BRANCH  11  14
ATOM     14  C   UNL A   1      33.224  27.273  23.878  1.00  0.00     0.066 C 
ATOM     15  H   UNL A   1      33.815  27.462  24.749  1.00  0.00     0.045 H 
BRANCH  14  16
ATOM     16  C   UNL A   1      33.768  28.303  22.885  1.00  0.00    -0.049 C 
ATOM     17  H   UNL A   1      33.305  29.251  23.066  1.00  0.00     0.024 H 
ATOM     18  H   UNL A   1      33.553  27.985  21.886  1.00  0.00     0.024 H 
ATOM     19  H   UNL A   1      34.827  28.395  23.010  1.00  0.00     0.024 H 
ENDBRANCH  14  16
BRANCH  14  20
ATOM     20  C   UNL A   1      33.445  25.807  23.517  1.00  0.00     0.030 A 
ATOM     21  C   UNL A   1      33.003  25.303  22.345  1.00  0.00    -0.051 A 
ATOM     22  C   UNL A   1      34.174  24.869  24.447  1.00  0.00     0.258 A 
ATOM     23  C   UNL A   1      33.223  23.932  21.969  1.00  0.00    -0.045 A 
ATOM     24  H   UNL A   1      32.492  25.921  21.697  1.00  0.00     0.063 H 
ATOM     25  N   UNL A   1      34.238  23.541  24.060  1.00  0.00    -0.258 N 
ATOM     26  O   UNL A   1      34.654  25.261  25.507  1.00  0.00    -0.269 OA
ATOM     27  C   UNL A   1      33.806  23.094  22.829  1.00  0.00     0.013 A 
ATOM     28  H   UNL A   1      32.932  23.596  21.037  1.00  0.00     0.064 H 
ATOM     29  H   UNL A   1      33.935  22.103  22.572  1.00  0.00     0.082 H 
BRANCH  25  30
ATOM     30  C   UNL A   1      34.818  22.606  24.992  1.00  0.00     0.321 C 
ATOM     31  F   UNL A   1      33.898  22.292  25.945  1.00  0.00    -0.185 F 
ATOM     32  F   UNL A   1      35.113  21.444  24.354  1.00  0.00    -0.185 F 
ATOM     33  H   UNL A   1      35.694  23.053  25.413  1.00  0.00     0.131 H 
ENDBRANCH  25  30
ENDBRANCH  14  20
ENDBRANCH  11  14
ENDBRANCH   7  10
ENDBRANCH   4   7
ENDBRANCH   1   4
BRANCH   1  34
ATOM     34  C   UNL A   1      31.828  30.689  26.125  1.00  0.00    -0.052 C 
ATOM     35  H   UNL A   1      30.913  30.244  25.793  1.00  0.00     0.027 H 
ATOM     36  H   UNL A   1      32.522  30.864  25.329  1.00  0.00     0.027 H 
BRANCH  34  37
ATOM     37  C   UNL A   1      31.503  32.056  26.728  1.00  0.00    -0.036 C 
ATOM     38  H   UNL A   1      30.737  31.927  27.464  1.00  0.00     0.028 H 
ATOM     39  H   UNL A   1      31.194  32.686  25.921  1.00  0.00     0.028 H 
BRANCH  37  40
ATOM     40  C   UNL A   1      32.694  32.738  27.390  1.00  0.00     0.018 C 
ATOM     41  H   UNL A   1      33.540  32.667  26.737  1.00  0.00     0.049 H 
ATOM     42  H   UNL A   1      32.884  32.247  28.321  1.00  0.00     0.049 H 
BRANCH  40  43
ATOM     43  N   UNL A   1      32.428  34.143  27.665  1.00  0.00    -0.352 N 
ATOM     44  C   UNL A   1      32.997  34.956  28.612  1.00  0.00     0.251 C 
ATOM     45  H   UNL A   1      31.749  34.567  27.093  1.00  0.00     0.163 HD
ATOM     46  O   UNL A   1      32.515  36.056  28.866  1.00  0.00    -0.269 OA
BRANCH  44  47
ATOM     47  C   UNL A   1      34.188  34.484  29.343  1.00  0.00     0.039 A 
ATOM     48  C   UNL A   1      34.029  33.885  30.595  1.00  0.00    -0.049 A 
ATOM     49  C   UNL A   1      35.458  34.611  28.773  1.00  0.00    -0.049 A 
ATOM     50  C   UNL A   1      35.142  33.353  31.249  1.00  0.00    -0.053 A 
ATOM     51  H   UNL A   1      33.097  33.836  31.033  1.00  0.00     0.063 H 
ATOM     52  C   UNL A   1      36.550  34.012  29.387  1.00  0.00    -0.053 A 
ATOM     53  H   UNL A   1      35.583  35.148  27.901  1.00  0.00     0.063 H 
ATOM     54  C   UNL A   1      36.404  33.381  30.633  1.00  0.00    -0.014 A 
ATOM     55  H   UNL A   1      35.038  32.940  32.188  1.00  0.00     0.063 H 
ATOM     56  H   UNL A   1      37.473  34.031  28.925  1.00  0.00     0.063 H 
BRANCH  54  57
ATOM     57  C   UNL A   1      37.595  32.764  31.267  1.00  0.00     0.031 A 
ATOM     58  C   UNL A   1      38.276  31.603  30.601  1.00  0.00     0.074 A 
ATOM     59  C   UNL A   1      37.996  33.176  32.484  1.00  0.00     0.049 A 
ATOM     60  N   UNL A   1      39.240  30.837  31.048  1.00  0.00    -0.248 NA
ATOM     61  C   UNL A   1      37.781  31.232  29.266  1.00  0.00    -0.034 C 
ATOM     62  C   UNL A   1      37.384  34.261  33.251  1.00  0.00    -0.036 A 
ATOM     63  N   UNL A   1      38.997  32.712  33.302  1.00  0.00    -0.354 N 
ATOM     64  C   UNL A   1      39.447  29.882  30.062  1.00  0.00     0.074 A 
ATOM     65  C   UNL A   1      38.474  30.130  29.021  1.00  0.00    -0.034 C 
ATOM     66  H   UNL A   1      37.080  31.705  28.676  1.00  0.00     0.065 H 
ATOM     67  C   UNL A   1      38.021  34.380  34.426  1.00  0.00    -0.036 A 
ATOM     68  H   UNL A   1      36.589  34.841  32.939  1.00  0.00     0.065 H 
ATOM     69  C   UNL A   1      39.054  33.352  34.515  1.00  0.00     0.049 A 
ATOM     70  H   UNL A   1      39.613  31.990  33.042  1.00  0.00     0.167 HD
ATOM     71  C   UNL A   1      40.378  28.900  30.022  1.00  0.00     0.037 A 
ATOM     72  H   UNL A   1      38.336  29.526  28.195  1.00  0.00     0.065 H 
ATOM     73  H   UNL A   1      37.813  35.085  35.152  1.00  0.00     0.065 H 
ATOM     74  C   UNL A   1      39.833  33.119  35.589  1.00  0.00     0.037 A 
ATOM     75  C   UNL A   1      41.354  28.674  31.056  1.00  0.00     0.049 A 
ATOM     76  C   UNL A   1      40.856  32.018  35.531  1.00  0.00     0.074 A 
ATOM     77  C   UNL A   1      42.389  27.756  31.081  1.00  0.00    -0.036 A 
ATOM     78  N   UNL A   1      41.405  29.367  32.258  1.00  0.00    -0.354 N 
ATOM     79  N   UNL A   1      41.100  31.169  34.562  1.00  0.00    -0.248 NA
ATOM     80  C   UNL A   1      41.717  31.846  36.708  1.00  0.00    -0.034 C 
ATOM     81  C   UNL A   1      43.024  27.848  32.323  1.00  0.00    -0.036 A 
ATOM     82  H   UNL A   1      42.647  27.115  30.314  1.00  0.00     0.065 H 
ATOM     83  C   UNL A   1      42.431  28.872  33.046  1.00  0.00     0.049 A 
ATOM     84  H   UNL A   1      40.801  30.102  32.512  1.00  0.00     0.167 HD
ATOM     85  C   UNL A   1      42.156  30.381  34.999  1.00  0.00     0.074 A 
ATOM     86  C   UNL A   1      42.512  30.857  36.320  1.00  0.00    -0.034 C 
ATOM     87  H   UNL A   1      41.707  32.359  37.604  1.00  0.00     0.065 H 
ATOM     88  H   UNL A   1      43.802  27.254  32.647  1.00  0.00     0.065 H 
ATOM     89  C   UNL A   1      42.777  29.360  34.360  1.00  0.00     0.037 A 
ATOM     90  H   UNL A   1      43.284  30.475  36.887  1.00  0.00     0.065 H 
BRANCH  71  91
ATOM     91  C   UNL A   1      40.369  27.986  28.829  1.00  0.00     0.064 A 
ATOM     92  C   UNL A   1      39.651  26.779  28.823  1.00  0.00     0.173 A 
ATOM     93  C   UNL A   1      41.090  28.320  27.673  1.00  0.00     0.173 A 
ATOM     94  F   UNL A   1      38.949  26.405  29.905  1.00  0.00    -0.203 F 
ATOM     95  C   UNL A   1      39.697  25.921  27.728  1.00  0.00     0.198 A 
ATOM     96  C   UNL A   1      41.102  27.479  26.564  1.00  0.00     0.198 A 
ATOM     97  F   UNL A   1      41.788  29.465  27.618  1.00  0.00    -0.203 F 
ATOM     98  F   UNL A   1      39.062  24.741  27.776  1.00  0.00    -0.200 F 
ATOM     99  C   UNL A   1      40.419  26.273  26.597  1.00  0.00     0.200 A 
ATOM    100  F   UNL A   1      41.787  27.829  25.466  1.00  0.00    -0.200 F 
ATOM    101  F   UNL A   1      40.464  25.446  25.544  1.00  0.00    -0.200 F 
ENDBRANCH  71  91
BRANCH  74 102
ATOM    102  C   UNL A   1      39.666  33.957  36.805  1.00  0.00     0.064 A 
ATOM    103  C   UNL A   1      40.284  35.210  36.911  1.00  0.00     0.173 A 
ATOM    104  C   UNL A   1      38.853  33.537  37.870  1.00  0.00     0.173 A 
ATOM    105  F   UNL A   1      41.084  35.647  35.928  1.00  0.00    -0.203 F 
ATOM    106  C   UNL A   1      40.101  36.009  38.038  1.00  0.00     0.198 A 
ATOM    107  C   UNL A   1      38.648  34.349  38.983  1.00  0.00     0.198 A 
ATOM    108  F   UNL A   1      38.233  32.350  37.814  1.00  0.00    -0.203 F 
ATOM    109  F   UNL A   1      40.728  37.190  38.128  1.00  0.00    -0.200 F 
ATOM    110  C   UNL A   1      39.277  35.583  39.069  1.00  0.00     0.200 A 
ATOM    111  F   UNL A   1      37.835  33.941  39.967  1.00  0.00    -0.200 F 
ATOM    112  F   UNL A   1      39.088  36.358  40.145  1.00  0.00    -0.200 F 
ENDBRANCH  74 102
BRANCH  89 113
ATOM    113  C   UNL A   1      43.935  28.702  35.054  1.00  0.00     0.064 A 
ATOM    114  C   UNL A   1      43.765  27.571  35.866  1.00  0.00     0.173 A 
ATOM    115  C   UNL A   1      45.243  29.163  34.835  1.00  0.00     0.173 A 
ATOM    116  F   UNL A   1      42.535  27.100  36.118  1.00  0.00    -0.203 F 
ATOM    117  C   UNL A   1      44.862  26.933  36.440  1.00  0.00     0.198 A 
ATOM    118  C   UNL A   1      46.339  28.504  35.385  1.00  0.00     0.198 A 
ATOM    119  F   UNL A   1      45.460  30.238  34.062  1.00  0.00    -0.203 F 
ATOM    120  F   UNL A   1      44.674  25.873  37.239  1.00  0.00    -0.200 F 
ATOM    121  C   UNL A   1      46.147  27.392  36.189  1.00  0.00     0.200 A 
ATOM    122  F   UNL A   1      47.579  28.940  35.128  1.00  0.00    -0.200 F 
ATOM    123  F   UNL A   1      47.201  26.762  36.725  1.00  0.00    -0.200 F 
ENDBRANCH  89 113
ENDBRANCH  54  57
ENDBRANCH  44  47
ENDBRANCH  40  43
ENDBRANCH  37  40
ENDBRANCH  34  37
ENDBRANCH   1  34
TORSDOF 16
ENDMDL
MODEL 5
REMARK VINA RESULT:     -11.8      1.778      7.861
REMARK SMILES C[C@@H](C(=O)NCCCCCCNC(=O)c1ccc(-c2c3nc(c(-c4c(F)c(F)c(F)c(F)c4F)c4ccc([nH]4)c(-c4c(F)c(F)c(F)c(F)c4F)c4nc(c(-c5c(F)c(F)c(F)c(F)c5F)c5ccc2[nH]5)C=C4)C=C3)cc1)c1cccn(C(F)F)c1=O
REMARK SMILES IDX 8 1 7 4 6 7 5 10 3 11 4 12 2 14 1 16 78 20 79 21 86 22 80 23
REMARK SMILES IDX 82 25 87 26 81 27 83 30 84 31 85 32 9 34 10 37 11 40 12 43
REMARK SMILES IDX 13 44 14 46 15 47 16 48 77 49 17 50 76 52 18 54 19 57 20 58
REMARK SMILES IDX 70 59 21 60 75 61 69 62 71 63 22 64 74 65 68 67 67 69 23 71
REMARK SMILES IDX 55 74 35 75 54 76 36 77 39 78 53 79 72 80 37 81 38 83 52 85
REMARK SMILES IDX 73 86 40 89 24 91 25 92 33 93 26 94 27 95 31 96 34 97 28 98
REMARK SMILES IDX 29 99 32 100 30 101 56 102 57 103 65 104 58 105 59 106
REMARK SMILES IDX 63 107 66 108 60 109 61 110 64 111 62 112 41 113 42 114
REMARK SMILES IDX 50 115 43 116 44 117 48 118 51 119 45 120 46 121 49 122
REMARK SMILES IDX 47 123
REMARK H PARENT 8 2 8 3 7 5 7 6 6 8 6 9 5 13 2 15 1 17 1 18 1 19 79 24 80 28
REMARK H PARENT 81 29 83 33 9 35 9 36 10 38 10 39 11 41 11 42 12 45 16 51
REMARK H PARENT 77 53 17 55 76 56 75 66 69 68 71 70 74 72 68 73 36 82 39 84
REMARK H PARENT 72 87 37 88 73 90
REMARK Flexibility Score: inf
ROOT
ATOM      1  C   UNL A   1      34.856  32.843  29.315  1.00  0.00    -0.052 C 
ATOM      2  H   UNL A   1      35.371  32.510  30.192  1.00  0.00     0.027 H 
ATOM      3  H   UNL A   1      33.796  32.908  29.448  1.00  0.00     0.027 H 
ENDROOT
BRANCH   1   4
ATOM      4  C   UNL A   1      35.090  31.810  28.202  1.00  0.00    -0.036 C 
ATOM      5  H   UNL A   1      35.633  32.281  27.410  1.00  0.00     0.028 H 
ATOM      6  H   UNL A   1      35.633  30.996  28.636  1.00  0.00     0.028 H 
BRANCH   4   7
ATOM      7  C   UNL A   1      33.793  31.234  27.627  1.00  0.00     0.017 C 
ATOM      8  H   UNL A   1      33.292  30.663  28.381  1.00  0.00     0.049 H 
ATOM      9  H   UNL A   1      33.161  32.035  27.304  1.00  0.00     0.049 H 
BRANCH   7  10
ATOM     10  N   UNL A   1      34.097  30.379  26.498  1.00  0.00    -0.356 N 
ATOM     11  C   UNL A   1      33.414  29.302  26.011  1.00  0.00     0.227 C 
ATOM     12  O   UNL A   1      34.018  28.581  25.214  1.00  0.00    -0.274 OA
ATOM     13  H   UNL A   1      34.920  30.609  26.010  1.00  0.00     0.163 HD
BRANCH  11  14
ATOM     14  C   UNL A   1      31.935  29.094  26.389  1.00  0.00     0.066 C 
ATOM     15  H   UNL A   1      31.489  30.011  26.712  1.00  0.00     0.045 H 
BRANCH  14  16
ATOM     16  C   UNL A   1      31.774  28.202  27.624  1.00  0.00    -0.049 C 
ATOM     17  H   UNL A   1      32.347  27.307  27.493  1.00  0.00     0.024 H 
ATOM     18  H   UNL A   1      30.742  27.950  27.749  1.00  0.00     0.024 H 
ATOM     19  H   UNL A   1      32.122  28.725  28.489  1.00  0.00     0.024 H 
ENDBRANCH  14  16
BRANCH  14  20
ATOM     20  C   UNL A   1      31.173  28.659  25.141  1.00  0.00     0.030 A 
ATOM     21  C   UNL A   1      31.114  27.361  24.775  1.00  0.00    -0.051 A 
ATOM     22  C   UNL A   1      30.448  29.659  24.274  1.00  0.00     0.258 A 
ATOM     23  C   UNL A   1      30.379  26.923  23.619  1.00  0.00    -0.045 A 
ATOM     24  H   UNL A   1      31.611  26.659  25.345  1.00  0.00     0.063 H 
ATOM     25  N   UNL A   1      29.867  29.168  23.117  1.00  0.00    -0.258 N 
ATOM     26  O   UNL A   1      30.408  30.851  24.566  1.00  0.00    -0.269 OA
ATOM     27  C   UNL A   1      29.801  27.823  22.820  1.00  0.00     0.013 A 
ATOM     28  H   UNL A   1      30.297  25.916  23.407  1.00  0.00     0.064 H 
ATOM     29  H   UNL A   1      29.302  27.511  21.974  1.00  0.00     0.082 H 
BRANCH  25  30
ATOM     30  C   UNL A   1      29.279  30.124  22.213  1.00  0.00     0.321 C 
ATOM     31  F   UNL A   1      30.084  30.268  21.124  1.00  0.00    -0.185 F 
ATOM     32  F   UNL A   1      28.095  29.649  21.746  1.00  0.00    -0.185 F 
ATOM     33  H   UNL A   1      29.149  31.047  22.738  1.00  0.00     0.131 H 
ENDBRANCH  25  30
ENDBRANCH  14  20
ENDBRANCH  11  14
ENDBRANCH   7  10
ENDBRANCH   4   7
ENDBRANCH   1   4
BRANCH   1  34
ATOM     34  C   UNL A   1      35.339  34.259  28.986  1.00  0.00    -0.052 C 
ATOM     35  H   UNL A   1      35.809  34.237  28.024  1.00  0.00     0.027 H 
ATOM     36  H   UNL A   1      36.008  34.543  29.772  1.00  0.00     0.027 H 
BRANCH  34  37
ATOM     37  C   UNL A   1      34.233  35.314  28.952  1.00  0.00    -0.036 C 
ATOM     38  H   UNL A   1      34.044  35.573  27.932  1.00  0.00     0.028 H 
ATOM     39  H   UNL A   1      34.578  36.145  29.530  1.00  0.00     0.028 H 
BRANCH  37  40
ATOM     40  C   UNL A   1      32.922  34.854  29.581  1.00  0.00     0.018 C 
ATOM     41  H   UNL A   1      33.083  33.915  30.068  1.00  0.00     0.049 H 
ATOM     42  H   UNL A   1      32.194  34.763  28.802  1.00  0.00     0.049 H 
BRANCH  40  43
ATOM     43  N   UNL A   1      32.426  35.813  30.556  1.00  0.00    -0.352 N 
ATOM     44  C   UNL A   1      32.738  35.926  31.887  1.00  0.00     0.251 C 
ATOM     45  H   UNL A   1      31.778  36.470  30.215  1.00  0.00     0.163 HD
ATOM     46  O   UNL A   1      32.077  36.646  32.629  1.00  0.00    -0.269 OA
BRANCH  44  47
ATOM     47  C   UNL A   1      33.873  35.153  32.426  1.00  0.00     0.039 A 
ATOM     48  C   UNL A   1      33.659  33.848  32.875  1.00  0.00    -0.049 A 
ATOM     49  C   UNL A   1      35.153  35.714  32.460  1.00  0.00    -0.049 A 
ATOM     50  C   UNL A   1      34.745  33.080  33.300  1.00  0.00    -0.053 A 
ATOM     51  H   UNL A   1      32.706  33.454  32.894  1.00  0.00     0.063 H 
ATOM     52  C   UNL A   1      36.241  34.923  32.807  1.00  0.00    -0.053 A 
ATOM     53  H   UNL A   1      35.288  36.711  32.229  1.00  0.00     0.063 H 
ATOM     54  C   UNL A   1      36.048  33.601  33.234  1.00  0.00    -0.014 A 
ATOM     55  H   UNL A   1      34.590  32.127  33.665  1.00  0.00     0.063 H 
ATOM     56  H   UNL A   1      37.196  35.311  32.749  1.00  0.00     0.063 H 
BRANCH  54  57
ATOM     57  C   UNL A   1      37.231  32.789  33.611  1.00  0.00     0.031 A 
ATOM     58  C   UNL A   1      37.966  33.090  34.885  1.00  0.00     0.074 A 
ATOM     59  C   UNL A   1      37.703  31.857  32.762  1.00  0.00     0.049 A 
ATOM     60  N   UNL A   1      39.095  32.596  35.330  1.00  0.00    -0.248 NA
ATOM     61  C   UNL A   1      37.370  34.112  35.759  1.00  0.00    -0.034 C 
ATOM     62  C   UNL A   1      37.104  31.509  31.473  1.00  0.00    -0.036 A 
ATOM     63  N   UNL A   1      38.813  31.053  32.842  1.00  0.00    -0.354 N 
ATOM     64  C   UNL A   1      39.352  33.264  36.519  1.00  0.00     0.074 A 
ATOM     65  C   UNL A   1      38.296  34.235  36.698  1.00  0.00    -0.034 C 
ATOM     66  H   UNL A   1      36.468  34.603  35.666  1.00  0.00     0.065 H 
ATOM     67  C   UNL A   1      37.850  30.562  30.884  1.00  0.00    -0.036 A 
ATOM     68  H   UNL A   1      36.244  31.925  31.081  1.00  0.00     0.065 H 
ATOM     69  C   UNL A   1      39.005  30.270  31.730  1.00  0.00     0.049 A 
ATOM     70  H   UNL A   1      39.413  31.039  33.622  1.00  0.00     0.167 HD
ATOM     71  C   UNL A   1      40.370  33.070  37.392  1.00  0.00     0.037 A 
ATOM     72  H   UNL A   1      38.267  34.935  37.458  1.00  0.00     0.065 H 
ATOM     73  H   UNL A   1      37.642  30.113  29.978  1.00  0.00     0.065 H 
ATOM     74  C   UNL A   1      40.011  29.432  31.415  1.00  0.00     0.037 A 
ATOM     75  C   UNL A   1      41.406  32.088  37.213  1.00  0.00     0.049 A 
ATOM     76  C   UNL A   1      41.137  29.235  32.391  1.00  0.00     0.074 A 
ATOM     77  C   UNL A   1      42.440  31.757  38.071  1.00  0.00    -0.036 A 
ATOM     78  N   UNL A   1      41.548  31.285  36.089  1.00  0.00    -0.354 N 
ATOM     79  N   UNL A   1      41.333  29.813  33.552  1.00  0.00    -0.248 NA
ATOM     80  C   UNL A   1      42.178  28.267  32.022  1.00  0.00    -0.034 C 
ATOM     81  C   UNL A   1      43.244  30.804  37.439  1.00  0.00    -0.036 A 
ATOM     82  H   UNL A   1      42.590  32.147  39.015  1.00  0.00     0.065 H 
ATOM     83  C   UNL A   1      42.673  30.487  36.216  1.00  0.00     0.049 A 
ATOM     84  H   UNL A   1      40.939  31.285  35.315  1.00  0.00     0.167 HD
ATOM     85  C   UNL A   1      42.501  29.262  34.064  1.00  0.00     0.074 A 
ATOM     86  C   UNL A   1      42.966  28.298  33.088  1.00  0.00    -0.034 C 
ATOM     87  H   UNL A   1      42.272  27.709  31.159  1.00  0.00     0.065 H 
ATOM     88  H   UNL A   1      44.116  30.405  37.819  1.00  0.00     0.065 H 
ATOM     89  C   UNL A   1      43.124  29.527  35.237  1.00  0.00     0.037 A 
ATOM     90  H   UNL A   1      43.806  27.710  33.207  1.00  0.00     0.065 H 
BRANCH  71  91
ATOM     91  C   UNL A   1      40.417  33.954  38.607  1.00  0.00     0.064 A 
ATOM     92  C   UNL A   1      39.728  33.632  39.788  1.00  0.00     0.173 A 
ATOM     93  C   UNL A   1      41.162  35.142  38.591  1.00  0.00     0.173 A 
ATOM     94  F   UNL A   1      38.993  32.511  39.857  1.00  0.00    -0.203 F 
ATOM     95  C   UNL A   1      39.742  34.490  40.884  1.00  0.00     0.198 A 
ATOM     96  C   UNL A   1      41.207  35.978  39.703  1.00  0.00     0.198 A 
ATOM     97  F   UNL A   1      41.848  35.496  37.494  1.00  0.00    -0.203 F 
ATOM     98  F   UNL A   1      39.017  34.196  41.972  1.00  0.00    -0.200 F 
ATOM     99  C   UNL A   1      40.485  35.660  40.843  1.00  0.00     0.200 A 
ATOM    100  F   UNL A   1      41.939  37.101  39.667  1.00  0.00    -0.200 F 
ATOM    101  F   UNL A   1      40.496  36.486  41.898  1.00  0.00    -0.200 F 
ENDBRANCH  71  91
BRANCH  74 102
ATOM    102  C   UNL A   1      39.983  28.720  30.111  1.00  0.00     0.064 A 
ATOM    103  C   UNL A   1      40.573  29.277  28.968  1.00  0.00     0.173 A 
ATOM    104  C   UNL A   1      39.401  27.448  29.991  1.00  0.00     0.173 A 
ATOM    105  F   UNL A   1      41.127  30.496  29.028  1.00  0.00    -0.203 F 
ATOM    106  C   UNL A   1      40.575  28.594  27.754  1.00  0.00     0.198 A 
ATOM    107  C   UNL A   1      39.429  26.754  28.784  1.00  0.00     0.198 A 
ATOM    108  F   UNL A   1      38.831  26.868  31.056  1.00  0.00    -0.203 F 
ATOM    109  F   UNL A   1      41.119  29.162  26.669  1.00  0.00    -0.200 F 
ATOM    110  C   UNL A   1      40.012  27.329  27.665  1.00  0.00     0.200 A 
ATOM    111  F   UNL A   1      38.900  25.525  28.708  1.00  0.00    -0.200 F 
ATOM    112  F   UNL A   1      40.028  26.665  26.501  1.00  0.00    -0.200 F 
ENDBRANCH  74 102
BRANCH  89 113
ATOM    113  C   UNL A   1      44.363  28.743  35.564  1.00  0.00     0.064 A 
ATOM    114  C   UNL A   1      45.642  29.205  35.222  1.00  0.00     0.173 A 
ATOM    115  C   UNL A   1      44.269  27.553  36.302  1.00  0.00     0.173 A 
ATOM    116  F   UNL A   1      45.785  30.328  34.505  1.00  0.00    -0.203 F 
ATOM    117  C   UNL A   1      46.780  28.498  35.600  1.00  0.00     0.198 A 
ATOM    118  C   UNL A   1      45.410  26.865  36.704  1.00  0.00     0.198 A 
ATOM    119  F   UNL A   1      43.068  27.071  36.658  1.00  0.00    -0.203 F 
ATOM    120  F   UNL A   1      47.992  28.940  35.235  1.00  0.00    -0.200 F 
ATOM    121  C   UNL A   1      46.665  27.336  36.350  1.00  0.00     0.200 A 
ATOM    122  F   UNL A   1      45.296  25.753  37.444  1.00  0.00    -0.200 F 
ATOM    123  F   UNL A   1      47.764  26.671  36.732  1.00  0.00    -0.200 F 
ENDBRANCH  89 113
ENDBRANCH  54  57
ENDBRANCH  44  47
ENDBRANCH  40  43
ENDBRANCH  37  40
ENDBRANCH  34  37
ENDBRANCH   1  34
TORSDOF 16
ENDMDL
MODEL 6
REMARK VINA RESULT:     -11.7      7.073     11.604
REMARK SMILES C[C@@H](C(=O)NCCCCCCNC(=O)c1ccc(-c2c3nc(c(-c4c(F)c(F)c(F)c(F)c4F)c4ccc([nH]4)c(-c4c(F)c(F)c(F)c(F)c4F)c4nc(c(-c5c(F)c(F)c(F)c(F)c5F)c5ccc2[nH]5)C=C4)C=C3)cc1)c1cccn(C(F)F)c1=O
REMARK SMILES IDX 8 1 7 4 6 7 5 10 3 11 4 12 2 14 1 16 78 20 79 21 86 22 80 23
REMARK SMILES IDX 82 25 87 26 81 27 83 30 84 31 85 32 9 34 10 37 11 40 12 43
REMARK SMILES IDX 13 44 14 46 15 47 16 48 77 49 17 50 76 52 18 54 19 57 20 58
REMARK SMILES IDX 70 59 21 60 75 61 69 62 71 63 22 64 74 65 68 67 67 69 23 71
REMARK SMILES IDX 55 74 35 75 54 76 36 77 39 78 53 79 72 80 37 81 38 83 52 85
REMARK SMILES IDX 73 86 40 89 24 91 25 92 33 93 26 94 27 95 31 96 34 97 28 98
REMARK SMILES IDX 29 99 32 100 30 101 56 102 57 103 65 104 58 105 59 106
REMARK SMILES IDX 63 107 66 108 60 109 61 110 64 111 62 112 41 113 42 114
REMARK SMILES IDX 50 115 43 116 44 117 48 118 51 119 45 120 46 121 49 122
REMARK SMILES IDX 47 123
REMARK H PARENT 8 2 8 3 7 5 7 6 6 8 6 9 5 13 2 15 1 17 1 18 1 19 79 24 80 28
REMARK H PARENT 81 29 83 33 9 35 9 36 10 38 10 39 11 41 11 42 12 45 16 51
REMARK H PARENT 77 53 17 55 76 56 75 66 69 68 71 70 74 72 68 73 36 82 39 84
REMARK H PARENT 72 87 37 88 73 90
REMARK Flexibility Score: inf
ROOT
ATOM      1  C   UNL A   1      41.398  21.615  26.580  1.00  0.00    -0.052 C 
ATOM      2  H   UNL A   1      42.158  22.051  27.196  1.00  0.00     0.027 H 
ATOM      3  H   UNL A   1      41.604  21.700  25.533  1.00  0.00     0.027 H 
ENDROOT
BRANCH   1   4
ATOM      4  C   UNL A   1      40.087  22.377  26.828  1.00  0.00    -0.036 C 
ATOM      5  H   UNL A   1      39.829  22.282  27.862  1.00  0.00     0.028 H 
ATOM      6  H   UNL A   1      40.255  23.395  26.545  1.00  0.00     0.028 H 
BRANCH   4   7
ATOM      7  C   UNL A   1      38.917  21.859  25.986  1.00  0.00     0.017 C 
ATOM      8  H   UNL A   1      39.104  22.065  24.953  1.00  0.00     0.049 H 
ATOM      9  H   UNL A   1      38.815  20.804  26.130  1.00  0.00     0.049 H 
BRANCH   7  10
ATOM     10  N   UNL A   1      37.693  22.519  26.394  1.00  0.00    -0.356 N 
ATOM     11  C   UNL A   1      36.579  22.817  25.665  1.00  0.00     0.227 C 
ATOM     12  O   UNL A   1      35.789  23.619  26.167  1.00  0.00    -0.274 OA
ATOM     13  H   UNL A   1      37.662  22.794  27.339  1.00  0.00     0.163 HD
BRANCH  11  14
ATOM     14  C   UNL A   1      36.314  22.090  24.332  1.00  0.00     0.066 C 
ATOM     15  H   UNL A   1      36.980  21.261  24.209  1.00  0.00     0.045 H 
BRANCH  14  16
ATOM     16  C   UNL A   1      36.653  22.962  23.120  1.00  0.00    -0.049 C 
ATOM     17  H   UNL A   1      37.597  22.659  22.717  1.00  0.00     0.024 H 
ATOM     18  H   UNL A   1      36.706  23.987  23.422  1.00  0.00     0.024 H 
ATOM     19  H   UNL A   1      35.894  22.847  22.375  1.00  0.00     0.024 H 
ENDBRANCH  14  16
BRANCH  14  20
ATOM     20  C   UNL A   1      34.904  21.508  24.371  1.00  0.00     0.030 A 
ATOM     21  C   UNL A   1      33.826  22.270  24.085  1.00  0.00    -0.051 A 
ATOM     22  C   UNL A   1      34.659  20.060  24.716  1.00  0.00     0.258 A 
ATOM     23  C   UNL A   1      32.489  21.739  24.087  1.00  0.00    -0.045 A 
ATOM     24  H   UNL A   1      33.967  23.266  23.857  1.00  0.00     0.063 H 
ATOM     25  N   UNL A   1      33.336  19.662  24.811  1.00  0.00    -0.258 N 
ATOM     26  O   UNL A   1      35.588  19.287  24.936  1.00  0.00    -0.269 OA
ATOM     27  C   UNL A   1      32.279  20.475  24.463  1.00  0.00     0.013 A 
ATOM     28  H   UNL A   1      31.695  22.331  23.797  1.00  0.00     0.064 H 
ATOM     29  H   UNL A   1      31.317  20.105  24.496  1.00  0.00     0.082 H 
BRANCH  25  30
ATOM     30  C   UNL A   1      33.079  18.318  25.263  1.00  0.00     0.321 C 
ATOM     31  F   UNL A   1      32.526  18.359  26.507  1.00  0.00    -0.185 F 
ATOM     32  F   UNL A   1      32.155  17.730  24.459  1.00  0.00    -0.185 F 
ATOM     33  H   UNL A   1      34.003  17.778  25.254  1.00  0.00     0.131 H 
ENDBRANCH  25  30
ENDBRANCH  14  20
ENDBRANCH  11  14
ENDBRANCH   7  10
ENDBRANCH   4   7
ENDBRANCH   1   4
BRANCH   1  34
ATOM     34  C   UNL A   1      41.336  20.116  26.889  1.00  0.00    -0.052 C 
ATOM     35  H   UNL A   1      40.308  19.841  27.011  1.00  0.00     0.027 H 
ATOM     36  H   UNL A   1      41.918  19.962  27.773  1.00  0.00     0.027 H 
BRANCH  34  37
ATOM     37  C   UNL A   1      41.941  19.221  25.807  1.00  0.00    -0.036 C 
ATOM     38  H   UNL A   1      42.048  19.797  24.912  1.00  0.00     0.028 H 
ATOM     39  H   UNL A   1      41.278  18.390  25.683  1.00  0.00     0.028 H 
BRANCH  37  40
ATOM     40  C   UNL A   1      43.305  18.646  26.173  1.00  0.00     0.018 C 
ATOM     41  H   UNL A   1      43.165  17.694  26.641  1.00  0.00     0.049 H 
ATOM     42  H   UNL A   1      43.788  19.333  26.836  1.00  0.00     0.049 H 
BRANCH  40  43
ATOM     43  N   UNL A   1      44.152  18.477  25.001  1.00  0.00    -0.352 N 
ATOM     44  C   UNL A   1      44.748  19.437  24.225  1.00  0.00     0.251 C 
ATOM     45  H   UNL A   1      44.320  17.546  24.730  1.00  0.00     0.163 HD
ATOM     46  O   UNL A   1      45.254  19.148  23.145  1.00  0.00    -0.269 OA
BRANCH  44  47
ATOM     47  C   UNL A   1      44.758  20.836  24.694  1.00  0.00     0.039 A 
ATOM     48  C   UNL A   1      45.281  21.131  25.955  1.00  0.00    -0.049 A 
ATOM     49  C   UNL A   1      44.271  21.856  23.872  1.00  0.00    -0.049 A 
ATOM     50  C   UNL A   1      45.378  22.462  26.366  1.00  0.00    -0.053 A 
ATOM     51  H   UNL A   1      45.594  20.371  26.578  1.00  0.00     0.063 H 
ATOM     52  C   UNL A   1      44.442  23.182  24.249  1.00  0.00    -0.053 A 
ATOM     53  H   UNL A   1      43.789  21.625  22.989  1.00  0.00     0.063 H 
ATOM     54  C   UNL A   1      44.992  23.498  25.501  1.00  0.00    -0.014 A 
ATOM     55  H   UNL A   1      45.732  22.684  27.309  1.00  0.00     0.063 H 
ATOM     56  H   UNL A   1      44.162  23.939  23.604  1.00  0.00     0.063 H 
BRANCH  54  57
ATOM     57  C   UNL A   1      45.146  24.925  25.876  1.00  0.00     0.031 A 
ATOM     58  C   UNL A   1      46.502  25.569  25.815  1.00  0.00     0.074 A 
ATOM     59  C   UNL A   1      44.095  25.607  26.368  1.00  0.00     0.049 A 
ATOM     60  N   UNL A   1      46.877  26.754  26.226  1.00  0.00    -0.248 NA
ATOM     61  C   UNL A   1      47.588  24.755  25.249  1.00  0.00    -0.034 C 
ATOM     62  C   UNL A   1      42.741  25.073  26.521  1.00  0.00    -0.036 A 
ATOM     63  N   UNL A   1      44.007  26.886  26.859  1.00  0.00    -0.354 N 
ATOM     64  C   UNL A   1      48.244  26.816  25.991  1.00  0.00     0.074 A 
ATOM     65  C   UNL A   1      48.640  25.533  25.455  1.00  0.00    -0.034 C 
ATOM     66  H   UNL A   1      47.543  23.825  24.807  1.00  0.00     0.065 H 
ATOM     67  C   UNL A   1      41.957  26.017  27.065  1.00  0.00    -0.036 A 
ATOM     68  H   UNL A   1      42.437  24.124  26.252  1.00  0.00     0.065 H 
ATOM     69  C   UNL A   1      42.763  27.203  27.344  1.00  0.00     0.049 A 
ATOM     70  H   UNL A   1      44.765  27.515  26.861  1.00  0.00     0.167 HD
ATOM     71  C   UNL A   1      49.087  27.858  26.187  1.00  0.00     0.037 A 
ATOM     72  H   UNL A   1      49.616  25.258  25.259  1.00  0.00     0.065 H 
ATOM     73  H   UNL A   1      40.948  25.920  27.258  1.00  0.00     0.065 H 
ATOM     74  C   UNL A   1      42.325  28.314  27.967  1.00  0.00     0.037 A 
ATOM     75  C   UNL A   1      48.678  29.137  26.704  1.00  0.00     0.049 A 
ATOM     76  C   UNL A   1      43.277  29.458  28.185  1.00  0.00     0.074 A 
ATOM     77  C   UNL A   1      49.434  30.283  26.871  1.00  0.00    -0.036 A 
ATOM     78  N   UNL A   1      47.397  29.435  27.152  1.00  0.00    -0.354 N 
ATOM     79  N   UNL A   1      44.552  29.539  27.886  1.00  0.00    -0.248 NA
ATOM     80  C   UNL A   1      42.733  30.667  28.818  1.00  0.00    -0.034 C 
ATOM     81  C   UNL A   1      48.632  31.251  27.481  1.00  0.00    -0.036 A 
ATOM     82  H   UNL A   1      50.422  30.402  26.593  1.00  0.00     0.065 H 
ATOM     83  C   UNL A   1      47.354  30.735  27.630  1.00  0.00     0.049 A 
ATOM     84  H   UNL A   1      46.634  28.814  27.134  1.00  0.00     0.167 HD
ATOM     85  C   UNL A   1      44.955  30.812  28.269  1.00  0.00     0.074 A 
ATOM     86  C   UNL A   1      43.788  31.471  28.816  1.00  0.00    -0.034 C 
ATOM     87  H   UNL A   1      41.780  30.844  29.171  1.00  0.00     0.065 H 
ATOM     88  H   UNL A   1      48.938  32.192  27.773  1.00  0.00     0.065 H 
ATOM     89  C   UNL A   1      46.181  31.381  28.169  1.00  0.00     0.037 A 
ATOM     90  H   UNL A   1      43.778  32.443  29.161  1.00  0.00     0.065 H 
BRANCH  71  91
ATOM     91  C   UNL A   1      50.538  27.645  25.858  1.00  0.00     0.064 A 
ATOM     92  C   UNL A   1      51.040  27.825  24.559  1.00  0.00     0.173 A 
ATOM     93  C   UNL A   1      51.441  27.253  26.857  1.00  0.00     0.173 A 
ATOM     94  F   UNL A   1      50.220  28.192  23.562  1.00  0.00    -0.203 F 
ATOM     95  C   UNL A   1      52.377  27.572  24.265  1.00  0.00     0.198 A 
ATOM     96  C   UNL A   1      52.786  27.040  26.568  1.00  0.00     0.198 A 
ATOM     97  F   UNL A   1      51.020  27.075  28.119  1.00  0.00    -0.203 F 
ATOM     98  F   UNL A   1      52.815  27.680  23.002  1.00  0.00    -0.200 F 
ATOM     99  C   UNL A   1      53.250  27.184  25.269  1.00  0.00     0.200 A 
ATOM    100  F   UNL A   1      53.632  26.680  27.544  1.00  0.00    -0.200 F 
ATOM    101  F   UNL A   1      54.536  26.938  24.984  1.00  0.00    -0.200 F 
ENDBRANCH  71  91
BRANCH  74 102
ATOM    102  C   UNL A   1      40.913  28.386  28.422  1.00  0.00     0.064 A 
ATOM    103  C   UNL A   1      40.544  27.969  29.708  1.00  0.00     0.173 A 
ATOM    104  C   UNL A   1      39.909  28.909  27.593  1.00  0.00     0.173 A 
ATOM    105  F   UNL A   1      41.464  27.446  30.532  1.00  0.00    -0.203 F 
ATOM    106  C   UNL A   1      39.224  28.066  30.146  1.00  0.00     0.198 A 
ATOM    107  C   UNL A   1      38.595  29.033  28.041  1.00  0.00     0.198 A 
ATOM    108  F   UNL A   1      40.211  29.329  26.356  1.00  0.00    -0.203 F 
ATOM    109  F   UNL A   1      38.893  27.633  31.369  1.00  0.00    -0.200 F 
ATOM    110  C   UNL A   1      38.253  28.607  29.316  1.00  0.00     0.200 A 
ATOM    111  F   UNL A   1      37.665  29.573  27.243  1.00  0.00    -0.200 F 
ATOM    112  F   UNL A   1      36.988  28.715  29.742  1.00  0.00    -0.200 F 
ENDBRANCH  74 102
BRANCH  89 113
ATOM    113  C   UNL A   1      46.329  32.805  28.623  1.00  0.00     0.064 A 
ATOM    114  C   UNL A   1      46.105  33.885  27.757  1.00  0.00     0.173 A 
ATOM    115  C   UNL A   1      46.620  33.090  29.967  1.00  0.00     0.173 A 
ATOM    116  F   UNL A   1      45.839  33.667  26.461  1.00  0.00    -0.203 F 
ATOM    117  C   UNL A   1      46.175  35.197  28.218  1.00  0.00     0.198 A 
ATOM    118  C   UNL A   1      46.659  34.401  30.431  1.00  0.00     0.198 A 
ATOM    119  F   UNL A   1      46.838  32.092  30.837  1.00  0.00    -0.203 F 
ATOM    120  F   UNL A   1      45.989  36.215  27.367  1.00  0.00    -0.200 F 
ATOM    121  C   UNL A   1      46.440  35.453  29.556  1.00  0.00     0.200 A 
ATOM    122  F   UNL A   1      46.898  34.645  31.727  1.00  0.00    -0.200 F 
ATOM    123  F   UNL A   1      46.485  36.717  30.001  1.00  0.00    -0.200 F 
ENDBRANCH  89 113
ENDBRANCH  54  57
ENDBRANCH  44  47
ENDBRANCH  40  43
ENDBRANCH  37  40
ENDBRANCH  34  37
ENDBRANCH   1  34
TORSDOF 16
ENDMDL
MODEL 7
REMARK VINA RESULT:     -11.6      6.035     11.340
REMARK SMILES C[C@@H](C(=O)NCCCCCCNC(=O)c1ccc(-c2c3nc(c(-c4c(F)c(F)c(F)c(F)c4F)c4ccc([nH]4)c(-c4c(F)c(F)c(F)c(F)c4F)c4nc(c(-c5c(F)c(F)c(F)c(F)c5F)c5ccc2[nH]5)C=C4)C=C3)cc1)c1cccn(C(F)F)c1=O
REMARK SMILES IDX 8 1 7 4 6 7 5 10 3 11 4 12 2 14 1 16 78 20 79 21 86 22 80 23
REMARK SMILES IDX 82 25 87 26 81 27 83 30 84 31 85 32 9 34 10 37 11 40 12 43
REMARK SMILES IDX 13 44 14 46 15 47 16 48 77 49 17 50 76 52 18 54 19 57 20 58
REMARK SMILES IDX 70 59 21 60 75 61 69 62 71 63 22 64 74 65 68 67 67 69 23 71
REMARK SMILES IDX 55 74 35 75 54 76 36 77 39 78 53 79 72 80 37 81 38 83 52 85
REMARK SMILES IDX 73 86 40 89 24 91 25 92 33 93 26 94 27 95 31 96 34 97 28 98
REMARK SMILES IDX 29 99 32 100 30 101 56 102 57 103 65 104 58 105 59 106
REMARK SMILES IDX 63 107 66 108 60 109 61 110 64 111 62 112 41 113 42 114
REMARK SMILES IDX 50 115 43 116 44 117 48 118 51 119 45 120 46 121 49 122
REMARK SMILES IDX 47 123
REMARK H PARENT 8 2 8 3 7 5 7 6 6 8 6 9 5 13 2 15 1 17 1 18 1 19 79 24 80 28
REMARK H PARENT 81 29 83 33 9 35 9 36 10 38 10 39 11 41 11 42 12 45 16 51
REMARK H PARENT 77 53 17 55 76 56 75 66 69 68 71 70 74 72 68 73 36 82 39 84
REMARK H PARENT 72 87 37 88 73 90
REMARK Flexibility Score: inf
ROOT
ATOM      1  C   UNL A   1      37.379  22.116  24.728  1.00  0.00    -0.052 C 
ATOM      2  H   UNL A   1      37.165  22.721  25.585  1.00  0.00     0.027 H 
ATOM      3  H   UNL A   1      38.422  22.066  24.496  1.00  0.00     0.027 H 
ENDROOT
BRANCH   1   4
ATOM      4  C   UNL A   1      36.694  22.754  23.510  1.00  0.00    -0.036 C 
ATOM      5  H   UNL A   1      37.379  23.440  23.056  1.00  0.00     0.028 H 
ATOM      6  H   UNL A   1      36.420  21.959  22.849  1.00  0.00     0.028 H 
BRANCH   4   7
ATOM      7  C   UNL A   1      35.411  23.512  23.864  1.00  0.00     0.017 C 
ATOM      8  H   UNL A   1      35.545  24.022  24.796  1.00  0.00     0.049 H 
ATOM      9  H   UNL A   1      35.194  24.222  23.094  1.00  0.00     0.049 H 
BRANCH   7  10
ATOM     10  N   UNL A   1      34.309  22.579  23.981  1.00  0.00    -0.356 N 
ATOM     11  C   UNL A   1      33.567  22.238  25.074  1.00  0.00     0.227 C 
ATOM     12  O   UNL A   1      32.871  21.225  24.973  1.00  0.00    -0.274 OA
ATOM     13  H   UNL A   1      34.059  22.123  23.145  1.00  0.00     0.163 HD
BRANCH  11  14
ATOM     14  C   UNL A   1      33.556  23.153  26.313  1.00  0.00     0.066 C 
ATOM     15  H   UNL A   1      34.452  23.736  26.366  1.00  0.00     0.045 H 
BRANCH  14  16
ATOM     16  C   UNL A   1      33.607  22.359  27.620  1.00  0.00    -0.049 C 
ATOM     17  H   UNL A   1      33.271  22.978  28.426  1.00  0.00     0.024 H 
ATOM     18  H   UNL A   1      34.611  22.042  27.808  1.00  0.00     0.024 H 
ATOM     19  H   UNL A   1      32.971  21.502  27.542  1.00  0.00     0.024 H 
ENDBRANCH  14  16
BRANCH  14  20
ATOM     20  C   UNL A   1      32.405  24.145  26.171  1.00  0.00     0.030 A 
ATOM     21  C   UNL A   1      31.122  23.751  26.323  1.00  0.00    -0.051 A 
ATOM     22  C   UNL A   1      32.654  25.601  25.868  1.00  0.00     0.258 A 
ATOM     23  C   UNL A   1      30.021  24.671  26.222  1.00  0.00    -0.045 A 
ATOM     24  H   UNL A   1      30.925  22.758  26.519  1.00  0.00     0.063 H 
ATOM     25  N   UNL A   1      31.534  26.392  25.671  1.00  0.00    -0.258 N 
ATOM     26  O   UNL A   1      33.792  26.051  25.769  1.00  0.00    -0.269 OA
ATOM     27  C   UNL A   1      30.248  25.943  25.884  1.00  0.00     0.013 A 
ATOM     28  H   UNL A   1      29.058  24.351  26.412  1.00  0.00     0.064 H 
ATOM     29  H   UNL A   1      29.456  26.594  25.780  1.00  0.00     0.082 H 
BRANCH  25  30
ATOM     30  C   UNL A   1      31.750  27.756  25.257  1.00  0.00     0.321 C 
ATOM     31  F   UNL A   1      30.756  28.130  24.405  1.00  0.00    -0.185 F 
ATOM     32  F   UNL A   1      31.658  28.583  26.330  1.00  0.00    -0.185 F 
ATOM     33  H   UNL A   1      32.714  27.818  24.798  1.00  0.00     0.131 H 
ENDBRANCH  25  30
ENDBRANCH  14  20
ENDBRANCH  11  14
ENDBRANCH   7  10
ENDBRANCH   4   7
ENDBRANCH   1   4
BRANCH   1  34
ATOM     34  C   UNL A   1      36.934  20.682  25.034  1.00  0.00    -0.052 C 
ATOM     35  H   UNL A   1      36.198  20.398  24.310  1.00  0.00     0.027 H 
ATOM     36  H   UNL A   1      36.558  20.686  26.035  1.00  0.00     0.027 H 
BRANCH  34  37
ATOM     37  C   UNL A   1      38.061  19.648  24.996  1.00  0.00    -0.036 C 
ATOM     38  H   UNL A   1      38.289  19.434  23.973  1.00  0.00     0.028 H 
ATOM     39  H   UNL A   1      37.711  18.788  25.527  1.00  0.00     0.028 H 
BRANCH  37  40
ATOM     40  C   UNL A   1      39.340  20.105  25.688  1.00  0.00     0.018 C 
ATOM     41  H   UNL A   1      39.094  20.475  26.661  1.00  0.00     0.049 H 
ATOM     42  H   UNL A   1      39.788  20.868  25.088  1.00  0.00     0.049 H 
BRANCH  40  43
ATOM     43  N   UNL A   1      40.297  19.017  25.826  1.00  0.00    -0.352 N 
ATOM     44  C   UNL A   1      41.653  19.084  26.023  1.00  0.00     0.251 C 
ATOM     45  H   UNL A   1      39.920  18.109  25.771  1.00  0.00     0.163 HD
ATOM     46  O   UNL A   1      42.356  18.085  25.903  1.00  0.00    -0.269 OA
BRANCH  44  47
ATOM     47  C   UNL A   1      42.265  20.382  26.363  1.00  0.00     0.039 A 
ATOM     48  C   UNL A   1      42.969  21.084  25.381  1.00  0.00    -0.049 A 
ATOM     49  C   UNL A   1      42.118  20.914  27.647  1.00  0.00    -0.049 A 
ATOM     50  C   UNL A   1      43.471  22.354  25.671  1.00  0.00    -0.053 A 
ATOM     51  H   UNL A   1      43.117  20.667  24.449  1.00  0.00     0.063 H 
ATOM     52  C   UNL A   1      42.548  22.209  27.908  1.00  0.00    -0.053 A 
ATOM     53  H   UNL A   1      41.692  20.347  28.396  1.00  0.00     0.063 H 
ATOM     54  C   UNL A   1      43.233  22.940  26.925  1.00  0.00    -0.014 A 
ATOM     55  H   UNL A   1      44.021  22.864  24.961  1.00  0.00     0.063 H 
ATOM     56  H   UNL A   1      42.363  22.635  28.830  1.00  0.00     0.063 H 
BRANCH  54  57
ATOM     57  C   UNL A   1      43.690  24.315  27.242  1.00  0.00     0.031 A 
ATOM     58  C   UNL A   1      42.706  25.330  27.748  1.00  0.00     0.074 A 
ATOM     59  C   UNL A   1      44.960  24.677  26.980  1.00  0.00     0.049 A 
ATOM     60  N   UNL A   1      42.867  26.613  27.954  1.00  0.00    -0.248 NA
ATOM     61  C   UNL A   1      41.345  24.842  28.023  1.00  0.00    -0.034 C 
ATOM     62  C   UNL A   1      45.995  23.793  26.442  1.00  0.00    -0.036 A 
ATOM     63  N   UNL A   1      45.588  25.892  27.101  1.00  0.00    -0.354 N 
ATOM     64  C   UNL A   1      41.626  27.086  28.358  1.00  0.00     0.074 A 
ATOM     65  C   UNL A   1      40.711  25.967  28.313  1.00  0.00    -0.034 C 
ATOM     66  H   UNL A   1      40.982  23.877  27.997  1.00  0.00     0.065 H 
ATOM     67  C   UNL A   1      47.128  24.493  26.281  1.00  0.00    -0.036 A 
ATOM     68  H   UNL A   1      45.873  22.792  26.223  1.00  0.00     0.065 H 
ATOM     69  C   UNL A   1      46.888  25.883  26.659  1.00  0.00     0.049 A 
ATOM     70  H   UNL A   1      45.148  26.691  27.470  1.00  0.00     0.167 HD
ATOM     71  C   UNL A   1      41.287  28.338  28.749  1.00  0.00     0.037 A 
ATOM     72  H   UNL A   1      39.695  26.036  28.485  1.00  0.00     0.065 H 
ATOM     73  H   UNL A   1      48.026  24.110  25.944  1.00  0.00     0.065 H 
ATOM     74  C   UNL A   1      47.778  26.888  26.544  1.00  0.00     0.037 A 
ATOM     75  C   UNL A   1      42.211  29.439  28.807  1.00  0.00     0.049 A 
ATOM     76  C   UNL A   1      47.382  28.274  26.975  1.00  0.00     0.074 A 
ATOM     77  C   UNL A   1      41.990  30.728  29.259  1.00  0.00    -0.036 A 
ATOM     78  N   UNL A   1      43.533  29.385  28.385  1.00  0.00    -0.354 N 
ATOM     79  N   UNL A   1      46.228  28.697  27.432  1.00  0.00    -0.248 NA
ATOM     80  C   UNL A   1      48.410  29.319  26.882  1.00  0.00    -0.034 C 
ATOM     81  C   UNL A   1      43.157  31.470  29.049  1.00  0.00    -0.036 A 
ATOM     82  H   UNL A   1      41.116  31.080  29.679  1.00  0.00     0.065 H 
ATOM     83  C   UNL A   1      44.128  30.627  28.532  1.00  0.00     0.049 A 
ATOM     84  H   UNL A   1      43.980  28.582  28.033  1.00  0.00     0.167 HD
ATOM     85  C   UNL A   1      46.397  30.048  27.706  1.00  0.00     0.074 A 
ATOM     86  C   UNL A   1      47.768  30.372  27.370  1.00  0.00    -0.034 C 
ATOM     87  H   UNL A   1      49.378  29.252  26.531  1.00  0.00     0.065 H 
ATOM     88  H   UNL A   1      43.274  32.476  29.245  1.00  0.00     0.065 H 
ATOM     89  C   UNL A   1      45.498  30.935  28.197  1.00  0.00     0.037 A 
ATOM     90  H   UNL A   1      48.191  31.305  27.493  1.00  0.00     0.065 H 
BRANCH  71  91
ATOM     91  C   UNL A   1      39.852  28.580  29.124  1.00  0.00     0.064 A 
ATOM     92  C   UNL A   1      38.909  29.042  28.192  1.00  0.00     0.173 A 
ATOM     93  C   UNL A   1      39.413  28.350  30.436  1.00  0.00     0.173 A 
ATOM     94  F   UNL A   1      39.275  29.287  26.924  1.00  0.00    -0.203 F 
ATOM     95  C   UNL A   1      37.597  29.310  28.571  1.00  0.00     0.198 A 
ATOM     96  C   UNL A   1      38.090  28.581  30.803  1.00  0.00     0.198 A 
ATOM     97  F   UNL A   1      40.267  27.900  31.367  1.00  0.00    -0.203 F 
ATOM     98  F   UNL A   1      36.734  29.820  27.680  1.00  0.00    -0.200 F 
ATOM     99  C   UNL A   1      37.186  29.076  29.875  1.00  0.00     0.200 A 
ATOM    100  F   UNL A   1      37.692  28.338  32.060  1.00  0.00    -0.200 F 
ATOM    101  F   UNL A   1      35.924  29.337  30.240  1.00  0.00    -0.200 F 
ENDBRANCH  71  91
BRANCH  74 102
ATOM    102  C   UNL A   1      49.131  26.603  25.999  1.00  0.00     0.064 A 
ATOM    103  C   UNL A   1      49.464  26.933  24.679  1.00  0.00     0.173 A 
ATOM    104  C   UNL A   1      50.131  26.032  26.802  1.00  0.00     0.173 A 
ATOM    105  F   UNL A   1      48.538  27.465  23.868  1.00  0.00    -0.203 F 
ATOM    106  C   UNL A   1      50.742  26.695  24.178  1.00  0.00     0.198 A 
ATOM    107  C   UNL A   1      51.417  25.821  26.309  1.00  0.00     0.198 A 
ATOM    108  F   UNL A   1      49.866  25.706  28.074  1.00  0.00    -0.203 F 
ATOM    109  F   UNL A   1      51.026  26.992  22.903  1.00  0.00    -0.200 F 
ATOM    110  C   UNL A   1      51.720  26.149  24.996  1.00  0.00     0.200 A 
ATOM    111  F   UNL A   1      52.363  25.311  27.108  1.00  0.00    -0.200 F 
ATOM    112  F   UNL A   1      52.954  25.936  24.519  1.00  0.00    -0.200 F 
ENDBRANCH  74 102
BRANCH  89 113
ATOM    113  C   UNL A   1      45.966  32.341  28.443  1.00  0.00     0.064 A 
ATOM    114  C   UNL A   1      45.822  33.348  27.477  1.00  0.00     0.173 A 
ATOM    115  C   UNL A   1      46.490  32.701  29.694  1.00  0.00     0.173 A 
ATOM    116  F   UNL A   1      45.340  33.053  26.261  1.00  0.00    -0.203 F 
ATOM    117  C   UNL A   1      46.194  34.661  27.753  1.00  0.00     0.198 A 
ATOM    118  C   UNL A   1      46.833  34.020  29.977  1.00  0.00     0.198 A 
ATOM    119  F   UNL A   1      46.643  31.776  30.654  1.00  0.00    -0.203 F 
ATOM    120  F   UNL A   1      46.079  35.601  26.805  1.00  0.00    -0.200 F 
ATOM    121  C   UNL A   1      46.688  34.998  29.005  1.00  0.00     0.200 A 
ATOM    122  F   UNL A   1      47.292  34.346  31.193  1.00  0.00    -0.200 F 
ATOM    123  F   UNL A   1      47.024  36.267  29.275  1.00  0.00    -0.200 F 
ENDBRANCH  89 113
ENDBRANCH  54  57
ENDBRANCH  44  47
ENDBRANCH  40  43
ENDBRANCH  37  40
ENDBRANCH  34  37
ENDBRANCH   1  34
TORSDOF 16
ENDMDL
MODEL 8
REMARK VINA RESULT:     -11.6      5.960     11.143
REMARK SMILES C[C@@H](C(=O)NCCCCCCNC(=O)c1ccc(-c2c3nc(c(-c4c(F)c(F)c(F)c(F)c4F)c4ccc([nH]4)c(-c4c(F)c(F)c(F)c(F)c4F)c4nc(c(-c5c(F)c(F)c(F)c(F)c5F)c5ccc2[nH]5)C=C4)C=C3)cc1)c1cccn(C(F)F)c1=O
REMARK SMILES IDX 8 1 7 4 6 7 5 10 3 11 4 12 2 14 1 16 78 20 79 21 86 22 80 23
REMARK SMILES IDX 82 25 87 26 81 27 83 30 84 31 85 32 9 34 10 37 11 40 12 43
REMARK SMILES IDX 13 44 14 46 15 47 16 48 77 49 17 50 76 52 18 54 19 57 20 58
REMARK SMILES IDX 70 59 21 60 75 61 69 62 71 63 22 64 74 65 68 67 67 69 23 71
REMARK SMILES IDX 55 74 35 75 54 76 36 77 39 78 53 79 72 80 37 81 38 83 52 85
REMARK SMILES IDX 73 86 40 89 24 91 25 92 33 93 26 94 27 95 31 96 34 97 28 98
REMARK SMILES IDX 29 99 32 100 30 101 56 102 57 103 65 104 58 105 59 106
REMARK SMILES IDX 63 107 66 108 60 109 61 110 64 111 62 112 41 113 42 114
REMARK SMILES IDX 50 115 43 116 44 117 48 118 51 119 45 120 46 121 49 122
REMARK SMILES IDX 47 123
REMARK H PARENT 8 2 8 3 7 5 7 6 6 8 6 9 5 13 2 15 1 17 1 18 1 19 79 24 80 28
REMARK H PARENT 81 29 83 33 9 35 9 36 10 38 10 39 11 41 11 42 12 45 16 51
REMARK H PARENT 77 53 17 55 76 56 75 66 69 68 71 70 74 72 68 73 36 82 39 84
REMARK H PARENT 72 87 37 88 73 90
REMARK Flexibility Score: inf
ROOT
ATOM      1  C   UNL A   1      37.321  22.353  25.172  1.00  0.00    -0.052 C 
ATOM      2  H   UNL A   1      37.763  22.457  26.141  1.00  0.00     0.027 H 
ATOM      3  H   UNL A   1      38.004  22.552  24.372  1.00  0.00     0.027 H 
ENDROOT
BRANCH   1   4
ATOM      4  C   UNL A   1      36.194  23.390  25.047  1.00  0.00    -0.036 C 
ATOM      5  H   UNL A   1      36.060  23.861  25.998  1.00  0.00     0.028 H 
ATOM      6  H   UNL A   1      36.488  24.086  24.289  1.00  0.00     0.028 H 
BRANCH   4   7
ATOM      7  C   UNL A   1      34.857  22.783  24.612  1.00  0.00     0.017 C 
ATOM      8  H   UNL A   1      34.898  21.719  24.721  1.00  0.00     0.049 H 
ATOM      9  H   UNL A   1      34.073  23.177  25.223  1.00  0.00     0.049 H 
BRANCH   7  10
ATOM     10  N   UNL A   1      34.598  23.115  23.226  1.00  0.00    -0.356 N 
ATOM     11  C   UNL A   1      33.496  23.684  22.657  1.00  0.00     0.227 C 
ATOM     12  O   UNL A   1      33.411  23.612  21.429  1.00  0.00    -0.274 OA
ATOM     13  H   UNL A   1      35.327  22.896  22.601  1.00  0.00     0.163 HD
BRANCH  11  14
ATOM     14  C   UNL A   1      32.487  24.451  23.533  1.00  0.00     0.066 C 
ATOM     15  H   UNL A   1      32.485  24.074  24.534  1.00  0.00     0.045 H 
BRANCH  14  16
ATOM     16  C   UNL A   1      31.041  24.213  23.092  1.00  0.00    -0.049 C 
ATOM     17  H   UNL A   1      30.375  24.558  23.856  1.00  0.00     0.024 H 
ATOM     18  H   UNL A   1      30.884  23.167  22.928  1.00  0.00     0.024 H 
ATOM     19  H   UNL A   1      30.851  24.748  22.186  1.00  0.00     0.024 H 
ENDBRANCH  14  16
BRANCH  14  20
ATOM     20  C   UNL A   1      32.933  25.908  23.622  1.00  0.00     0.030 A 
ATOM     21  C   UNL A   1      33.358  26.576  22.528  1.00  0.00    -0.051 A 
ATOM     22  C   UNL A   1      32.906  26.660  24.929  1.00  0.00     0.258 A 
ATOM     23  C   UNL A   1      33.757  27.957  22.581  1.00  0.00    -0.045 A 
ATOM     24  H   UNL A   1      33.396  26.080  21.624  1.00  0.00     0.063 H 
ATOM     25  N   UNL A   1      33.418  27.947  24.913  1.00  0.00    -0.258 N 
ATOM     26  O   UNL A   1      32.483  26.142  25.959  1.00  0.00    -0.269 OA
ATOM     27  C   UNL A   1      33.796  28.591  23.755  1.00  0.00     0.013 A 
ATOM     28  H   UNL A   1      34.010  28.457  21.714  1.00  0.00     0.064 H 
ATOM     29  H   UNL A   1      34.113  29.572  23.796  1.00  0.00     0.082 H 
BRANCH  25  30
ATOM     30  C   UNL A   1      33.518  28.636  26.175  1.00  0.00     0.321 C 
ATOM     31  F   UNL A   1      34.624  28.201  26.839  1.00  0.00    -0.185 F 
ATOM     32  F   UNL A   1      33.706  29.965  25.960  1.00  0.00    -0.185 F 
ATOM     33  H   UNL A   1      32.621  28.454  26.729  1.00  0.00     0.131 H 
ENDBRANCH  25  30
ENDBRANCH  14  20
ENDBRANCH  11  14
ENDBRANCH   7  10
ENDBRANCH   4   7
ENDBRANCH   1   4
BRANCH   1  34
ATOM     34  C   UNL A   1      36.873  20.897  25.006  1.00  0.00    -0.052 C 
ATOM     35  H   UNL A   1      36.321  20.819  24.091  1.00  0.00     0.027 H 
ATOM     36  H   UNL A   1      36.288  20.657  25.869  1.00  0.00     0.027 H 
BRANCH  34  37
ATOM     37  C   UNL A   1      38.017  19.884  24.959  1.00  0.00    -0.036 C 
ATOM     38  H   UNL A   1      38.299  19.739  23.937  1.00  0.00     0.028 H 
ATOM     39  H   UNL A   1      37.656  18.986  25.416  1.00  0.00     0.028 H 
BRANCH  37  40
ATOM     40  C   UNL A   1      39.253  20.312  25.742  1.00  0.00     0.018 C 
ATOM     41  H   UNL A   1      38.949  20.646  26.712  1.00  0.00     0.049 H 
ATOM     42  H   UNL A   1      39.735  21.097  25.199  1.00  0.00     0.049 H 
BRANCH  40  43
ATOM     43  N   UNL A   1      40.201  19.219  25.895  1.00  0.00    -0.352 N 
ATOM     44  C   UNL A   1      41.556  19.278  26.095  1.00  0.00     0.251 C 
ATOM     45  H   UNL A   1      39.817  18.313  25.850  1.00  0.00     0.163 HD
ATOM     46  O   UNL A   1      42.252  18.272  25.989  1.00  0.00    -0.269 OA
BRANCH  44  47
ATOM     47  C   UNL A   1      42.178  20.575  26.422  1.00  0.00     0.039 A 
ATOM     48  C   UNL A   1      42.561  21.430  25.386  1.00  0.00    -0.049 A 
ATOM     49  C   UNL A   1      42.356  20.952  27.756  1.00  0.00    -0.049 A 
ATOM     50  C   UNL A   1      43.064  22.697  25.690  1.00  0.00    -0.053 A 
ATOM     51  H   UNL A   1      42.473  21.129  24.404  1.00  0.00     0.063 H 
ATOM     52  C   UNL A   1      42.781  22.241  28.055  1.00  0.00    -0.053 A 
ATOM     53  H   UNL A   1      42.172  20.277  28.515  1.00  0.00     0.063 H 
ATOM     54  C   UNL A   1      43.143  23.124  27.026  1.00  0.00    -0.014 A 
ATOM     55  H   UNL A   1      43.380  23.321  24.931  1.00  0.00     0.063 H 
ATOM     56  H   UNL A   1      42.830  22.550  29.039  1.00  0.00     0.063 H 
BRANCH  54  57
ATOM     57  C   UNL A   1      43.606  24.487  27.382  1.00  0.00     0.031 A 
ATOM     58  C   UNL A   1      42.620  25.502  27.885  1.00  0.00     0.074 A 
ATOM     59  C   UNL A   1      44.885  24.842  27.155  1.00  0.00     0.049 A 
ATOM     60  N   UNL A   1      42.788  26.779  28.121  1.00  0.00    -0.248 NA
ATOM     61  C   UNL A   1      41.249  25.022  28.119  1.00  0.00    -0.034 C 
ATOM     62  C   UNL A   1      45.923  23.959  26.623  1.00  0.00    -0.036 A 
ATOM     63  N   UNL A   1      45.522  26.048  27.315  1.00  0.00    -0.354 N 
ATOM     64  C   UNL A   1      41.543  27.256  28.506  1.00  0.00     0.074 A 
ATOM     65  C   UNL A   1      40.619  26.147  28.418  1.00  0.00    -0.034 C 
ATOM     66  H   UNL A   1      40.877  24.061  28.065  1.00  0.00     0.065 H 
ATOM     67  C   UNL A   1      47.067  24.651  26.502  1.00  0.00    -0.036 A 
ATOM     68  H   UNL A   1      45.797  22.964  26.381  1.00  0.00     0.065 H 
ATOM     69  C   UNL A   1      46.831  26.036  26.902  1.00  0.00     0.049 A 
ATOM     70  H   UNL A   1      45.081  26.844  27.690  1.00  0.00     0.167 HD
ATOM     71  C   UNL A   1      41.207  28.503  28.914  1.00  0.00     0.037 A 
ATOM     72  H   UNL A   1      39.600  26.223  28.568  1.00  0.00     0.065 H 
ATOM     73  H   UNL A   1      47.969  24.267  26.178  1.00  0.00     0.065 H 
ATOM     74  C   UNL A   1      47.733  27.034  26.828  1.00  0.00     0.037 A 
ATOM     75  C   UNL A   1      42.140  29.594  29.015  1.00  0.00     0.049 A 
ATOM     76  C   UNL A   1      47.340  28.415  27.277  1.00  0.00     0.074 A 
ATOM     77  C   UNL A   1      41.921  30.876  29.488  1.00  0.00    -0.036 A 
ATOM     78  N   UNL A   1      43.470  29.535  28.622  1.00  0.00    -0.354 N 
ATOM     79  N   UNL A   1      46.180  28.841  27.716  1.00  0.00    -0.248 NA
ATOM     80  C   UNL A   1      48.379  29.452  27.229  1.00  0.00    -0.034 C 
ATOM     81  C   UNL A   1      43.098  31.611  29.319  1.00  0.00    -0.036 A 
ATOM     82  H   UNL A   1      41.040  31.228  29.895  1.00  0.00     0.065 H 
ATOM     83  C   UNL A   1      44.073  30.769  28.807  1.00  0.00     0.049 A 
ATOM     84  H   UNL A   1      43.918  28.735  28.264  1.00  0.00     0.167 HD
ATOM     85  C   UNL A   1      46.355  30.184  28.021  1.00  0.00     0.074 A 
ATOM     86  C   UNL A   1      47.736  30.502  27.723  1.00  0.00    -0.034 C 
ATOM     87  H   UNL A   1      49.354  29.383  26.898  1.00  0.00     0.065 H 
ATOM     88  H   UNL A   1      43.220  32.611  29.538  1.00  0.00     0.065 H 
ATOM     89  C   UNL A   1      45.453  31.070  28.509  1.00  0.00     0.037 A 
ATOM     90  H   UNL A   1      48.165  31.428  27.874  1.00  0.00     0.065 H 
BRANCH  71  91
ATOM     91  C   UNL A   1      39.766  28.752  29.261  1.00  0.00     0.064 A 
ATOM     92  C   UNL A   1      38.852  29.257  28.322  1.00  0.00     0.173 A 
ATOM     93  C   UNL A   1      39.291  28.484  30.553  1.00  0.00     0.173 A 
ATOM     94  F   UNL A   1      39.253  29.540  27.073  1.00  0.00    -0.203 F 
ATOM     95  C   UNL A   1      37.534  29.530  28.678  1.00  0.00     0.198 A 
ATOM     96  C   UNL A   1      37.962  28.720  30.895  1.00  0.00     0.198 A 
ATOM     97  F   UNL A   1      40.116  27.992  31.490  1.00  0.00    -0.203 F 
ATOM     98  F   UNL A   1      36.701  30.081  27.784  1.00  0.00    -0.200 F 
ATOM     99  C   UNL A   1      37.089  29.258  29.962  1.00  0.00     0.200 A 
ATOM    100  F   UNL A   1      37.529  28.441  32.133  1.00  0.00    -0.200 F 
ATOM    101  F   UNL A   1      35.821  29.523  30.304  1.00  0.00    -0.200 F 
ENDBRANCH  71  91
BRANCH  74 102
ATOM    102  C   UNL A   1      49.095  26.748  26.308  1.00  0.00     0.064 A 
ATOM    103  C   UNL A   1      50.087  26.206  27.136  1.00  0.00     0.173 A 
ATOM    104  C   UNL A   1      49.420  26.974  24.962  1.00  0.00     0.173 A 
ATOM    105  F   UNL A   1      49.830  25.988  28.434  1.00  0.00    -0.203 F 
ATOM    106  C   UNL A   1      51.355  25.908  26.640  1.00  0.00     0.198 A 
ATOM    107  C   UNL A   1      50.679  26.649  24.460  1.00  0.00     0.198 A 
ATOM    108  F   UNL A   1      48.505  27.484  24.126  1.00  0.00    -0.203 F 
ATOM    109  F   UNL A   1      52.294  25.418  27.460  1.00  0.00    -0.200 F 
ATOM    110  C   UNL A   1      51.647  26.121  25.301  1.00  0.00     0.200 A 
ATOM    111  F   UNL A   1      50.950  26.839  23.162  1.00  0.00    -0.200 F 
ATOM    112  F   UNL A   1      52.860  25.819  24.820  1.00  0.00    -0.200 F 
ENDBRANCH  74 102
BRANCH  89 113
ATOM    113  C   UNL A   1      45.928  32.466  28.794  1.00  0.00     0.064 A 
ATOM    114  C   UNL A   1      45.817  33.493  27.845  1.00  0.00     0.173 A 
ATOM    115  C   UNL A   1      46.425  32.797  30.064  1.00  0.00     0.173 A 
ATOM    116  F   UNL A   1      45.362  33.226  26.612  1.00  0.00    -0.203 F 
ATOM    117  C   UNL A   1      46.195  34.796  28.156  1.00  0.00     0.198 A 
ATOM    118  C   UNL A   1      46.774  34.106  30.381  1.00  0.00     0.198 A 
ATOM    119  F   UNL A   1      46.547  31.851  31.010  1.00  0.00    -0.203 F 
ATOM    120  F   UNL A   1      46.112  35.756  27.224  1.00  0.00    -0.200 F 
ATOM    121  C   UNL A   1      46.662  35.104  29.426  1.00  0.00     0.200 A 
ATOM    122  F   UNL A   1      47.207  34.403  31.614  1.00  0.00    -0.200 F 
ATOM    123  F   UNL A   1      47.003  36.364  29.729  1.00  0.00    -0.200 F 
ENDBRANCH  89 113
ENDBRANCH  54  57
ENDBRANCH  44  47
ENDBRANCH  40  43
ENDBRANCH  37  40
ENDBRANCH  34  37
ENDBRANCH   1  34
TORSDOF 16
ENDMDL
MODEL 9
REMARK VINA RESULT:     -11.6      5.535     10.857
REMARK SMILES C[C@@H](C(=O)NCCCCCCNC(=O)c1ccc(-c2c3nc(c(-c4c(F)c(F)c(F)c(F)c4F)c4ccc([nH]4)c(-c4c(F)c(F)c(F)c(F)c4F)c4nc(c(-c5c(F)c(F)c(F)c(F)c5F)c5ccc2[nH]5)C=C4)C=C3)cc1)c1cccn(C(F)F)c1=O
REMARK SMILES IDX 8 1 7 4 6 7 5 10 3 11 4 12 2 14 1 16 78 20 79 21 86 22 80 23
REMARK SMILES IDX 82 25 87 26 81 27 83 30 84 31 85 32 9 34 10 37 11 40 12 43
REMARK SMILES IDX 13 44 14 46 15 47 16 48 77 49 17 50 76 52 18 54 19 57 20 58
REMARK SMILES IDX 70 59 21 60 75 61 69 62 71 63 22 64 74 65 68 67 67 69 23 71
REMARK SMILES IDX 55 74 35 75 54 76 36 77 39 78 53 79 72 80 37 81 38 83 52 85
REMARK SMILES IDX 73 86 40 89 24 91 25 92 33 93 26 94 27 95 31 96 34 97 28 98
REMARK SMILES IDX 29 99 32 100 30 101 56 102 57 103 65 104 58 105 59 106
REMARK SMILES IDX 63 107 66 108 60 109 61 110 64 111 62 112 41 113 42 114
REMARK SMILES IDX 50 115 43 116 44 117 48 118 51 119 45 120 46 121 49 122
REMARK SMILES IDX 47 123
REMARK H PARENT 8 2 8 3 7 5 7 6 6 8 6 9 5 13 2 15 1 17 1 18 1 19 79 24 80 28
REMARK H PARENT 81 29 83 33 9 35 9 36 10 38 10 39 11 41 11 42 12 45 16 51
REMARK H PARENT 77 53 17 55 76 56 75 66 69 68 71 70 74 72 68 73 36 82 39 84
REMARK H PARENT 72 87 37 88 73 90
REMARK Flexibility Score: inf
ROOT
ATOM      1  C   UNL A   1      42.335  19.182  27.614  1.00  0.00    -0.052 C 
ATOM      2  H   UNL A   1      42.964  20.003  27.892  1.00  0.00     0.027 H 
ATOM      3  H   UNL A   1      42.180  18.482  28.408  1.00  0.00     0.027 H 
ENDROOT
BRANCH   1   4
ATOM      4  C   UNL A   1      43.029  18.409  26.482  1.00  0.00    -0.036 C 
ATOM      5  H   UNL A   1      43.903  17.937  26.880  1.00  0.00     0.028 H 
ATOM      6  H   UNL A   1      42.322  17.699  26.106  1.00  0.00     0.028 H 
BRANCH   4   7
ATOM      7  C   UNL A   1      43.447  19.299  25.309  1.00  0.00     0.017 C 
ATOM      8  H   UNL A   1      43.239  18.794  24.388  1.00  0.00     0.049 H 
ATOM      9  H   UNL A   1      42.900  20.218  25.346  1.00  0.00     0.049 H 
BRANCH   7  10
ATOM     10  N   UNL A   1      44.865  19.582  25.392  1.00  0.00    -0.356 N 
ATOM     11  C   UNL A   1      45.543  20.734  25.115  1.00  0.00     0.227 C 
ATOM     12  O   UNL A   1      46.767  20.640  25.001  1.00  0.00    -0.274 OA
ATOM     13  H   UNL A   1      45.424  18.829  25.693  1.00  0.00     0.163 HD
BRANCH  11  14
ATOM     14  C   UNL A   1      44.787  22.075  25.052  1.00  0.00     0.066 C 
ATOM     15  H   UNL A   1      43.751  21.920  24.834  1.00  0.00     0.045 H 
BRANCH  14  16
ATOM     16  C   UNL A   1      45.242  22.942  23.876  1.00  0.00    -0.049 C 
ATOM     17  H   UNL A   1      46.012  22.431  23.335  1.00  0.00     0.024 H 
ATOM     18  H   UNL A   1      45.621  23.872  24.243  1.00  0.00     0.024 H 
ATOM     19  H   UNL A   1      44.412  23.126  23.226  1.00  0.00     0.024 H 
ENDBRANCH  14  16
BRANCH  14  20
ATOM     20  C   UNL A   1      44.844  22.727  26.431  1.00  0.00     0.030 A 
ATOM     21  C   UNL A   1      43.845  22.560  27.324  1.00  0.00    -0.051 A 
ATOM     22  C   UNL A   1      46.020  23.571  26.854  1.00  0.00     0.258 A 
ATOM     23  C   UNL A   1      43.888  23.140  28.640  1.00  0.00    -0.045 A 
ATOM     24  H   UNL A   1      43.024  21.996  27.055  1.00  0.00     0.063 H 
ATOM     25  N   UNL A   1      45.926  24.188  28.090  1.00  0.00    -0.258 N 
ATOM     26  O   UNL A   1      46.994  23.728  26.122  1.00  0.00    -0.269 OA
ATOM     27  C   UNL A   1      44.900  23.943  28.977  1.00  0.00     0.013 A 
ATOM     28  H   UNL A   1      43.140  22.936  29.321  1.00  0.00     0.064 H 
ATOM     29  H   UNL A   1      44.913  24.385  29.909  1.00  0.00     0.082 H 
BRANCH  25  30
ATOM     30  C   UNL A   1      46.981  25.099  28.459  1.00  0.00     0.321 C 
ATOM     31  F   UNL A   1      46.681  26.345  27.998  1.00  0.00    -0.185 F 
ATOM     32  F   UNL A   1      47.048  25.203  29.812  1.00  0.00    -0.185 F 
ATOM     33  H   UNL A   1      47.899  24.732  28.050  1.00  0.00     0.131 H 
ENDBRANCH  25  30
ENDBRANCH  14  20
ENDBRANCH  11  14
ENDBRANCH   7  10
ENDBRANCH   4   7
ENDBRANCH   1   4
BRANCH   1  34
ATOM     34  C   UNL A   1      40.954  19.741  27.255  1.00  0.00    -0.052 C 
ATOM     35  H   UNL A   1      40.219  19.203  27.817  1.00  0.00     0.027 H 
ATOM     36  H   UNL A   1      40.842  19.623  26.198  1.00  0.00     0.027 H 
BRANCH  34  37
ATOM     37  C   UNL A   1      40.778  21.232  27.548  1.00  0.00    -0.036 C 
ATOM     38  H   UNL A   1      41.566  21.543  28.201  1.00  0.00     0.028 H 
ATOM     39  H   UNL A   1      39.810  21.351  27.986  1.00  0.00     0.028 H 
BRANCH  37  40
ATOM     40  C   UNL A   1      40.811  22.112  26.304  1.00  0.00     0.018 C 
ATOM     41  H   UNL A   1      41.343  21.599  25.530  1.00  0.00     0.049 H 
ATOM     42  H   UNL A   1      41.297  23.031  26.560  1.00  0.00     0.049 H 
BRANCH  40  43
ATOM     43  N   UNL A   1      39.472  22.426  25.829  1.00  0.00    -0.352 N 
ATOM     44  C   UNL A   1      38.686  23.511  26.125  1.00  0.00     0.251 C 
ATOM     45  H   UNL A   1      39.076  21.771  25.210  1.00  0.00     0.163 HD
ATOM     46  O   UNL A   1      37.498  23.528  25.819  1.00  0.00    -0.269 OA
BRANCH  44  47
ATOM     47  C   UNL A   1      39.283  24.656  26.839  1.00  0.00     0.039 A 
ATOM     48  C   UNL A   1      40.057  25.576  26.129  1.00  0.00    -0.049 A 
ATOM     49  C   UNL A   1      39.051  24.830  28.206  1.00  0.00    -0.049 A 
ATOM     50  C   UNL A   1      40.547  26.710  26.779  1.00  0.00    -0.053 A 
ATOM     51  H   UNL A   1      40.267  25.418  25.131  1.00  0.00     0.063 H 
ATOM     52  C   UNL A   1      39.470  25.997  28.831  1.00  0.00    -0.053 A 
ATOM     53  H   UNL A   1      38.570  24.095  28.748  1.00  0.00     0.063 H 
ATOM     54  C   UNL A   1      40.226  26.947  28.126  1.00  0.00    -0.014 A 
ATOM     55  H   UNL A   1      41.148  27.376  26.269  1.00  0.00     0.063 H 
ATOM     56  H   UNL A   1      39.224  26.167  29.819  1.00  0.00     0.063 H 
BRANCH  54  57
ATOM     57  C   UNL A   1      40.670  28.175  28.828  1.00  0.00     0.031 A 
ATOM     58  C   UNL A   1      42.063  28.254  29.383  1.00  0.00     0.074 A 
ATOM     59  C   UNL A   1      39.793  29.171  29.057  1.00  0.00     0.049 A 
ATOM     60  N   UNL A   1      42.604  29.173  30.143  1.00  0.00    -0.248 NA
ATOM     61  C   UNL A   1      42.957  27.129  29.070  1.00  0.00    -0.034 C 
ATOM     62  C   UNL A   1      38.400  29.187  28.611  1.00  0.00    -0.036 A 
ATOM     63  N   UNL A   1      39.936  30.349  29.749  1.00  0.00    -0.354 N 
ATOM     64  C   UNL A   1      43.888  28.724  30.417  1.00  0.00     0.074 A 
ATOM     65  C   UNL A   1      44.027  27.428  29.791  1.00  0.00    -0.034 C 
ATOM     66  H   UNL A   1      42.794  26.320  28.451  1.00  0.00     0.065 H 
ATOM     67  C   UNL A   1      37.817  30.318  29.038  1.00  0.00    -0.036 A 
ATOM     68  H   UNL A   1      37.940  28.448  28.056  1.00  0.00     0.065 H 
ATOM     69  C   UNL A   1      38.779  31.083  29.826  1.00  0.00     0.049 A 
ATOM     70  H   UNL A   1      40.787  30.638  30.150  1.00  0.00     0.167 HD
ATOM     71  C   UNL A   1      44.869  29.347  31.113  1.00  0.00     0.037 A 
ATOM     72  H   UNL A   1      44.852  26.815  29.893  1.00  0.00     0.065 H 
ATOM     73  H   UNL A   1      36.843  30.601  28.840  1.00  0.00     0.065 H 
ATOM     74  C   UNL A   1      38.514  32.230  30.481  1.00  0.00     0.037 A 
ATOM     75  C   UNL A   1      44.726  30.646  31.717  1.00  0.00     0.049 A 
ATOM     76  C   UNL A   1      39.613  32.904  31.257  1.00  0.00     0.074 A 
ATOM     77  C   UNL A   1      45.679  31.399  32.379  1.00  0.00    -0.036 A 
ATOM     78  N   UNL A   1      43.547  31.378  31.744  1.00  0.00    -0.354 N 
ATOM     79  N   UNL A   1      40.850  32.512  31.445  1.00  0.00    -0.248 NA
ATOM     80  C   UNL A   1      39.285  34.181  31.904  1.00  0.00    -0.034 C 
ATOM     81  C   UNL A   1      45.060  32.556  32.863  1.00  0.00    -0.036 A 
ATOM     82  H   UNL A   1      46.674  31.150  32.494  1.00  0.00     0.065 H 
ATOM     83  C   UNL A   1      43.739  32.559  32.443  1.00  0.00     0.049 A 
ATOM     84  H   UNL A   1      42.699  31.099  31.328  1.00  0.00     0.167 HD
ATOM     85  C   UNL A   1      41.455  33.502  32.208  1.00  0.00     0.074 A 
ATOM     86  C   UNL A   1      40.449  34.518  32.442  1.00  0.00    -0.034 C 
ATOM     87  H   UNL A   1      38.384  34.684  31.933  1.00  0.00     0.065 H 
ATOM     88  H   UNL A   1      45.511  33.285  33.438  1.00  0.00     0.065 H 
ATOM     89  C   UNL A   1      42.729  33.565  32.665  1.00  0.00     0.037 A 
ATOM     90  H   UNL A   1      40.617  35.393  32.962  1.00  0.00     0.065 H 
BRANCH  71  91
ATOM     91  C   UNL A   1      46.174  28.619  31.272  1.00  0.00     0.064 A 
ATOM     92  C   UNL A   1      47.201  28.716  30.320  1.00  0.00     0.173 A 
ATOM     93  C   UNL A   1      46.402  27.809  32.395  1.00  0.00     0.173 A 
ATOM     94  F   UNL A   1      47.035  29.470  29.222  1.00  0.00    -0.203 F 
ATOM     95  C   UNL A   1      48.382  27.992  30.460  1.00  0.00     0.198 A 
ATOM     96  C   UNL A   1      47.600  27.118  32.553  1.00  0.00     0.198 A 
ATOM     97  F   UNL A   1      45.460  27.685  33.343  1.00  0.00    -0.203 F 
ATOM     98  F   UNL A   1      49.316  28.044  29.500  1.00  0.00    -0.200 F 
ATOM     99  C   UNL A   1      48.583  27.197  31.578  1.00  0.00     0.200 A 
ATOM    100  F   UNL A   1      47.798  26.362  33.642  1.00  0.00    -0.200 F 
ATOM    101  F   UNL A   1      49.718  26.499  31.711  1.00  0.00    -0.200 F 
ENDBRANCH  71  91
BRANCH  74 102
ATOM    102  C   UNL A   1      37.145  32.804  30.420  1.00  0.00     0.064 A 
ATOM    103  C   UNL A   1      36.745  33.609  29.345  1.00  0.00     0.173 A 
ATOM    104  C   UNL A   1      36.197  32.528  31.418  1.00  0.00     0.173 A 
ATOM    105  F   UNL A   1      37.620  33.915  28.376  1.00  0.00    -0.203 F 
ATOM    106  C   UNL A   1      35.451  34.121  29.272  1.00  0.00     0.198 A 
ATOM    107  C   UNL A   1      34.895  33.017  31.329  1.00  0.00     0.198 A 
ATOM    108  F   UNL A   1      36.528  31.758  32.463  1.00  0.00    -0.203 F 
ATOM    109  F   UNL A   1      35.103  34.912  28.248  1.00  0.00    -0.200 F 
ATOM    110  C   UNL A   1      34.525  33.817  30.259  1.00  0.00     0.200 A 
ATOM    111  F   UNL A   1      33.999  32.705  32.275  1.00  0.00    -0.200 F 
ATOM    112  F   UNL A   1      33.276  34.297  30.181  1.00  0.00    -0.200 F 
ENDBRANCH  74 102
BRANCH  89 113
ATOM    113  C   UNL A   1      43.135  34.788  33.437  1.00  0.00     0.064 A 
ATOM    114  C   UNL A   1      43.507  35.977  32.795  1.00  0.00     0.173 A 
ATOM    115  C   UNL A   1      43.071  34.790  34.839  1.00  0.00     0.173 A 
ATOM    116  F   UNL A   1      43.597  36.023  31.458  1.00  0.00    -0.203 F 
ATOM    117  C   UNL A   1      43.808  37.121  33.530  1.00  0.00     0.198 A 
ATOM    118  C   UNL A   1      43.343  35.943  35.569  1.00  0.00     0.198 A 
ATOM    119  F   UNL A   1      42.716  33.678  35.502  1.00  0.00    -0.203 F 
ATOM    120  F   UNL A   1      44.192  38.239  32.898  1.00  0.00    -0.200 F 
ATOM    121  C   UNL A   1      43.714  37.107  34.914  1.00  0.00     0.200 A 
ATOM    122  F   UNL A   1      43.235  35.931  36.905  1.00  0.00    -0.200 F 
ATOM    123  F   UNL A   1      43.982  38.216  35.617  1.00  0.00    -0.200 F 
ENDBRANCH  89 113
ENDBRANCH  54  57
ENDBRANCH  44  47
ENDBRANCH  40  43
ENDBRANCH  37  40
ENDBRANCH  34  37
ENDBRANCH   1  34
TORSDOF 16
ENDMDL
MODEL 10
REMARK VINA RESULT:     -11.6      1.952      7.899
REMARK SMILES C[C@@H](C(=O)NCCCCCCNC(=O)c1ccc(-c2c3nc(c(-c4c(F)c(F)c(F)c(F)c4F)c4ccc([nH]4)c(-c4c(F)c(F)c(F)c(F)c4F)c4nc(c(-c5c(F)c(F)c(F)c(F)c5F)c5ccc2[nH]5)C=C4)C=C3)cc1)c1cccn(C(F)F)c1=O
REMARK SMILES IDX 8 1 7 4 6 7 5 10 3 11 4 12 2 14 1 16 78 20 79 21 86 22 80 23
REMARK SMILES IDX 82 25 87 26 81 27 83 30 84 31 85 32 9 34 10 37 11 40 12 43
REMARK SMILES IDX 13 44 14 46 15 47 16 48 77 49 17 50 76 52 18 54 19 57 20 58
REMARK SMILES IDX 70 59 21 60 75 61 69 62 71 63 22 64 74 65 68 67 67 69 23 71
REMARK SMILES IDX 55 74 35 75 54 76 36 77 39 78 53 79 72 80 37 81 38 83 52 85
REMARK SMILES IDX 73 86 40 89 24 91 25 92 33 93 26 94 27 95 31 96 34 97 28 98
REMARK SMILES IDX 29 99 32 100 30 101 56 102 57 103 65 104 58 105 59 106
REMARK SMILES IDX 63 107 66 108 60 109 61 110 64 111 62 112 41 113 42 114
REMARK SMILES IDX 50 115 43 116 44 117 48 118 51 119 45 120 46 121 49 122
REMARK SMILES IDX 47 123
REMARK H PARENT 8 2 8 3 7 5 7 6 6 8 6 9 5 13 2 15 1 17 1 18 1 19 79 24 80 28
REMARK H PARENT 81 29 83 33 9 35 9 36 10 38 10 39 11 41 11 42 12 45 16 51
REMARK H PARENT 77 53 17 55 76 56 75 66 69 68 71 70 74 72 68 73 36 82 39 84
REMARK H PARENT 72 87 37 88 73 90
REMARK Flexibility Score: inf
ROOT
ATOM      1  C   UNL A   1      32.390  30.024  26.900  1.00  0.00    -0.052 C 
ATOM      2  H   UNL A   1      33.230  29.750  26.295  1.00  0.00     0.027 H 
ATOM      3  H   UNL A   1      32.659  30.605  27.757  1.00  0.00     0.027 H 
ENDROOT
BRANCH   1   4
ATOM      4  C   UNL A   1      31.746  28.736  27.435  1.00  0.00    -0.036 C 
ATOM      5  H   UNL A   1      31.928  28.677  28.488  1.00  0.00     0.028 H 
ATOM      6  H   UNL A   1      30.701  28.788  27.208  1.00  0.00     0.028 H 
BRANCH   4   7
ATOM      7  C   UNL A   1      32.291  27.466  26.775  1.00  0.00     0.017 C 
ATOM      8  H   UNL A   1      32.436  27.643  25.729  1.00  0.00     0.049 H 
ATOM      9  H   UNL A   1      33.223  27.203  27.228  1.00  0.00     0.049 H 
BRANCH   7  10
ATOM     10  N   UNL A   1      31.348  26.381  26.952  1.00  0.00    -0.356 N 
ATOM     11  C   UNL A   1      30.499  25.807  26.051  1.00  0.00     0.227 C 
ATOM     12  O   UNL A   1      29.609  25.089  26.512  1.00  0.00    -0.274 OA
ATOM     13  H   UNL A   1      31.316  26.001  27.860  1.00  0.00     0.163 HD
BRANCH  11  14
ATOM     14  C   UNL A   1      30.737  25.997  24.541  1.00  0.00     0.066 C 
ATOM     15  H   UNL A   1      31.313  26.878  24.352  1.00  0.00     0.045 H 
BRANCH  14  16
ATOM     16  C   UNL A   1      29.439  26.286  23.782  1.00  0.00    -0.049 C 
ATOM     17  H   UNL A   1      29.645  26.946  22.964  1.00  0.00     0.024 H 
ATOM     18  H   UNL A   1      28.734  26.747  24.443  1.00  0.00     0.024 H 
ATOM     19  H   UNL A   1      29.033  25.370  23.408  1.00  0.00     0.024 H 
ENDBRANCH  14  16
BRANCH  14  20
ATOM     20  C   UNL A   1      31.567  24.822  24.031  1.00  0.00     0.030 A 
ATOM     21  C   UNL A   1      30.981  23.672  23.637  1.00  0.00    -0.051 A 
ATOM     22  C   UNL A   1      33.071  24.904  23.937  1.00  0.00     0.258 A 
ATOM     23  C   UNL A   1      31.739  22.561  23.126  1.00  0.00    -0.045 A 
ATOM     24  H   UNL A   1      29.955  23.587  23.702  1.00  0.00     0.063 H 
ATOM     25  N   UNL A   1      33.730  23.750  23.548  1.00  0.00    -0.258 N 
ATOM     26  O   UNL A   1      33.677  25.932  24.225  1.00  0.00    -0.269 OA
ATOM     27  C   UNL A   1      33.073  22.618  23.115  1.00  0.00     0.013 A 
ATOM     28  H   UNL A   1      31.254  21.722  22.769  1.00  0.00     0.064 H 
ATOM     29  H   UNL A   1      33.617  21.808  22.779  1.00  0.00     0.082 H 
BRANCH  25  30
ATOM     30  C   UNL A   1      35.171  23.768  23.574  1.00  0.00     0.321 C 
ATOM     31  F   UNL A   1      35.600  23.623  24.858  1.00  0.00    -0.185 F 
ATOM     32  F   UNL A   1      35.657  22.699  22.891  1.00  0.00    -0.185 F 
ATOM     33  H   UNL A   1      35.502  24.690  23.143  1.00  0.00     0.131 H 
ENDBRANCH  25  30
ENDBRANCH  14  20
ENDBRANCH  11  14
ENDBRANCH   7  10
ENDBRANCH   4   7
ENDBRANCH   1   4
BRANCH   1  34
ATOM     34  C   UNL A   1      31.461  30.902  26.055  1.00  0.00    -0.052 C 
ATOM     35  H   UNL A   1      30.487  30.456  26.055  1.00  0.00     0.027 H 
ATOM     36  H   UNL A   1      31.896  30.956  25.079  1.00  0.00     0.027 H 
BRANCH  34  37
ATOM     37  C   UNL A   1      31.324  32.341  26.553  1.00  0.00    -0.036 C 
ATOM     38  H   UNL A   1      30.501  32.387  27.234  1.00  0.00     0.028 H 
ATOM     39  H   UNL A   1      31.178  32.956  25.690  1.00  0.00     0.028 H 
BRANCH  37  40
ATOM     40  C   UNL A   1      32.565  32.868  27.264  1.00  0.00     0.018 C 
ATOM     41  H   UNL A   1      33.408  32.763  26.613  1.00  0.00     0.049 H 
ATOM     42  H   UNL A   1      32.700  32.302  28.162  1.00  0.00     0.049 H 
BRANCH  40  43
ATOM     43  N   UNL A   1      32.424  34.270  27.630  1.00  0.00    -0.352 N 
ATOM     44  C   UNL A   1      33.037  34.959  28.645  1.00  0.00     0.251 C 
ATOM     45  H   UNL A   1      31.805  34.795  27.073  1.00  0.00     0.163 HD
ATOM     46  O   UNL A   1      32.653  36.081  28.963  1.00  0.00    -0.269 OA
BRANCH  44  47
ATOM     47  C   UNL A   1      34.156  34.327  29.369  1.00  0.00     0.039 A 
ATOM     48  C   UNL A   1      33.885  33.525  30.480  1.00  0.00    -0.049 A 
ATOM     49  C   UNL A   1      35.470  34.510  28.930  1.00  0.00    -0.049 A 
ATOM     50  C   UNL A   1      34.931  32.850  31.113  1.00  0.00    -0.053 A 
ATOM     51  H   UNL A   1      32.919  33.431  30.830  1.00  0.00     0.063 H 
ATOM     52  C   UNL A   1      36.496  33.776  29.510  1.00  0.00    -0.053 A 
ATOM     53  H   UNL A   1      35.675  35.186  28.178  1.00  0.00     0.063 H 
ATOM     54  C   UNL A   1      36.239  32.943  30.609  1.00  0.00    -0.014 A 
ATOM     55  H   UNL A   1      34.743  32.283  31.954  1.00  0.00     0.063 H 
ATOM     56  H   UNL A   1      37.454  33.845  29.130  1.00  0.00     0.063 H 
BRANCH  54  57
ATOM     57  C   UNL A   1      37.362  32.185  31.213  1.00  0.00     0.031 A 
ATOM     58  C   UNL A   1      37.896  32.590  32.557  1.00  0.00     0.074 A 
ATOM     59  C   UNL A   1      37.964  31.206  30.513  1.00  0.00     0.049 A 
ATOM     60  N   UNL A   1      38.951  32.152  33.198  1.00  0.00    -0.248 NA
ATOM     61  C   UNL A   1      37.166  33.657  33.258  1.00  0.00    -0.034 C 
ATOM     62  C   UNL A   1      37.566  30.757  29.178  1.00  0.00    -0.036 A 
ATOM     63  N   UNL A   1      39.058  30.433  30.813  1.00  0.00    -0.354 N 
ATOM     64  C   UNL A   1      39.022  32.907  34.361  1.00  0.00     0.074 A 
ATOM     65  C   UNL A   1      37.940  33.865  34.312  1.00  0.00    -0.034 C 
ATOM     66  H   UNL A   1      36.282  34.121  32.998  1.00  0.00     0.065 H 
ATOM     67  C   UNL A   1      38.402  29.788  28.776  1.00  0.00    -0.036 A 
ATOM     68  H   UNL A   1      36.771  31.126  28.634  1.00  0.00     0.065 H 
ATOM     69  C   UNL A   1      39.421  29.580  29.801  1.00  0.00     0.049 A 
ATOM     70  H   UNL A   1      39.536  30.487  31.672  1.00  0.00     0.167 HD
ATOM     71  C   UNL A   1      39.901  32.795  35.386  1.00  0.00     0.037 A 
ATOM     72  H   UNL A   1      37.792  34.615  35.006  1.00  0.00     0.065 H 
ATOM     73  H   UNL A   1      38.336  29.272  27.884  1.00  0.00     0.065 H 
ATOM     74  C   UNL A   1      40.472  28.744  29.698  1.00  0.00     0.037 A 
ATOM     75  C   UNL A   1      40.963  31.825  35.433  1.00  0.00     0.049 A 
ATOM     76  C   UNL A   1      41.443  28.639  30.842  1.00  0.00     0.074 A 
ATOM     77  C   UNL A   1      41.861  31.577  36.455  1.00  0.00    -0.036 A 
ATOM     78  N   UNL A   1      41.278  30.950  34.402  1.00  0.00    -0.354 N 
ATOM     79  N   UNL A   1      41.458  29.300  31.975  1.00  0.00    -0.248 NA
ATOM     80  C   UNL A   1      42.538  27.670  30.701  1.00  0.00    -0.034 C 
ATOM     81  C   UNL A   1      42.760  30.600  36.019  1.00  0.00    -0.036 A 
ATOM     82  H   UNL A   1      41.865  32.035  37.381  1.00  0.00     0.065 H 
ATOM     83  C   UNL A   1      42.381  30.187  34.751  1.00  0.00     0.049 A 
ATOM     84  H   UNL A   1      40.791  30.882  33.550  1.00  0.00     0.167 HD
ATOM     85  C   UNL A   1      42.543  28.810  32.691  1.00  0.00     0.074 A 
ATOM     86  C   UNL A   1      43.158  27.791  31.867  1.00  0.00    -0.034 C 
ATOM     87  H   UNL A   1      42.765  27.055  29.904  1.00  0.00     0.065 H 
ATOM     88  H   UNL A   1      43.570  30.246  36.551  1.00  0.00     0.065 H 
ATOM     89  C   UNL A   1      42.982  29.170  33.921  1.00  0.00     0.037 A 
ATOM     90  H   UNL A   1      43.977  27.231  32.150  1.00  0.00     0.065 H 
BRANCH  71  91
ATOM     91  C   UNL A   1      39.758  33.762  36.528  1.00  0.00     0.064 A 
ATOM     92  C   UNL A   1      40.433  34.993  36.549  1.00  0.00     0.173 A 
ATOM     93  C   UNL A   1      38.933  33.454  37.620  1.00  0.00     0.173 A 
ATOM     94  F   UNL A   1      41.242  35.337  35.534  1.00  0.00    -0.203 F 
ATOM     95  C   UNL A   1      40.329  35.851  37.639  1.00  0.00     0.198 A 
ATOM     96  C   UNL A   1      38.799  34.332  38.691  1.00  0.00     0.198 A 
ATOM     97  F   UNL A   1      38.255  32.296  37.651  1.00  0.00    -0.203 F 
ATOM     98  F   UNL A   1      41.042  36.986  37.667  1.00  0.00    -0.200 F 
ATOM     99  C   UNL A   1      39.508  35.523  38.708  1.00  0.00     0.200 A 
ATOM    100  F   UNL A   1      37.992  34.020  39.715  1.00  0.00    -0.200 F 
ATOM    101  F   UNL A   1      39.410  36.349  39.758  1.00  0.00    -0.200 F 
ENDBRANCH  71  91
BRANCH  74 102
ATOM    102  C   UNL A   1      40.646  27.941  28.460  1.00  0.00     0.064 A 
ATOM    103  C   UNL A   1      41.409  28.421  27.387  1.00  0.00     0.173 A 
ATOM    104  C   UNL A   1      40.084  26.660  28.340  1.00  0.00     0.173 A 
ATOM    105  F   UNL A   1      41.952  29.646  27.447  1.00  0.00    -0.203 F 
ATOM    106  C   UNL A   1      41.599  27.655  26.238  1.00  0.00     0.198 A 
ATOM    107  C   UNL A   1      40.298  25.883  27.203  1.00  0.00     0.198 A 
ATOM    108  F   UNL A   1      39.353  26.152  29.341  1.00  0.00    -0.203 F 
ATOM    109  F   UNL A   1      42.308  28.150  25.215  1.00  0.00    -0.200 F 
ATOM    110  C   UNL A   1      41.051  26.383  26.151  1.00  0.00     0.200 A 
ATOM    111  F   UNL A   1      39.784  24.649  27.132  1.00  0.00    -0.200 F 
ATOM    112  F   UNL A   1      41.247  25.640  25.054  1.00  0.00    -0.200 F 
ENDBRANCH  74 102
BRANCH  89 113
ATOM    113  C   UNL A   1      44.167  28.437  34.482  1.00  0.00     0.064 A 
ATOM    114  C   UNL A   1      44.036  27.183  35.097  1.00  0.00     0.173 A 
ATOM    115  C   UNL A   1      45.459  28.962  34.328  1.00  0.00     0.173 A 
ATOM    116  F   UNL A   1      42.823  26.645  35.282  1.00  0.00    -0.203 F 
ATOM    117  C   UNL A   1      45.157  26.488  35.544  1.00  0.00     0.198 A 
ATOM    118  C   UNL A   1      46.579  28.250  34.748  1.00  0.00     0.198 A 
ATOM    119  F   UNL A   1      45.638  30.156  33.742  1.00  0.00    -0.203 F 
ATOM    120  F   UNL A   1      45.008  25.305  36.158  1.00  0.00    -0.200 F 
ATOM    121  C   UNL A   1      46.427  27.016  35.358  1.00  0.00     0.200 A 
ATOM    122  F   UNL A   1      47.805  28.755  34.551  1.00  0.00    -0.200 F 
ATOM    123  F   UNL A   1      47.504  26.333  35.769  1.00  0.00    -0.200 F 
ENDBRANCH  89 113
ENDBRANCH  54  57
ENDBRANCH  44  47
ENDBRANCH  40  43
ENDBRANCH  37  40
ENDBRANCH  34  37
ENDBRANCH   1  34
TORSDOF 16
ENDMDL
