MODEL 1
REMARK VINA RESULT:     -12.3      0.000      0.000
REMARK SMILES CN(C)S(=O)(=O)c1ccc(-n2c(CCC(=O)NCCCCCCNC(=O)c3ccc(-c4c5nc(c(-c6c(F)c(F)c(F)c(F)c6F)c6ccc([nH]6)c(-c6c(F)c(F)c(F)c(F)c6F)c6nc(c(-c7c(F)c(F)c(F)c(F)c7F)c7ccc4[nH]7)C=C6)C=C5)cc3)ccc2-c2ccc(F)cc2)cc1
REMARK SMILES IDX 18 1 17 4 15 5 16 6 14 8 13 11 12 14 11 15 92 16 90 17 91 18
REMARK SMILES IDX 10 21 7 22 8 23 101 24 9 25 100 27 4 31 5 32 6 33 2 34 1 35
REMARK SMILES IDX 3 39 93 43 94 44 99 45 95 46 98 48 96 50 97 53 19 54 20 57
REMARK SMILES IDX 21 60 22 63 23 66 24 69 25 70 26 72 27 73 28 74 89 75 29 76
REMARK SMILES IDX 88 78 30 80 31 83 32 84 82 85 33 86 87 87 81 88 83 89 34 90
REMARK SMILES IDX 86 91 80 93 79 95 35 97 67 100 47 101 66 102 48 103 51 104
REMARK SMILES IDX 65 105 84 106 49 107 50 109 64 111 85 112 52 115 36 117
REMARK SMILES IDX 37 118 45 119 38 120 39 121 43 122 46 123 40 124 41 125
REMARK SMILES IDX 44 126 42 127 68 128 69 129 77 130 70 131 71 132 75 133
REMARK SMILES IDX 78 134 72 135 73 136 76 137 74 138 53 139 54 140 62 141
REMARK SMILES IDX 55 142 56 143 60 144 63 145 57 146 58 147 61 148 59 149
REMARK H PARENT 18 2 18 3 17 7 14 9 14 10 13 12 13 13 90 19 91 20 8 26 101 28
REMARK H PARENT 9 29 100 30 1 36 1 37 1 38 3 40 3 41 3 42 94 47 99 49 95 51
REMARK H PARENT 98 52 19 55 19 56 20 58 20 59 21 61 21 62 22 64 22 65 23 67
REMARK H PARENT 23 68 24 71 28 77 89 79 29 81 88 82 87 92 81 94 83 96 86 98
REMARK H PARENT 80 99 48 108 51 110 84 113 49 114 85 116
REMARK Flexibility Score: inf
ROOT
ATOM      1  C   UNL A   1      40.860  21.188  27.680  1.00  0.00     0.017 C 
ATOM      2  H   UNL A   1      39.832  21.003  27.448  1.00  0.00     0.049 H 
ATOM      3  H   UNL A   1      41.003  21.369  28.724  1.00  0.00     0.049 H 
ENDROOT
BRANCH   1   4
ATOM      4  N   UNL A   1      41.292  22.380  26.963  1.00  0.00    -0.356 N 
ATOM      5  C   UNL A   1      40.682  23.589  26.800  1.00  0.00     0.220 C 
ATOM      6  O   UNL A   1      41.298  24.467  26.187  1.00  0.00    -0.275 OA
ATOM      7  H   UNL A   1      42.167  22.299  26.522  1.00  0.00     0.163 HD
BRANCH   5   8
ATOM      8  C   UNL A   1      39.283  23.863  27.323  1.00  0.00     0.032 C 
ATOM      9  H   UNL A   1      38.989  23.030  27.924  1.00  0.00     0.037 H 
ATOM     10  H   UNL A   1      39.352  24.788  27.857  1.00  0.00     0.037 H 
BRANCH   8  11
ATOM     11  C   UNL A   1      38.193  24.083  26.257  1.00  0.00    -0.003 C 
ATOM     12  H   UNL A   1      37.442  24.722  26.673  1.00  0.00     0.034 H 
ATOM     13  H   UNL A   1      38.682  24.509  25.406  1.00  0.00     0.034 H 
BRANCH  11  14
ATOM     14  C   UNL A   1      37.520  22.818  25.775  1.00  0.00     0.024 A 
ATOM     15  N   UNL A   1      36.142  22.490  25.783  1.00  0.00    -0.314 N 
ATOM     16  C   UNL A   1      36.040  21.170  25.242  1.00  0.00     0.053 A 
ATOM     17  C   UNL A   1      38.223  21.727  25.288  1.00  0.00    -0.040 A 
ATOM     18  C   UNL A   1      37.315  20.712  24.965  1.00  0.00    -0.036 A 
ATOM     19  H   UNL A   1      39.247  21.673  25.180  1.00  0.00     0.064 H 
ATOM     20  H   UNL A   1      37.556  19.783  24.587  1.00  0.00     0.065 H 
BRANCH  15  21
ATOM     21  C   UNL A   1      35.007  23.360  26.071  1.00  0.00     0.046 A 
ATOM     22  C   UNL A   1      32.504  24.668  26.170  1.00  0.00     0.082 A 
ATOM     23  C   UNL A   1      32.743  23.556  26.964  1.00  0.00    -0.040 A 
ATOM     24  C   UNL A   1      33.523  25.183  25.386  1.00  0.00    -0.040 A 
ATOM     25  C   UNL A   1      34.012  22.977  26.978  1.00  0.00    -0.037 A 
ATOM     26  H   UNL A   1      31.985  23.158  27.541  1.00  0.00     0.064 H 
ATOM     27  C   UNL A   1      34.758  24.527  25.347  1.00  0.00    -0.037 A 
ATOM     28  H   UNL A   1      33.373  26.042  24.836  1.00  0.00     0.064 H 
ATOM     29  H   UNL A   1      34.224  22.247  27.677  1.00  0.00     0.065 H 
ATOM     30  H   UNL A   1      35.512  24.920  24.762  1.00  0.00     0.065 H 
BRANCH  22  31
ATOM     31  S   UNL A   1      30.902  25.416  26.150  1.00  0.00     0.242 S 
ATOM     32  O   UNL A   1      31.025  26.749  26.696  1.00  0.00    -0.207 OA
ATOM     33  O   UNL A   1      29.964  24.465  26.716  1.00  0.00    -0.207 OA
BRANCH  31  34
ATOM     34  N   UNL A   1      30.582  25.539  24.474  1.00  0.00    -0.204 NA
BRANCH  34  35
ATOM     35  C   UNL A   1      30.616  24.238  23.780  1.00  0.00     0.002 C 
ATOM     36  H   UNL A   1      30.780  24.394  22.735  1.00  0.00     0.041 H 
ATOM     37  H   UNL A   1      29.684  23.732  23.923  1.00  0.00     0.041 H 
ATOM     38  H   UNL A   1      31.410  23.642  24.180  1.00  0.00     0.041 H 
ENDBRANCH  34  35
BRANCH  34  39
ATOM     39  C   UNL A   1      29.390  26.337  24.106  1.00  0.00     0.002 C 
ATOM     40  H   UNL A   1      29.498  26.698  23.105  1.00  0.00     0.041 H 
ATOM     41  H   UNL A   1      29.295  27.166  24.776  1.00  0.00     0.041 H 
ATOM     42  H   UNL A   1      28.516  25.723  24.172  1.00  0.00     0.041 H 
ENDBRANCH  34  39
ENDBRANCH  31  34
ENDBRANCH  22  31
ENDBRANCH  15  21
BRANCH  16  43
ATOM     43  C   UNL A   1      34.796  20.513  24.800  1.00  0.00    -0.001 A 
ATOM     44  C   UNL A   1      33.739  21.205  24.203  1.00  0.00    -0.050 A 
ATOM     45  C   UNL A   1      34.711  19.118  24.880  1.00  0.00    -0.050 A 
ATOM     46  C   UNL A   1      32.685  20.486  23.615  1.00  0.00    -0.026 A 
ATOM     47  H   UNL A   1      33.733  22.237  24.196  1.00  0.00     0.063 H 
ATOM     48  C   UNL A   1      33.676  18.395  24.295  1.00  0.00    -0.026 A 
ATOM     49  H   UNL A   1      35.445  18.606  25.394  1.00  0.00     0.063 H 
ATOM     50  C   UNL A   1      32.674  19.091  23.648  1.00  0.00     0.123 A 
ATOM     51  H   UNL A   1      31.914  20.995  23.153  1.00  0.00     0.065 H 
ATOM     52  H   UNL A   1      33.658  17.364  24.343  1.00  0.00     0.065 H 
ATOM     53  F   UNL A   1      31.643  18.417  23.122  1.00  0.00    -0.207 F 
ENDBRANCH  16  43
ENDBRANCH  11  14
ENDBRANCH   8  11
ENDBRANCH   5   8
ENDBRANCH   1   4
BRANCH   1  54
ATOM     54  C   UNL A   1      41.674  19.948  27.311  1.00  0.00    -0.036 C 
ATOM     55  H   UNL A   1      41.097  19.089  27.585  1.00  0.00     0.028 H 
ATOM     56  H   UNL A   1      42.599  20.055  27.838  1.00  0.00     0.028 H 
BRANCH  54  57
ATOM     57  C   UNL A   1      42.070  19.790  25.837  1.00  0.00    -0.052 C 
ATOM     58  H   UNL A   1      41.775  20.689  25.338  1.00  0.00     0.027 H 
ATOM     59  H   UNL A   1      41.579  18.884  25.545  1.00  0.00     0.027 H 
BRANCH  57  60
ATOM     60  C   UNL A   1      43.555  19.531  25.455  1.00  0.00    -0.052 C 
ATOM     61  H   UNL A   1      43.531  18.902  24.590  1.00  0.00     0.027 H 
ATOM     62  H   UNL A   1      43.950  19.159  26.378  1.00  0.00     0.027 H 
BRANCH  60  63
ATOM     63  C   UNL A   1      44.555  20.667  25.127  1.00  0.00    -0.036 C 
ATOM     64  H   UNL A   1      44.516  20.812  24.068  1.00  0.00     0.028 H 
ATOM     65  H   UNL A   1      45.469  20.308  25.552  1.00  0.00     0.028 H 
BRANCH  63  66
ATOM     66  C   UNL A   1      44.402  22.073  25.776  1.00  0.00     0.018 C 
ATOM     67  H   UNL A   1      43.579  22.041  26.459  1.00  0.00     0.049 H 
ATOM     68  H   UNL A   1      44.246  22.768  24.976  1.00  0.00     0.049 H 
BRANCH  66  69
ATOM     69  N   UNL A   1      45.585  22.523  26.504  1.00  0.00    -0.352 N 
ATOM     70  C   UNL A   1      45.941  23.717  27.102  1.00  0.00     0.251 C 
ATOM     71  H   UNL A   1      46.278  21.829  26.585  1.00  0.00     0.163 HD
ATOM     72  O   UNL A   1      47.154  23.918  27.220  1.00  0.00    -0.269 OA
BRANCH  70  73
ATOM     73  C   UNL A   1      45.020  24.761  27.665  1.00  0.00     0.039 A 
ATOM     74  C   UNL A   1      44.024  24.347  28.575  1.00  0.00    -0.049 A 
ATOM     75  C   UNL A   1      44.974  26.083  27.240  1.00  0.00    -0.049 A 
ATOM     76  C   UNL A   1      43.031  25.229  29.046  1.00  0.00    -0.053 A 
ATOM     77  H   UNL A   1      44.023  23.370  28.906  1.00  0.00     0.063 H 
ATOM     78  C   UNL A   1      43.932  26.951  27.638  1.00  0.00    -0.053 A 
ATOM     79  H   UNL A   1      45.717  26.438  26.618  1.00  0.00     0.063 H 
ATOM     80  C   UNL A   1      42.980  26.548  28.585  1.00  0.00    -0.014 A 
ATOM     81  H   UNL A   1      42.338  24.899  29.736  1.00  0.00     0.063 H 
ATOM     82  H   UNL A   1      43.873  27.896  27.227  1.00  0.00     0.063 H 
BRANCH  80  83
ATOM     83  C   UNL A   1      42.244  27.581  29.397  1.00  0.00     0.031 A 
ATOM     84  C   UNL A   1      42.909  27.713  30.809  1.00  0.00     0.074 A 
ATOM     85  C   UNL A   1      41.148  28.236  28.876  1.00  0.00     0.049 A 
ATOM     86  N   UNL A   1      42.457  28.232  31.911  1.00  0.00    -0.248 NA
ATOM     87  C   UNL A   1      44.279  27.159  31.033  1.00  0.00    -0.034 C 
ATOM     88  C   UNL A   1      40.646  28.089  27.491  1.00  0.00    -0.036 A 
ATOM     89  N   UNL A   1      40.229  29.156  29.384  1.00  0.00    -0.354 N 
ATOM     90  C   UNL A   1      43.527  28.266  32.843  1.00  0.00     0.074 A 
ATOM     91  C   UNL A   1      44.588  27.504  32.279  1.00  0.00    -0.034 C 
ATOM     92  H   UNL A   1      44.859  26.625  30.366  1.00  0.00     0.065 H 
ATOM     93  C   UNL A   1      39.501  28.791  27.301  1.00  0.00    -0.036 A 
ATOM     94  H   UNL A   1      41.109  27.524  26.762  1.00  0.00     0.065 H 
ATOM     95  C   UNL A   1      39.134  29.492  28.519  1.00  0.00     0.049 A 
ATOM     96  H   UNL A   1      40.324  29.550  30.281  1.00  0.00     0.167 HD
ATOM     97  C   UNL A   1      43.527  29.044  33.964  1.00  0.00     0.037 A 
ATOM     98  H   UNL A   1      45.465  27.257  32.765  1.00  0.00     0.065 H 
ATOM     99  H   UNL A   1      38.966  28.822  26.418  1.00  0.00     0.065 H 
ATOM    100  C   UNL A   1      38.010  30.253  28.772  1.00  0.00     0.037 A 
ATOM    101  C   UNL A   1      42.248  29.629  34.134  1.00  0.00     0.049 A 
ATOM    102  C   UNL A   1      38.278  30.893  30.060  1.00  0.00     0.074 A 
ATOM    103  C   UNL A   1      41.031  29.088  34.449  1.00  0.00    -0.036 A 
ATOM    104  N   UNL A   1      42.074  30.881  33.605  1.00  0.00    -0.354 N 
ATOM    105  N   UNL A   1      39.074  31.907  30.212  1.00  0.00    -0.248 NA
ATOM    106  C   UNL A   1      37.623  30.374  31.266  1.00  0.00    -0.034 C 
ATOM    107  C   UNL A   1      40.147  29.821  33.638  1.00  0.00    -0.036 A 
ATOM    108  H   UNL A   1      40.816  28.332  35.117  1.00  0.00     0.065 H 
ATOM    109  C   UNL A   1      40.815  30.915  33.076  1.00  0.00     0.049 A 
ATOM    110  H   UNL A   1      42.731  31.615  33.606  1.00  0.00     0.167 HD
ATOM    111  C   UNL A   1      39.277  31.892  31.566  1.00  0.00     0.074 A 
ATOM    112  C   UNL A   1      38.143  31.216  32.155  1.00  0.00    -0.034 C 
ATOM    113  H   UNL A   1      36.960  29.592  31.388  1.00  0.00     0.065 H 
ATOM    114  H   UNL A   1      39.154  29.589  33.480  1.00  0.00     0.065 H 
ATOM    115  C   UNL A   1      40.554  31.856  32.019  1.00  0.00     0.037 A 
ATOM    116  H   UNL A   1      37.792  31.364  33.115  1.00  0.00     0.065 H 
BRANCH  97 117
ATOM    117  C   UNL A   1      44.644  29.580  34.822  1.00  0.00     0.064 A 
ATOM    118  C   UNL A   1      44.557  29.366  36.223  1.00  0.00     0.173 A 
ATOM    119  C   UNL A   1      45.506  30.604  34.409  1.00  0.00     0.173 A 
ATOM    120  F   UNL A   1      43.806  28.372  36.723  1.00  0.00    -0.203 F 
ATOM    121  C   UNL A   1      45.140  30.237  37.140  1.00  0.00     0.198 A 
ATOM    122  C   UNL A   1      46.137  31.439  35.335  1.00  0.00     0.198 A 
ATOM    123  F   UNL A   1      45.674  30.894  33.114  1.00  0.00    -0.203 F 
ATOM    124  F   UNL A   1      44.879  30.102  38.449  1.00  0.00    -0.200 F 
ATOM    125  C   UNL A   1      45.912  31.290  36.694  1.00  0.00     0.200 A 
ATOM    126  F   UNL A   1      46.898  32.452  34.898  1.00  0.00    -0.200 F 
ATOM    127  F   UNL A   1      46.403  32.182  37.564  1.00  0.00    -0.200 F 
ENDBRANCH  97 117
BRANCH 100 128
ATOM    128  C   UNL A   1      36.644  30.631  28.185  1.00  0.00     0.064 A 
ATOM    129  C   UNL A   1      35.654  29.749  27.745  1.00  0.00     0.173 A 
ATOM    130  C   UNL A   1      36.235  32.008  28.139  1.00  0.00     0.173 A 
ATOM    131  F   UNL A   1      35.915  28.446  27.603  1.00  0.00    -0.203 F 
ATOM    132  C   UNL A   1      34.348  30.190  27.417  1.00  0.00     0.198 A 
ATOM    133  C   UNL A   1      34.932  32.436  27.882  1.00  0.00     0.198 A 
ATOM    134  F   UNL A   1      37.095  33.014  28.340  1.00  0.00    -0.203 F 
ATOM    135  F   UNL A   1      33.432  29.305  26.997  1.00  0.00    -0.200 F 
ATOM    136  C   UNL A   1      33.976  31.521  27.537  1.00  0.00     0.200 A 
ATOM    137  F   UNL A   1      34.623  33.738  27.993  1.00  0.00    -0.200 F 
ATOM    138  F   UNL A   1      32.716  31.918  27.306  1.00  0.00    -0.200 F 
ENDBRANCH 100 128
BRANCH 115 139
ATOM    139  C   UNL A   1      41.563  32.474  31.070  1.00  0.00     0.064 A 
ATOM    140  C   UNL A   1      41.485  33.846  30.777  1.00  0.00     0.173 A 
ATOM    141  C   UNL A   1      42.515  31.743  30.338  1.00  0.00     0.173 A 
ATOM    142  F   UNL A   1      40.619  34.622  31.445  1.00  0.00    -0.203 F 
ATOM    143  C   UNL A   1      42.287  34.438  29.798  1.00  0.00     0.198 A 
ATOM    144  C   UNL A   1      43.322  32.334  29.359  1.00  0.00     0.198 A 
ATOM    145  F   UNL A   1      42.686  30.440  30.552  1.00  0.00    -0.203 F 
ATOM    146  F   UNL A   1      42.175  35.751  29.547  1.00  0.00    -0.200 F 
ATOM    147  C   UNL A   1      43.202  33.682  29.085  1.00  0.00     0.200 A 
ATOM    148  F   UNL A   1      44.218  31.591  28.690  1.00  0.00    -0.200 F 
ATOM    149  F   UNL A   1      43.978  34.253  28.153  1.00  0.00    -0.200 F 
ENDBRANCH 115 139
ENDBRANCH  80  83
ENDBRANCH  70  73
ENDBRANCH  66  69
ENDBRANCH  63  66
ENDBRANCH  60  63
ENDBRANCH  57  60
ENDBRANCH  54  57
ENDBRANCH   1  54
TORSDOF 21
ENDMDL
MODEL 2
REMARK VINA RESULT:     -12.1      4.962     10.304
REMARK SMILES CN(C)S(=O)(=O)c1ccc(-n2c(CCC(=O)NCCCCCCNC(=O)c3ccc(-c4c5nc(c(-c6c(F)c(F)c(F)c(F)c6F)c6ccc([nH]6)c(-c6c(F)c(F)c(F)c(F)c6F)c6nc(c(-c7c(F)c(F)c(F)c(F)c7F)c7ccc4[nH]7)C=C6)C=C5)cc3)ccc2-c2ccc(F)cc2)cc1
REMARK SMILES IDX 18 1 17 4 15 5 16 6 14 8 13 11 12 14 11 15 92 16 90 17 91 18
REMARK SMILES IDX 10 21 7 22 8 23 101 24 9 25 100 27 4 31 5 32 6 33 2 34 1 35
REMARK SMILES IDX 3 39 93 43 94 44 99 45 95 46 98 48 96 50 97 53 19 54 20 57
REMARK SMILES IDX 21 60 22 63 23 66 24 69 25 70 26 72 27 73 28 74 89 75 29 76
REMARK SMILES IDX 88 78 30 80 31 83 32 84 82 85 33 86 87 87 81 88 83 89 34 90
REMARK SMILES IDX 86 91 80 93 79 95 35 97 67 100 47 101 66 102 48 103 51 104
REMARK SMILES IDX 65 105 84 106 49 107 50 109 64 111 85 112 52 115 36 117
REMARK SMILES IDX 37 118 45 119 38 120 39 121 43 122 46 123 40 124 41 125
REMARK SMILES IDX 44 126 42 127 68 128 69 129 77 130 70 131 71 132 75 133
REMARK SMILES IDX 78 134 72 135 73 136 76 137 74 138 53 139 54 140 62 141
REMARK SMILES IDX 55 142 56 143 60 144 63 145 57 146 58 147 61 148 59 149
REMARK H PARENT 18 2 18 3 17 7 14 9 14 10 13 12 13 13 90 19 91 20 8 26 101 28
REMARK H PARENT 9 29 100 30 1 36 1 37 1 38 3 40 3 41 3 42 94 47 99 49 95 51
REMARK H PARENT 98 52 19 55 19 56 20 58 20 59 21 61 21 62 22 64 22 65 23 67
REMARK H PARENT 23 68 24 71 28 77 89 79 29 81 88 82 87 92 81 94 83 96 86 98
REMARK H PARENT 80 99 48 108 51 110 84 113 49 114 85 116
REMARK Flexibility Score: inf
ROOT
ATOM      1  C   UNL A   1      41.082  29.813  33.971  1.00  0.00     0.017 C 
ATOM      2  H   UNL A   1      40.813  30.774  34.358  1.00  0.00     0.049 H 
ATOM      3  H   UNL A   1      41.641  29.895  33.063  1.00  0.00     0.049 H 
ENDROOT
BRANCH   1   4
ATOM      4  N   UNL A   1      39.864  29.073  33.671  1.00  0.00    -0.356 N 
ATOM      5  C   UNL A   1      39.564  28.235  32.638  1.00  0.00     0.220 C 
ATOM      6  O   UNL A   1      38.462  27.677  32.649  1.00  0.00    -0.275 OA
ATOM      7  H   UNL A   1      39.136  29.200  34.321  1.00  0.00     0.163 HD
BRANCH   5   8
ATOM      8  C   UNL A   1      40.526  27.998  31.487  1.00  0.00     0.032 C 
ATOM      9  H   UNL A   1      41.463  27.691  31.901  1.00  0.00     0.037 H 
ATOM     10  H   UNL A   1      40.058  27.262  30.867  1.00  0.00     0.037 H 
BRANCH   8  11
ATOM     11  C   UNL A   1      40.791  29.205  30.567  1.00  0.00    -0.003 C 
ATOM     12  H   UNL A   1      40.939  30.068  31.182  1.00  0.00     0.034 H 
ATOM     13  H   UNL A   1      41.649  28.956  29.979  1.00  0.00     0.034 H 
BRANCH  11  14
ATOM     14  C   UNL A   1      39.676  29.508  29.591  1.00  0.00     0.024 A 
ATOM     15  N   UNL A   1      38.461  30.199  29.821  1.00  0.00    -0.314 N 
ATOM     16  C   UNL A   1      37.751  30.190  28.579  1.00  0.00     0.053 A 
ATOM     17  C   UNL A   1      39.681  29.066  28.278  1.00  0.00    -0.040 A 
ATOM     18  C   UNL A   1      38.497  29.479  27.657  1.00  0.00    -0.036 A 
ATOM     19  H   UNL A   1      40.435  28.521  27.831  1.00  0.00     0.064 H 
ATOM     20  H   UNL A   1      38.227  29.286  26.680  1.00  0.00     0.065 H 
BRANCH  15  21
ATOM     21  C   UNL A   1      38.065  30.964  30.999  1.00  0.00     0.046 A 
ATOM     22  C   UNL A   1      36.947  32.798  32.835  1.00  0.00     0.082 A 
ATOM     23  C   UNL A   1      36.261  31.639  32.499  1.00  0.00    -0.040 A 
ATOM     24  C   UNL A   1      38.217  33.015  32.328  1.00  0.00    -0.040 A 
ATOM     25  C   UNL A   1      36.864  30.696  31.667  1.00  0.00    -0.037 A 
ATOM     26  H   UNL A   1      35.309  31.477  32.862  1.00  0.00     0.064 H 
ATOM     27  C   UNL A   1      38.761  32.099  31.421  1.00  0.00    -0.037 A 
ATOM     28  H   UNL A   1      38.758  33.844  32.616  1.00  0.00     0.064 H 
ATOM     29  H   UNL A   1      36.414  29.776  31.540  1.00  0.00     0.065 H 
ATOM     30  H   UNL A   1      39.709  32.267  31.051  1.00  0.00     0.065 H 
BRANCH  22  31
ATOM     31  S   UNL A   1      36.196  33.996  33.897  1.00  0.00     0.242 S 
ATOM     32  O   UNL A   1      37.137  35.077  34.086  1.00  0.00    -0.207 OA
ATOM     33  O   UNL A   1      35.638  33.290  35.035  1.00  0.00    -0.207 OA
BRANCH  31  34
ATOM     34  N   UNL A   1      34.897  34.562  32.939  1.00  0.00    -0.204 NA
BRANCH  34  35
ATOM     35  C   UNL A   1      33.653  33.794  33.136  1.00  0.00     0.002 C 
ATOM     36  H   UNL A   1      33.396  33.291  32.228  1.00  0.00     0.041 H 
ATOM     37  H   UNL A   1      32.862  34.459  33.412  1.00  0.00     0.041 H 
ATOM     38  H   UNL A   1      33.799  33.073  33.914  1.00  0.00     0.041 H 
ENDBRANCH  34  35
BRANCH  34  39
ATOM     39  C   UNL A   1      34.662  36.024  32.977  1.00  0.00     0.002 C 
ATOM     40  H   UNL A   1      33.757  36.254  32.454  1.00  0.00     0.041 H 
ATOM     41  H   UNL A   1      35.482  36.529  32.509  1.00  0.00     0.041 H 
ATOM     42  H   UNL A   1      34.578  36.345  33.994  1.00  0.00     0.041 H 
ENDBRANCH  34  39
ENDBRANCH  31  34
ENDBRANCH  22  31
ENDBRANCH  15  21
BRANCH  16  43
ATOM     43  C   UNL A   1      36.574  31.015  28.253  1.00  0.00    -0.001 A 
ATOM     44  C   UNL A   1      35.310  30.475  28.005  1.00  0.00    -0.050 A 
ATOM     45  C   UNL A   1      36.699  32.408  28.302  1.00  0.00    -0.050 A 
ATOM     46  C   UNL A   1      34.197  31.328  27.916  1.00  0.00    -0.026 A 
ATOM     47  H   UNL A   1      35.195  29.456  27.886  1.00  0.00     0.063 H 
ATOM     48  C   UNL A   1      35.604  33.263  28.223  1.00  0.00    -0.026 A 
ATOM     49  H   UNL A   1      37.642  32.818  28.399  1.00  0.00     0.063 H 
ATOM     50  C   UNL A   1      34.351  32.709  28.046  1.00  0.00     0.123 A 
ATOM     51  H   UNL A   1      33.258  30.929  27.755  1.00  0.00     0.065 H 
ATOM     52  H   UNL A   1      35.725  34.286  28.294  1.00  0.00     0.065 H 
ATOM     53  F   UNL A   1      33.291  33.516  27.917  1.00  0.00    -0.207 F 
ENDBRANCH  16  43
ENDBRANCH  11  14
ENDBRANCH   8  11
ENDBRANCH   5   8
ENDBRANCH   1   4
BRANCH   1  54
ATOM     54  C   UNL A   1      41.967  29.104  34.995  1.00  0.00    -0.036 C 
ATOM     55  H   UNL A   1      41.904  28.053  34.805  1.00  0.00     0.028 H 
ATOM     56  H   UNL A   1      41.592  29.412  35.949  1.00  0.00     0.028 H 
BRANCH  54  57
ATOM     57  C   UNL A   1      43.454  29.483  35.010  1.00  0.00    -0.052 C 
ATOM     58  H   UNL A   1      43.537  30.429  34.517  1.00  0.00     0.027 H 
ATOM     59  H   UNL A   1      43.928  28.645  34.543  1.00  0.00     0.027 H 
BRANCH  57  60
ATOM     60  C   UNL A   1      44.209  29.614  36.364  1.00  0.00    -0.052 C 
ATOM     61  H   UNL A   1      43.459  29.819  37.099  1.00  0.00     0.027 H 
ATOM     62  H   UNL A   1      44.945  30.353  36.126  1.00  0.00     0.027 H 
BRANCH  60  63
ATOM     63  C   UNL A   1      45.087  28.484  36.955  1.00  0.00    -0.036 C 
ATOM     64  H   UNL A   1      45.877  28.961  37.495  1.00  0.00     0.028 H 
ATOM     65  H   UNL A   1      45.344  27.906  36.092  1.00  0.00     0.028 H 
BRANCH  63  66
ATOM     66  C   UNL A   1      44.475  27.419  37.912  1.00  0.00     0.018 C 
ATOM     67  H   UNL A   1      43.412  27.426  37.788  1.00  0.00     0.049 H 
ATOM     68  H   UNL A   1      44.775  27.685  38.904  1.00  0.00     0.049 H 
BRANCH  66  69
ATOM     69  N   UNL A   1      44.955  26.061  37.674  1.00  0.00    -0.352 N 
ATOM     70  C   UNL A   1      44.857  25.187  36.608  1.00  0.00     0.251 C 
ATOM     71  H   UNL A   1      45.456  25.688  38.435  1.00  0.00     0.163 HD
ATOM     72  O   UNL A   1      44.958  23.988  36.885  1.00  0.00    -0.269 OA
BRANCH  70  73
ATOM     73  C   UNL A   1      44.693  25.538  35.157  1.00  0.00     0.039 A 
ATOM     74  C   UNL A   1      45.856  25.802  34.402  1.00  0.00    -0.049 A 
ATOM     75  C   UNL A   1      43.472  25.775  34.537  1.00  0.00    -0.049 A 
ATOM     76  C   UNL A   1      45.793  26.273  33.076  1.00  0.00    -0.053 A 
ATOM     77  H   UNL A   1      46.780  25.645  34.834  1.00  0.00     0.063 H 
ATOM     78  C   UNL A   1      43.399  26.330  33.239  1.00  0.00    -0.053 A 
ATOM     79  H   UNL A   1      42.600  25.542  35.036  1.00  0.00     0.063 H 
ATOM     80  C   UNL A   1      44.557  26.536  32.476  1.00  0.00    -0.014 A 
ATOM     81  H   UNL A   1      46.664  26.424  32.543  1.00  0.00     0.063 H 
ATOM     82  H   UNL A   1      42.479  26.585  32.846  1.00  0.00     0.063 H 
BRANCH  80  83
ATOM     83  C   UNL A   1      44.468  26.591  30.974  1.00  0.00     0.031 A 
ATOM     84  C   UNL A   1      44.499  28.083  30.498  1.00  0.00     0.074 A 
ATOM     85  C   UNL A   1      44.359  25.433  30.232  1.00  0.00     0.049 A 
ATOM     86  N   UNL A   1      44.154  28.616  29.364  1.00  0.00    -0.248 NA
ATOM     87  C   UNL A   1      44.960  29.148  31.440  1.00  0.00    -0.034 C 
ATOM     88  C   UNL A   1      44.418  24.060  30.783  1.00  0.00    -0.036 A 
ATOM     89  N   UNL A   1      44.181  25.156  28.876  1.00  0.00    -0.354 N 
ATOM     90  C   UNL A   1      44.557  29.977  29.386  1.00  0.00     0.074 A 
ATOM     91  C   UNL A   1      44.954  30.267  30.721  1.00  0.00    -0.034 C 
ATOM     92  H   UNL A   1      45.225  29.039  32.432  1.00  0.00     0.065 H 
ATOM     93  C   UNL A   1      44.191  23.130  29.822  1.00  0.00    -0.036 A 
ATOM     94  H   UNL A   1      44.607  23.839  31.773  1.00  0.00     0.065 H 
ATOM     95  C   UNL A   1      43.983  23.776  28.537  1.00  0.00     0.049 A 
ATOM     96  H   UNL A   1      44.189  25.865  28.192  1.00  0.00     0.167 HD
ATOM     97  C   UNL A   1      44.678  30.746  28.266  1.00  0.00     0.037 A 
ATOM     98  H   UNL A   1      45.200  31.204  31.078  1.00  0.00     0.065 H 
ATOM     99  H   UNL A   1      44.168  22.110  29.980  1.00  0.00     0.065 H 
ATOM    100  C   UNL A   1      43.653  23.201  27.326  1.00  0.00     0.037 A 
ATOM    101  C   UNL A   1      44.159  30.044  27.151  1.00  0.00     0.049 A 
ATOM    102  C   UNL A   1      43.801  24.283  26.352  1.00  0.00     0.074 A 
ATOM    103  C   UNL A   1      42.884  29.672  26.819  1.00  0.00    -0.036 A 
ATOM    104  N   UNL A   1      45.058  29.323  26.411  1.00  0.00    -0.354 N 
ATOM    105  N   UNL A   1      44.945  24.706  25.909  1.00  0.00    -0.248 NA
ATOM    106  C   UNL A   1      42.599  24.945  25.831  1.00  0.00    -0.034 C 
ATOM    107  C   UNL A   1      43.069  28.393  26.262  1.00  0.00    -0.036 A 
ATOM    108  H   UNL A   1      42.006  30.199  26.944  1.00  0.00     0.065 H 
ATOM    109  C   UNL A   1      44.433  28.161  26.052  1.00  0.00     0.049 A 
ATOM    110  H   UNL A   1      45.977  29.589  26.183  1.00  0.00     0.167 HD
ATOM    111  C   UNL A   1      44.593  25.907  25.352  1.00  0.00     0.074 A 
ATOM    112  C   UNL A   1      43.188  25.823  25.023  1.00  0.00    -0.034 C 
ATOM    113  H   UNL A   1      41.600  24.779  26.031  1.00  0.00     0.065 H 
ATOM    114  H   UNL A   1      42.313  27.726  26.042  1.00  0.00     0.065 H 
ATOM    115  C   UNL A   1      45.254  27.017  25.758  1.00  0.00     0.037 A 
ATOM    116  H   UNL A   1      42.715  26.359  24.278  1.00  0.00     0.065 H 
BRANCH  97 117
ATOM    117  C   UNL A   1      45.469  31.996  27.979  1.00  0.00     0.064 A 
ATOM    118  C   UNL A   1      44.744  33.177  27.669  1.00  0.00     0.173 A 
ATOM    119  C   UNL A   1      46.814  31.979  27.588  1.00  0.00     0.173 A 
ATOM    120  F   UNL A   1      43.465  33.321  28.050  1.00  0.00    -0.203 F 
ATOM    121  C   UNL A   1      45.276  34.178  26.860  1.00  0.00     0.198 A 
ATOM    122  C   UNL A   1      47.361  33.017  26.827  1.00  0.00     0.198 A 
ATOM    123  F   UNL A   1      47.599  30.924  27.832  1.00  0.00    -0.203 F 
ATOM    124  F   UNL A   1      44.495  35.185  26.442  1.00  0.00    -0.200 F 
ATOM    125  C   UNL A   1      46.580  34.085  26.418  1.00  0.00     0.200 A 
ATOM    126  F   UNL A   1      48.632  32.930  26.412  1.00  0.00    -0.200 F 
ATOM    127  F   UNL A   1      47.071  34.998  25.570  1.00  0.00    -0.200 F 
ENDBRANCH  97 117
BRANCH 100 128
ATOM    128  C   UNL A   1      43.207  21.878  26.693  1.00  0.00     0.064 A 
ATOM    129  C   UNL A   1      43.953  21.077  25.825  1.00  0.00     0.173 A 
ATOM    130  C   UNL A   1      41.945  21.294  27.056  1.00  0.00     0.173 A 
ATOM    131  F   UNL A   1      45.092  21.527  25.289  1.00  0.00    -0.203 F 
ATOM    132  C   UNL A   1      43.536  19.771  25.463  1.00  0.00     0.198 A 
ATOM    133  C   UNL A   1      41.566  19.985  26.756  1.00  0.00     0.198 A 
ATOM    134  F   UNL A   1      41.009  21.978  27.725  1.00  0.00    -0.203 F 
ATOM    135  F   UNL A   1      44.287  19.042  24.624  1.00  0.00    -0.200 F 
ATOM    136  C   UNL A   1      42.374  19.210  25.970  1.00  0.00     0.200 A 
ATOM    137  F   UNL A   1      40.421  19.491  27.255  1.00  0.00    -0.200 F 
ATOM    138  F   UNL A   1      42.028  17.946  25.689  1.00  0.00    -0.200 F 
ENDBRANCH 100 128
BRANCH 115 139
ATOM    139  C   UNL A   1      46.666  26.751  26.247  1.00  0.00     0.064 A 
ATOM    140  C   UNL A   1      47.665  26.408  25.319  1.00  0.00     0.173 A 
ATOM    141  C   UNL A   1      47.038  26.689  27.601  1.00  0.00     0.173 A 
ATOM    142  F   UNL A   1      47.401  26.462  24.005  1.00  0.00    -0.203 F 
ATOM    143  C   UNL A   1      48.940  26.005  25.724  1.00  0.00     0.198 A 
ATOM    144  C   UNL A   1      48.315  26.288  28.009  1.00  0.00     0.198 A 
ATOM    145  F   UNL A   1      46.175  27.013  28.561  1.00  0.00    -0.203 F 
ATOM    146  F   UNL A   1      49.860  25.681  24.804  1.00  0.00    -0.200 F 
ATOM    147  C   UNL A   1      49.264  25.939  27.068  1.00  0.00     0.200 A 
ATOM    148  F   UNL A   1      48.621  26.248  29.316  1.00  0.00    -0.200 F 
ATOM    149  F   UNL A   1      50.491  25.561  27.455  1.00  0.00    -0.200 F 
ENDBRANCH 115 139
ENDBRANCH  80  83
ENDBRANCH  70  73
ENDBRANCH  66  69
ENDBRANCH  63  66
ENDBRANCH  60  63
ENDBRANCH  57  60
ENDBRANCH  54  57
ENDBRANCH   1  54
TORSDOF 21
ENDMDL
MODEL 3
REMARK VINA RESULT:     -12.1      3.286      8.966
REMARK SMILES CN(C)S(=O)(=O)c1ccc(-n2c(CCC(=O)NCCCCCCNC(=O)c3ccc(-c4c5nc(c(-c6c(F)c(F)c(F)c(F)c6F)c6ccc([nH]6)c(-c6c(F)c(F)c(F)c(F)c6F)c6nc(c(-c7c(F)c(F)c(F)c(F)c7F)c7ccc4[nH]7)C=C6)C=C5)cc3)ccc2-c2ccc(F)cc2)cc1
REMARK SMILES IDX 18 1 17 4 15 5 16 6 14 8 13 11 12 14 11 15 92 16 90 17 91 18
REMARK SMILES IDX 10 21 7 22 8 23 101 24 9 25 100 27 4 31 5 32 6 33 2 34 1 35
REMARK SMILES IDX 3 39 93 43 94 44 99 45 95 46 98 48 96 50 97 53 19 54 20 57
REMARK SMILES IDX 21 60 22 63 23 66 24 69 25 70 26 72 27 73 28 74 89 75 29 76
REMARK SMILES IDX 88 78 30 80 31 83 32 84 82 85 33 86 87 87 81 88 83 89 34 90
REMARK SMILES IDX 86 91 80 93 79 95 35 97 67 100 47 101 66 102 48 103 51 104
REMARK SMILES IDX 65 105 84 106 49 107 50 109 64 111 85 112 52 115 36 117
REMARK SMILES IDX 37 118 45 119 38 120 39 121 43 122 46 123 40 124 41 125
REMARK SMILES IDX 44 126 42 127 68 128 69 129 77 130 70 131 71 132 75 133
REMARK SMILES IDX 78 134 72 135 73 136 76 137 74 138 53 139 54 140 62 141
REMARK SMILES IDX 55 142 56 143 60 144 63 145 57 146 58 147 61 148 59 149
REMARK H PARENT 18 2 18 3 17 7 14 9 14 10 13 12 13 13 90 19 91 20 8 26 101 28
REMARK H PARENT 9 29 100 30 1 36 1 37 1 38 3 40 3 41 3 42 94 47 99 49 95 51
REMARK H PARENT 98 52 19 55 19 56 20 58 20 59 21 61 21 62 22 64 22 65 23 67
REMARK H PARENT 23 68 24 71 28 77 89 79 29 81 88 82 87 92 81 94 83 96 86 98
REMARK H PARENT 80 99 48 108 51 110 84 113 49 114 85 116
REMARK Flexibility Score: inf
ROOT
ATOM      1  C   UNL A   1      33.207  20.461  25.111  1.00  0.00     0.017 C 
ATOM      2  H   UNL A   1      32.787  19.836  25.872  1.00  0.00     0.049 H 
ATOM      3  H   UNL A   1      33.047  21.498  25.318  1.00  0.00     0.049 H 
ENDROOT
BRANCH   1   4
ATOM      4  N   UNL A   1      32.550  20.158  23.847  1.00  0.00    -0.356 N 
ATOM      5  C   UNL A   1      32.267  20.957  22.778  1.00  0.00     0.220 C 
ATOM      6  O   UNL A   1      31.750  20.433  21.787  1.00  0.00    -0.275 OA
ATOM      7  H   UNL A   1      32.263  19.222  23.747  1.00  0.00     0.163 HD
BRANCH   5   8
ATOM      8  C   UNL A   1      32.544  22.451  22.793  1.00  0.00     0.032 C 
ATOM      9  H   UNL A   1      33.531  22.596  23.178  1.00  0.00     0.037 H 
ATOM     10  H   UNL A   1      32.414  22.777  21.782  1.00  0.00     0.037 H 
BRANCH   8  11
ATOM     11  C   UNL A   1      31.579  23.310  23.632  1.00  0.00    -0.003 C 
ATOM     12  H   UNL A   1      30.901  23.799  22.964  1.00  0.00     0.034 H 
ATOM     13  H   UNL A   1      31.091  22.643  24.311  1.00  0.00     0.034 H 
BRANCH  11  14
ATOM     14  C   UNL A   1      32.252  24.367  24.478  1.00  0.00     0.024 A 
ATOM     15  N   UNL A   1      32.057  25.769  24.464  1.00  0.00    -0.314 N 
ATOM     16  C   UNL A   1      32.954  26.311  25.439  1.00  0.00     0.053 A 
ATOM     17  C   UNL A   1      33.253  24.077  25.392  1.00  0.00    -0.040 A 
ATOM     18  C   UNL A   1      33.688  25.271  25.979  1.00  0.00    -0.036 A 
ATOM     19  H   UNL A   1      33.617  23.136  25.606  1.00  0.00     0.064 H 
ATOM     20  H   UNL A   1      34.430  25.360  26.690  1.00  0.00     0.065 H 
BRANCH  15  21
ATOM     21  C   UNL A   1      31.020  26.531  23.776  1.00  0.00     0.046 A 
ATOM     22  C   UNL A   1      29.153  28.466  22.905  1.00  0.00     0.082 A 
ATOM     23  C   UNL A   1      30.460  28.494  22.437  1.00  0.00    -0.040 A 
ATOM     24  C   UNL A   1      28.746  27.438  23.740  1.00  0.00    -0.040 A 
ATOM     25  C   UNL A   1      31.345  27.479  22.799  1.00  0.00    -0.037 A 
ATOM     26  H   UNL A   1      30.774  29.264  21.825  1.00  0.00     0.064 H 
ATOM     27  C   UNL A   1      29.679  26.486  24.162  1.00  0.00    -0.037 A 
ATOM     28  H   UNL A   1      27.764  27.377  24.047  1.00  0.00     0.064 H 
ATOM     29  H   UNL A   1      32.265  27.424  22.333  1.00  0.00     0.065 H 
ATOM     30  H   UNL A   1      29.365  25.723  24.782  1.00  0.00     0.065 H 
BRANCH  22  31
ATOM     31  S   UNL A   1      28.019  29.742  22.445  1.00  0.00     0.242 S 
ATOM     32  O   UNL A   1      26.702  29.350  22.891  1.00  0.00    -0.207 OA
ATOM     33  O   UNL A   1      28.265  30.071  21.054  1.00  0.00    -0.207 OA
BRANCH  31  34
ATOM     34  N   UNL A   1      28.551  31.058  23.401  1.00  0.00    -0.204 NA
BRANCH  34  35
ATOM     35  C   UNL A   1      29.839  30.802  24.075  1.00  0.00     0.002 C 
ATOM     36  H   UNL A   1      29.691  30.108  24.875  1.00  0.00     0.041 H 
ATOM     37  H   UNL A   1      30.226  31.720  24.465  1.00  0.00     0.041 H 
ATOM     38  H   UNL A   1      30.534  30.393  23.371  1.00  0.00     0.041 H 
ENDBRANCH  34  35
BRANCH  34  39
ATOM     39  C   UNL A   1      28.521  32.383  22.741  1.00  0.00     0.002 C 
ATOM     40  H   UNL A   1      28.316  32.258  21.698  1.00  0.00     0.041 H 
ATOM     41  H   UNL A   1      29.469  32.864  22.863  1.00  0.00     0.041 H 
ATOM     42  H   UNL A   1      27.755  32.985  23.185  1.00  0.00     0.041 H 
ENDBRANCH  34  39
ENDBRANCH  31  34
ENDBRANCH  22  31
ENDBRANCH  15  21
BRANCH  16  43
ATOM     43  C   UNL A   1      32.918  27.684  25.974  1.00  0.00    -0.001 A 
ATOM     44  C   UNL A   1      31.800  28.226  26.611  1.00  0.00    -0.050 A 
ATOM     45  C   UNL A   1      34.093  28.444  25.941  1.00  0.00    -0.050 A 
ATOM     46  C   UNL A   1      31.912  29.454  27.282  1.00  0.00    -0.026 A 
ATOM     47  H   UNL A   1      30.896  27.726  26.587  1.00  0.00     0.063 H 
ATOM     48  C   UNL A   1      34.219  29.659  26.609  1.00  0.00    -0.026 A 
ATOM     49  H   UNL A   1      34.898  28.091  25.400  1.00  0.00     0.063 H 
ATOM     50  C   UNL A   1      33.123  30.148  27.293  1.00  0.00     0.123 A 
ATOM     51  H   UNL A   1      31.093  29.846  27.774  1.00  0.00     0.065 H 
ATOM     52  H   UNL A   1      35.109  30.181  26.593  1.00  0.00     0.065 H 
ATOM     53  F   UNL A   1      33.208  31.338  27.899  1.00  0.00    -0.207 F 
ENDBRANCH  16  43
ENDBRANCH  11  14
ENDBRANCH   8  11
ENDBRANCH   5   8
ENDBRANCH   1   4
BRANCH   1  54
ATOM     54  C   UNL A   1      34.716  20.227  25.065  1.00  0.00    -0.036 C 
ATOM     55  H   UNL A   1      34.896  19.404  24.404  1.00  0.00     0.028 H 
ATOM     56  H   UNL A   1      35.005  20.058  26.081  1.00  0.00     0.028 H 
BRANCH  54  57
ATOM     57  C   UNL A   1      35.587  21.399  24.592  1.00  0.00    -0.052 C 
ATOM     58  H   UNL A   1      34.926  22.121  24.160  1.00  0.00     0.027 H 
ATOM     59  H   UNL A   1      36.296  20.933  23.940  1.00  0.00     0.027 H 
BRANCH  57  60
ATOM     60  C   UNL A   1      36.482  22.161  25.610  1.00  0.00    -0.052 C 
ATOM     61  H   UNL A   1      37.359  21.563  25.735  1.00  0.00     0.027 H 
ATOM     62  H   UNL A   1      35.805  22.299  26.427  1.00  0.00     0.027 H 
BRANCH  60  63
ATOM     63  C   UNL A   1      36.984  23.608  25.379  1.00  0.00    -0.036 C 
ATOM     64  H   UNL A   1      36.139  24.175  25.046  1.00  0.00     0.028 H 
ATOM     65  H   UNL A   1      37.797  23.471  24.698  1.00  0.00     0.028 H 
BRANCH  63  66
ATOM     66  C   UNL A   1      37.636  24.419  26.536  1.00  0.00     0.018 C 
ATOM     67  H   UNL A   1      36.939  24.469  27.346  1.00  0.00     0.049 H 
ATOM     68  H   UNL A   1      37.877  25.384  26.141  1.00  0.00     0.049 H 
BRANCH  66  69
ATOM     69  N   UNL A   1      38.880  23.843  27.037  1.00  0.00    -0.352 N 
ATOM     70  C   UNL A   1      40.015  24.378  27.617  1.00  0.00     0.251 C 
ATOM     71  H   UNL A   1      38.921  22.864  26.940  1.00  0.00     0.163 HD
ATOM     72  O   UNL A   1      41.045  23.707  27.500  1.00  0.00    -0.269 OA
BRANCH  70  73
ATOM     73  C   UNL A   1      40.117  25.649  28.408  1.00  0.00     0.039 A 
ATOM     74  C   UNL A   1      41.343  26.348  28.389  1.00  0.00    -0.049 A 
ATOM     75  C   UNL A   1      39.143  26.111  29.285  1.00  0.00    -0.049 A 
ATOM     76  C   UNL A   1      41.575  27.471  29.208  1.00  0.00    -0.053 A 
ATOM     77  H   UNL A   1      42.092  26.028  27.755  1.00  0.00     0.063 H 
ATOM     78  C   UNL A   1      39.397  27.182  30.173  1.00  0.00    -0.053 A 
ATOM     79  H   UNL A   1      38.215  25.662  29.290  1.00  0.00     0.063 H 
ATOM     80  C   UNL A   1      40.597  27.905  30.108  1.00  0.00    -0.014 A 
ATOM     81  H   UNL A   1      42.473  27.976  29.143  1.00  0.00     0.063 H 
ATOM     82  H   UNL A   1      38.688  27.436  30.880  1.00  0.00     0.063 H 
BRANCH  80  83
ATOM     83  C   UNL A   1      40.653  29.316  30.627  1.00  0.00     0.031 A 
ATOM     84  C   UNL A   1      39.484  30.153  30.005  1.00  0.00     0.074 A 
ATOM     85  C   UNL A   1      41.644  29.706  31.504  1.00  0.00     0.049 A 
ATOM     86  N   UNL A   1      39.316  31.439  29.922  1.00  0.00    -0.248 NA
ATOM     87  C   UNL A   1      38.339  29.448  29.352  1.00  0.00    -0.034 C 
ATOM     88  C   UNL A   1      42.661  28.807  32.093  1.00  0.00    -0.036 A 
ATOM     89  N   UNL A   1      42.009  30.921  32.087  1.00  0.00    -0.354 N 
ATOM     90  C   UNL A   1      38.003  31.673  29.436  1.00  0.00     0.074 A 
ATOM     91  C   UNL A   1      37.491  30.415  29.012  1.00  0.00    -0.034 C 
ATOM     92  H   UNL A   1      38.230  28.434  29.198  1.00  0.00     0.065 H 
ATOM     93  C   UNL A   1      43.555  29.495  32.847  1.00  0.00    -0.036 A 
ATOM     94  H   UNL A   1      42.688  27.785  31.948  1.00  0.00     0.065 H 
ATOM     95  C   UNL A   1      43.218  30.908  32.859  1.00  0.00     0.049 A 
ATOM     96  H   UNL A   1      41.471  31.738  31.973  1.00  0.00     0.167 HD
ATOM     97  C   UNL A   1      37.358  32.870  29.548  1.00  0.00     0.037 A 
ATOM     98  H   UNL A   1      36.596  30.274  28.516  1.00  0.00     0.065 H 
ATOM     99  H   UNL A   1      44.360  29.076  33.339  1.00  0.00     0.065 H 
ATOM    100  C   UNL A   1      43.906  31.955  33.441  1.00  0.00     0.037 A 
ATOM    101  C   UNL A   1      38.262  33.851  30.027  1.00  0.00     0.049 A 
ATOM    102  C   UNL A   1      42.998  33.097  33.337  1.00  0.00     0.074 A 
ATOM    103  C   UNL A   1      39.359  34.437  29.456  1.00  0.00    -0.036 A 
ATOM    104  N   UNL A   1      38.282  34.054  31.382  1.00  0.00    -0.354 N 
ATOM    105  N   UNL A   1      41.964  33.271  34.102  1.00  0.00    -0.248 NA
ATOM    106  C   UNL A   1      43.249  34.119  32.314  1.00  0.00    -0.034 C 
ATOM    107  C   UNL A   1      40.255  34.535  30.536  1.00  0.00    -0.036 A 
ATOM    108  H   UNL A   1      39.495  34.735  28.478  1.00  0.00     0.065 H 
ATOM    109  C   UNL A   1      39.588  34.250  31.733  1.00  0.00     0.049 A 
ATOM    110  H   UNL A   1      37.505  34.057  31.986  1.00  0.00     0.167 HD
ATOM    111  C   UNL A   1      41.265  34.217  33.402  1.00  0.00     0.074 A 
ATOM    112  C   UNL A   1      42.219  34.920  32.574  1.00  0.00    -0.034 C 
ATOM    113  H   UNL A   1      43.998  34.193  31.608  1.00  0.00     0.065 H 
ATOM    114  H   UNL A   1      41.254  34.781  30.458  1.00  0.00     0.065 H 
ATOM    115  C   UNL A   1      39.974  33.953  33.086  1.00  0.00     0.037 A 
ATOM    116  H   UNL A   1      42.118  35.891  32.237  1.00  0.00     0.065 H 
BRANCH  97 117
ATOM    117  C   UNL A   1      35.897  33.238  29.532  1.00  0.00     0.064 A 
ATOM    118  C   UNL A   1      35.371  33.790  28.334  1.00  0.00     0.173 A 
ATOM    119  C   UNL A   1      35.151  33.468  30.695  1.00  0.00     0.173 A 
ATOM    120  F   UNL A   1      35.976  33.579  27.154  1.00  0.00    -0.203 F 
ATOM    121  C   UNL A   1      34.288  34.665  28.338  1.00  0.00     0.198 A 
ATOM    122  C   UNL A   1      34.027  34.300  30.682  1.00  0.00     0.198 A 
ATOM    123  F   UNL A   1      35.543  32.992  31.882  1.00  0.00    -0.203 F 
ATOM    124  F   UNL A   1      33.941  35.305  27.211  1.00  0.00    -0.200 F 
ATOM    125  C   UNL A   1      33.630  34.939  29.520  1.00  0.00     0.200 A 
ATOM    126  F   UNL A   1      33.382  34.552  31.830  1.00  0.00    -0.200 F 
ATOM    127  F   UNL A   1      32.644  35.845  29.548  1.00  0.00    -0.200 F 
ENDBRANCH  97 117
BRANCH 100 128
ATOM    128  C   UNL A   1      45.235  32.302  34.123  1.00  0.00     0.064 A 
ATOM    129  C   UNL A   1      45.414  32.658  35.462  1.00  0.00     0.173 A 
ATOM    130  C   UNL A   1      46.471  32.179  33.401  1.00  0.00     0.173 A 
ATOM    131  F   UNL A   1      44.365  32.939  36.241  1.00  0.00    -0.203 F 
ATOM    132  C   UNL A   1      46.702  32.753  36.048  1.00  0.00     0.198 A 
ATOM    133  C   UNL A   1      47.736  32.205  33.990  1.00  0.00     0.198 A 
ATOM    134  F   UNL A   1      46.507  32.028  32.071  1.00  0.00    -0.203 F 
ATOM    135  F   UNL A   1      46.823  33.101  37.337  1.00  0.00    -0.200 F 
ATOM    136  C   UNL A   1      47.853  32.476  35.326  1.00  0.00     0.200 A 
ATOM    137  F   UNL A   1      48.824  31.947  33.247  1.00  0.00    -0.200 F 
ATOM    138  F   UNL A   1      49.061  32.486  35.907  1.00  0.00    -0.200 F 
ENDBRANCH 100 128
BRANCH 115 139
ATOM    139  C   UNL A   1      39.284  33.006  34.051  1.00  0.00     0.064 A 
ATOM    140  C   UNL A   1      39.114  33.389  35.392  1.00  0.00     0.173 A 
ATOM    141  C   UNL A   1      38.908  31.688  33.736  1.00  0.00     0.173 A 
ATOM    142  F   UNL A   1      39.427  34.637  35.774  1.00  0.00    -0.203 F 
ATOM    143  C   UNL A   1      38.626  32.503  36.356  1.00  0.00     0.198 A 
ATOM    144  C   UNL A   1      38.417  30.800  34.699  1.00  0.00     0.198 A 
ATOM    145  F   UNL A   1      39.009  31.230  32.490  1.00  0.00    -0.203 F 
ATOM    146  F   UNL A   1      38.486  32.911  37.626  1.00  0.00    -0.200 F 
ATOM    147  C   UNL A   1      38.282  31.207  36.011  1.00  0.00     0.200 A 
ATOM    148  F   UNL A   1      38.069  29.552  34.346  1.00  0.00    -0.200 F 
ATOM    149  F   UNL A   1      37.806  30.361  36.935  1.00  0.00    -0.200 F 
ENDBRANCH 115 139
ENDBRANCH  80  83
ENDBRANCH  70  73
ENDBRANCH  66  69
ENDBRANCH  63  66
ENDBRANCH  60  63
ENDBRANCH  57  60
ENDBRANCH  54  57
ENDBRANCH   1  54
TORSDOF 21
ENDMDL
MODEL 4
REMARK VINA RESULT:     -12.0      3.942      9.380
REMARK SMILES CN(C)S(=O)(=O)c1ccc(-n2c(CCC(=O)NCCCCCCNC(=O)c3ccc(-c4c5nc(c(-c6c(F)c(F)c(F)c(F)c6F)c6ccc([nH]6)c(-c6c(F)c(F)c(F)c(F)c6F)c6nc(c(-c7c(F)c(F)c(F)c(F)c7F)c7ccc4[nH]7)C=C6)C=C5)cc3)ccc2-c2ccc(F)cc2)cc1
REMARK SMILES IDX 18 1 17 4 15 5 16 6 14 8 13 11 12 14 11 15 92 16 90 17 91 18
REMARK SMILES IDX 10 21 7 22 8 23 101 24 9 25 100 27 4 31 5 32 6 33 2 34 1 35
REMARK SMILES IDX 3 39 93 43 94 44 99 45 95 46 98 48 96 50 97 53 19 54 20 57
REMARK SMILES IDX 21 60 22 63 23 66 24 69 25 70 26 72 27 73 28 74 89 75 29 76
REMARK SMILES IDX 88 78 30 80 31 83 32 84 82 85 33 86 87 87 81 88 83 89 34 90
REMARK SMILES IDX 86 91 80 93 79 95 35 97 67 100 47 101 66 102 48 103 51 104
REMARK SMILES IDX 65 105 84 106 49 107 50 109 64 111 85 112 52 115 36 117
REMARK SMILES IDX 37 118 45 119 38 120 39 121 43 122 46 123 40 124 41 125
REMARK SMILES IDX 44 126 42 127 68 128 69 129 77 130 70 131 71 132 75 133
REMARK SMILES IDX 78 134 72 135 73 136 76 137 74 138 53 139 54 140 62 141
REMARK SMILES IDX 55 142 56 143 60 144 63 145 57 146 58 147 61 148 59 149
REMARK H PARENT 18 2 18 3 17 7 14 9 14 10 13 12 13 13 90 19 91 20 8 26 101 28
REMARK H PARENT 9 29 100 30 1 36 1 37 1 38 3 40 3 41 3 42 94 47 99 49 95 51
REMARK H PARENT 98 52 19 55 19 56 20 58 20 59 21 61 21 62 22 64 22 65 23 67
REMARK H PARENT 23 68 24 71 28 77 89 79 29 81 88 82 87 92 81 94 83 96 86 98
REMARK H PARENT 80 99 48 108 51 110 84 113 49 114 85 116
REMARK Flexibility Score: inf
ROOT
ATOM      1  C   UNL A   1      32.506  20.678  25.170  1.00  0.00     0.017 C 
ATOM      2  H   UNL A   1      31.683  20.451  25.815  1.00  0.00     0.049 H 
ATOM      3  H   UNL A   1      32.751  21.719  25.193  1.00  0.00     0.049 H 
ENDROOT
BRANCH   1   4
ATOM      4  N   UNL A   1      32.132  20.344  23.802  1.00  0.00    -0.356 N 
ATOM      5  C   UNL A   1      32.192  21.084  22.658  1.00  0.00     0.220 C 
ATOM      6  O   UNL A   1      31.865  20.538  21.600  1.00  0.00    -0.275 OA
ATOM      7  H   UNL A   1      31.776  19.434  23.685  1.00  0.00     0.163 HD
BRANCH   5   8
ATOM      8  C   UNL A   1      32.619  22.542  22.663  1.00  0.00     0.032 C 
ATOM      9  H   UNL A   1      33.549  22.609  23.187  1.00  0.00     0.037 H 
ATOM     10  H   UNL A   1      32.673  22.829  21.634  1.00  0.00     0.037 H 
BRANCH   8  11
ATOM     11  C   UNL A   1      31.637  23.533  23.317  1.00  0.00    -0.003 C 
ATOM     12  H   UNL A   1      31.126  24.059  22.538  1.00  0.00     0.034 H 
ATOM     13  H   UNL A   1      30.981  22.950  23.929  1.00  0.00     0.034 H 
BRANCH  11  14
ATOM     14  C   UNL A   1      32.284  24.550  24.228  1.00  0.00     0.024 A 
ATOM     15  N   UNL A   1      32.092  25.953  24.267  1.00  0.00    -0.314 N 
ATOM     16  C   UNL A   1      32.957  26.450  25.292  1.00  0.00     0.053 A 
ATOM     17  C   UNL A   1      33.253  24.219  25.162  1.00  0.00    -0.040 A 
ATOM     18  C   UNL A   1      33.671  25.386  25.813  1.00  0.00    -0.036 A 
ATOM     19  H   UNL A   1      33.607  23.268  25.348  1.00  0.00     0.064 H 
ATOM     20  H   UNL A   1      34.390  25.442  26.551  1.00  0.00     0.065 H 
BRANCH  15  21
ATOM     21  C   UNL A   1      31.080  26.747  23.577  1.00  0.00     0.046 A 
ATOM     22  C   UNL A   1      29.242  28.720  22.732  1.00  0.00     0.082 A 
ATOM     23  C   UNL A   1      30.566  28.775  22.319  1.00  0.00    -0.040 A 
ATOM     24  C   UNL A   1      28.806  27.650  23.497  1.00  0.00    -0.040 A 
ATOM     25  C   UNL A   1      31.441  27.744  22.664  1.00  0.00    -0.037 A 
ATOM     26  H   UNL A   1      30.902  29.575  21.761  1.00  0.00     0.064 H 
ATOM     27  C   UNL A   1      29.725  26.679  23.907  1.00  0.00    -0.037 A 
ATOM     28  H   UNL A   1      27.813  27.571  23.761  1.00  0.00     0.064 H 
ATOM     29  H   UNL A   1      32.378  27.715  22.234  1.00  0.00     0.065 H 
ATOM     30  H   UNL A   1      29.390  25.885  24.474  1.00  0.00     0.065 H 
BRANCH  22  31
ATOM     31  S   UNL A   1      28.122  30.015  22.294  1.00  0.00     0.242 S 
ATOM     32  O   UNL A   1      26.965  29.915  23.153  1.00  0.00    -0.207 OA
ATOM     33  O   UNL A   1      27.979  30.005  20.850  1.00  0.00    -0.207 OA
BRANCH  31  34
ATOM     34  N   UNL A   1      29.004  31.416  22.726  1.00  0.00    -0.204 NA
BRANCH  34  35
ATOM     35  C   UNL A   1      28.491  32.645  22.090  1.00  0.00     0.002 C 
ATOM     36  H   UNL A   1      27.421  32.628  22.093  1.00  0.00     0.041 H 
ATOM     37  H   UNL A   1      28.844  32.700  21.082  1.00  0.00     0.041 H 
ATOM     38  H   UNL A   1      28.834  33.499  22.636  1.00  0.00     0.041 H 
ENDBRANCH  34  35
BRANCH  34  39
ATOM     39  C   UNL A   1      29.249  31.599  24.174  1.00  0.00     0.002 C 
ATOM     40  H   UNL A   1      28.327  31.830  24.666  1.00  0.00     0.041 H 
ATOM     41  H   UNL A   1      29.942  32.401  24.321  1.00  0.00     0.041 H 
ATOM     42  H   UNL A   1      29.655  30.697  24.583  1.00  0.00     0.041 H 
ENDBRANCH  34  39
ENDBRANCH  31  34
ENDBRANCH  22  31
ENDBRANCH  15  21
BRANCH  16  43
ATOM     43  C   UNL A   1      32.908  27.799  25.884  1.00  0.00    -0.001 A 
ATOM     44  C   UNL A   1      31.790  28.295  26.559  1.00  0.00    -0.050 A 
ATOM     45  C   UNL A   1      34.069  28.581  25.864  1.00  0.00    -0.050 A 
ATOM     46  C   UNL A   1      31.893  29.497  27.278  1.00  0.00    -0.026 A 
ATOM     47  H   UNL A   1      30.895  27.782  26.529  1.00  0.00     0.063 H 
ATOM     48  C   UNL A   1      34.185  29.769  26.578  1.00  0.00    -0.026 A 
ATOM     49  H   UNL A   1      34.871  28.263  25.297  1.00  0.00     0.063 H 
ATOM     50  C   UNL A   1      33.092  30.211  27.298  1.00  0.00     0.123 A 
ATOM     51  H   UNL A   1      31.075  29.855  27.797  1.00  0.00     0.065 H 
ATOM     52  H   UNL A   1      35.066  30.307  26.570  1.00  0.00     0.065 H 
ATOM     53  F   UNL A   1      33.166  31.377  27.951  1.00  0.00    -0.207 F 
ENDBRANCH  16  43
ENDBRANCH  11  14
ENDBRANCH   8  11
ENDBRANCH   5   8
ENDBRANCH   1   4
BRANCH   1  54
ATOM     54  C   UNL A   1      33.733  19.905  25.653  1.00  0.00    -0.036 C 
ATOM     55  H   UNL A   1      33.416  18.909  25.888  1.00  0.00     0.028 H 
ATOM     56  H   UNL A   1      34.108  20.465  26.484  1.00  0.00     0.028 H 
BRANCH  54  57
ATOM     57  C   UNL A   1      34.914  19.797  24.679  1.00  0.00    -0.052 C 
ATOM     58  H   UNL A   1      34.560  20.126  23.725  1.00  0.00     0.027 H 
ATOM     59  H   UNL A   1      35.212  18.773  24.765  1.00  0.00     0.027 H 
BRANCH  57  60
ATOM     60  C   UNL A   1      36.229  20.578  24.964  1.00  0.00    -0.052 C 
ATOM     61  H   UNL A   1      36.093  21.043  25.917  1.00  0.00     0.027 H 
ATOM     62  H   UNL A   1      36.316  21.176  24.081  1.00  0.00     0.027 H 
BRANCH  60  63
ATOM     63  C   UNL A   1      37.621  19.901  25.016  1.00  0.00    -0.036 C 
ATOM     64  H   UNL A   1      37.932  19.762  24.002  1.00  0.00     0.028 H 
ATOM     65  H   UNL A   1      37.439  19.030  25.610  1.00  0.00     0.028 H 
BRANCH  63  66
ATOM     66  C   UNL A   1      38.810  20.581  25.756  1.00  0.00     0.018 C 
ATOM     67  H   UNL A   1      38.450  20.966  26.687  1.00  0.00     0.049 H 
ATOM     68  H   UNL A   1      39.179  21.349  25.108  1.00  0.00     0.049 H 
BRANCH  66  69
ATOM     69  N   UNL A   1      39.928  19.684  26.032  1.00  0.00    -0.352 N 
ATOM     70  C   UNL A   1      41.296  19.862  26.117  1.00  0.00     0.251 C 
ATOM     71  H   UNL A   1      39.649  18.754  26.191  1.00  0.00     0.163 HD
ATOM     72  O   UNL A   1      41.982  18.857  25.906  1.00  0.00    -0.269 OA
BRANCH  70  73
ATOM     73  C   UNL A   1      42.027  21.121  26.484  1.00  0.00     0.039 A 
ATOM     74  C   UNL A   1      42.616  21.874  25.446  1.00  0.00    -0.049 A 
ATOM     75  C   UNL A   1      42.301  21.521  27.786  1.00  0.00    -0.049 A 
ATOM     76  C   UNL A   1      43.436  22.989  25.707  1.00  0.00    -0.053 A 
ATOM     77  H   UNL A   1      42.440  21.600  24.467  1.00  0.00     0.063 H 
ATOM     78  C   UNL A   1      43.192  22.584  28.059  1.00  0.00    -0.053 A 
ATOM     79  H   UNL A   1      41.845  21.031  28.571  1.00  0.00     0.063 H 
ATOM     80  C   UNL A   1      43.729  23.361  27.023  1.00  0.00    -0.014 A 
ATOM     81  H   UNL A   1      43.825  23.535  24.921  1.00  0.00     0.063 H 
ATOM     82  H   UNL A   1      43.451  22.792  29.037  1.00  0.00     0.063 H 
BRANCH  80  83
ATOM     83  C   UNL A   1      44.200  24.763  27.301  1.00  0.00     0.031 A 
ATOM     84  C   UNL A   1      42.964  25.712  27.462  1.00  0.00     0.074 A 
ATOM     85  C   UNL A   1      45.547  25.055  27.364  1.00  0.00     0.049 A 
ATOM     86  N   UNL A   1      42.880  27.008  27.410  1.00  0.00    -0.248 NA
ATOM     87  C   UNL A   1      41.609  25.125  27.692  1.00  0.00    -0.034 C 
ATOM     88  C   UNL A   1      46.638  24.059  27.273  1.00  0.00    -0.036 A 
ATOM     89  N   UNL A   1      46.285  26.230  27.518  1.00  0.00    -0.354 N 
ATOM     90  C   UNL A   1      41.568  27.373  27.808  1.00  0.00     0.074 A 
ATOM     91  C   UNL A   1      40.808  26.172  27.872  1.00  0.00    -0.034 C 
ATOM     92  H   UNL A   1      41.350  24.126  27.707  1.00  0.00     0.065 H 
ATOM     93  C   UNL A   1      47.857  24.657  27.277  1.00  0.00    -0.036 A 
ATOM     94  H   UNL A   1      46.492  23.039  27.214  1.00  0.00     0.065 H 
ATOM     95  C   UNL A   1      47.708  26.097  27.395  1.00  0.00     0.049 A 
ATOM     96  H   UNL A   1      45.855  27.097  27.699  1.00  0.00     0.167 HD
ATOM     97  C   UNL A   1      41.223  28.631  28.206  1.00  0.00     0.037 A 
ATOM     98  H   UNL A   1      39.790  26.120  28.034  1.00  0.00     0.065 H 
ATOM     99  H   UNL A   1      48.758  24.160  27.207  1.00  0.00     0.065 H 
ATOM    100  C   UNL A   1      48.687  27.071  27.363  1.00  0.00     0.037 A 
ATOM    101  C   UNL A   1      42.302  29.517  27.966  1.00  0.00     0.049 A 
ATOM    102  C   UNL A   1      47.997  28.301  27.754  1.00  0.00     0.074 A 
ATOM    103  C   UNL A   1      42.862  29.982  26.807  1.00  0.00    -0.036 A 
ATOM    104  N   UNL A   1      43.163  29.727  29.011  1.00  0.00    -0.354 N 
ATOM    105  N   UNL A   1      47.666  28.586  28.976  1.00  0.00    -0.248 NA
ATOM    106  C   UNL A   1      47.647  29.283  26.722  1.00  0.00    -0.034 C 
ATOM    107  C   UNL A   1      44.235  29.995  27.108  1.00  0.00    -0.036 A 
ATOM    108  H   UNL A   1      42.392  30.256  25.930  1.00  0.00     0.065 H 
ATOM    109  C   UNL A   1      44.421  29.789  28.480  1.00  0.00     0.049 A 
ATOM    110  H   UNL A   1      42.922  29.815  29.961  1.00  0.00     0.167 HD
ATOM    111  C   UNL A   1      46.760  29.595  28.783  1.00  0.00     0.074 A 
ATOM    112  C   UNL A   1      47.058  30.189  27.498  1.00  0.00    -0.034 C 
ATOM    113  H   UNL A   1      47.810  29.274  25.702  1.00  0.00     0.065 H 
ATOM    114  H   UNL A   1      44.993  30.135  26.422  1.00  0.00     0.065 H 
ATOM    115  C   UNL A   1      45.530  29.464  29.336  1.00  0.00     0.037 A 
ATOM    116  H   UNL A   1      46.847  31.162  27.226  1.00  0.00     0.065 H 
BRANCH  97 117
ATOM    117  C   UNL A   1      40.091  29.149  29.056  1.00  0.00     0.064 A 
ATOM    118  C   UNL A   1      40.103  28.822  30.437  1.00  0.00     0.173 A 
ATOM    119  C   UNL A   1      38.856  29.548  28.528  1.00  0.00     0.173 A 
ATOM    120  F   UNL A   1      41.245  28.484  31.056  1.00  0.00    -0.203 F 
ATOM    121  C   UNL A   1      38.929  28.717  31.181  1.00  0.00     0.198 A 
ATOM    122  C   UNL A   1      37.689  29.498  29.297  1.00  0.00     0.198 A 
ATOM    123  F   UNL A   1      38.723  29.886  27.241  1.00  0.00    -0.203 F 
ATOM    124  F   UNL A   1      38.971  28.227  32.429  1.00  0.00    -0.200 F 
ATOM    125  C   UNL A   1      37.718  29.033  30.601  1.00  0.00     0.200 A 
ATOM    126  F   UNL A   1      36.516  29.820  28.735  1.00  0.00    -0.200 F 
ATOM    127  F   UNL A   1      36.578  28.852  31.281  1.00  0.00    -0.200 F 
ENDBRANCH  97 117
BRANCH 100 128
ATOM    128  C   UNL A   1      50.177  27.283  27.070  1.00  0.00     0.064 A 
ATOM    129  C   UNL A   1      51.209  27.348  28.010  1.00  0.00     0.173 A 
ATOM    130  C   UNL A   1      50.645  27.336  25.713  1.00  0.00     0.173 A 
ATOM    131  F   UNL A   1      50.939  27.441  29.316  1.00  0.00    -0.203 F 
ATOM    132  C   UNL A   1      52.574  27.335  27.628  1.00  0.00     0.198 A 
ATOM    133  C   UNL A   1      51.987  27.254  25.337  1.00  0.00     0.198 A 
ATOM    134  F   UNL A   1      49.810  27.473  24.675  1.00  0.00    -0.203 F 
ATOM    135  F   UNL A   1      53.528  27.401  28.568  1.00  0.00    -0.200 F 
ATOM    136  C   UNL A   1      52.958  27.235  26.300  1.00  0.00     0.200 A 
ATOM    137  F   UNL A   1      52.312  27.177  24.036  1.00  0.00    -0.200 F 
ATOM    138  F   UNL A   1      54.249  27.138  25.951  1.00  0.00    -0.200 F 
ENDBRANCH 100 128
BRANCH 115 139
ATOM    139  C   UNL A   1      45.505  28.601  30.584  1.00  0.00     0.064 A 
ATOM    140  C   UNL A   1      44.823  27.372  30.560  1.00  0.00     0.173 A 
ATOM    141  C   UNL A   1      46.008  28.999  31.835  1.00  0.00     0.173 A 
ATOM    142  F   UNL A   1      44.330  26.906  29.402  1.00  0.00    -0.203 F 
ATOM    143  C   UNL A   1      44.636  26.609  31.715  1.00  0.00     0.198 A 
ATOM    144  C   UNL A   1      45.825  28.236  32.993  1.00  0.00     0.198 A 
ATOM    145  F   UNL A   1      46.688  30.136  31.965  1.00  0.00    -0.203 F 
ATOM    146  F   UNL A   1      43.974  25.445  31.646  1.00  0.00    -0.200 F 
ATOM    147  C   UNL A   1      45.132  27.042  32.933  1.00  0.00     0.200 A 
ATOM    148  F   UNL A   1      46.329  28.659  34.163  1.00  0.00    -0.200 F 
ATOM    149  F   UNL A   1      44.960  26.305  34.039  1.00  0.00    -0.200 F 
ENDBRANCH 115 139
ENDBRANCH  80  83
ENDBRANCH  70  73
ENDBRANCH  66  69
ENDBRANCH  63  66
ENDBRANCH  60  63
ENDBRANCH  57  60
ENDBRANCH  54  57
ENDBRANCH   1  54
TORSDOF 21
ENDMDL
MODEL 5
REMARK VINA RESULT:     -11.7      2.892      5.495
REMARK SMILES CN(C)S(=O)(=O)c1ccc(-n2c(CCC(=O)NCCCCCCNC(=O)c3ccc(-c4c5nc(c(-c6c(F)c(F)c(F)c(F)c6F)c6ccc([nH]6)c(-c6c(F)c(F)c(F)c(F)c6F)c6nc(c(-c7c(F)c(F)c(F)c(F)c7F)c7ccc4[nH]7)C=C6)C=C5)cc3)ccc2-c2ccc(F)cc2)cc1
REMARK SMILES IDX 18 1 17 4 15 5 16 6 14 8 13 11 12 14 11 15 92 16 90 17 91 18
REMARK SMILES IDX 10 21 7 22 8 23 101 24 9 25 100 27 4 31 5 32 6 33 2 34 1 35
REMARK SMILES IDX 3 39 93 43 94 44 99 45 95 46 98 48 96 50 97 53 19 54 20 57
REMARK SMILES IDX 21 60 22 63 23 66 24 69 25 70 26 72 27 73 28 74 89 75 29 76
REMARK SMILES IDX 88 78 30 80 31 83 32 84 82 85 33 86 87 87 81 88 83 89 34 90
REMARK SMILES IDX 86 91 80 93 79 95 35 97 67 100 47 101 66 102 48 103 51 104
REMARK SMILES IDX 65 105 84 106 49 107 50 109 64 111 85 112 52 115 36 117
REMARK SMILES IDX 37 118 45 119 38 120 39 121 43 122 46 123 40 124 41 125
REMARK SMILES IDX 44 126 42 127 68 128 69 129 77 130 70 131 71 132 75 133
REMARK SMILES IDX 78 134 72 135 73 136 76 137 74 138 53 139 54 140 62 141
REMARK SMILES IDX 55 142 56 143 60 144 63 145 57 146 58 147 61 148 59 149
REMARK H PARENT 18 2 18 3 17 7 14 9 14 10 13 12 13 13 90 19 91 20 8 26 101 28
REMARK H PARENT 9 29 100 30 1 36 1 37 1 38 3 40 3 41 3 42 94 47 99 49 95 51
REMARK H PARENT 98 52 19 55 19 56 20 58 20 59 21 61 21 62 22 64 22 65 23 67
REMARK H PARENT 23 68 24 71 28 77 89 79 29 81 88 82 87 92 81 94 83 96 86 98
REMARK H PARENT 80 99 48 108 51 110 84 113 49 114 85 116
REMARK Flexibility Score: inf
ROOT
ATOM      1  C   UNL A   1      33.543  20.387  25.586  1.00  0.00     0.017 C 
ATOM      2  H   UNL A   1      33.683  19.385  25.936  1.00  0.00     0.049 H 
ATOM      3  H   UNL A   1      32.823  20.915  26.175  1.00  0.00     0.049 H 
ENDROOT
BRANCH   1   4
ATOM      4  N   UNL A   1      33.043  20.338  24.219  1.00  0.00    -0.356 N 
ATOM      5  C   UNL A   1      32.280  21.227  23.520  1.00  0.00     0.220 C 
ATOM      6  O   UNL A   1      32.040  20.973  22.335  1.00  0.00    -0.275 OA
ATOM      7  H   UNL A   1      33.296  19.530  23.718  1.00  0.00     0.163 HD
BRANCH   5   8
ATOM      8  C   UNL A   1      31.712  22.481  24.161  1.00  0.00     0.032 C 
ATOM      9  H   UNL A   1      30.650  22.369  24.215  1.00  0.00     0.037 H 
ATOM     10  H   UNL A   1      32.194  22.561  25.113  1.00  0.00     0.037 H 
BRANCH   8  11
ATOM     11  C   UNL A   1      32.009  23.806  23.434  1.00  0.00    -0.003 C 
ATOM     12  H   UNL A   1      32.688  23.603  22.633  1.00  0.00     0.034 H 
ATOM     13  H   UNL A   1      31.067  24.187  23.100  1.00  0.00     0.034 H 
BRANCH  11  14
ATOM     14  C   UNL A   1      32.619  24.879  24.307  1.00  0.00     0.024 A 
ATOM     15  N   UNL A   1      32.366  26.272  24.306  1.00  0.00    -0.314 N 
ATOM     16  C   UNL A   1      33.219  26.837  25.306  1.00  0.00     0.053 A 
ATOM     17  C   UNL A   1      33.612  24.619  25.239  1.00  0.00    -0.040 A 
ATOM     18  C   UNL A   1      33.985  25.822  25.850  1.00  0.00    -0.036 A 
ATOM     19  H   UNL A   1      34.010  23.691  25.450  1.00  0.00     0.064 H 
ATOM     20  H   UNL A   1      34.707  25.933  26.578  1.00  0.00     0.065 H 
BRANCH  15  21
ATOM     21  C   UNL A   1      31.313  26.999  23.605  1.00  0.00     0.046 A 
ATOM     22  C   UNL A   1      29.353  28.844  22.745  1.00  0.00     0.082 A 
ATOM     23  C   UNL A   1      30.677  29.002  22.361  1.00  0.00    -0.040 A 
ATOM     24  C   UNL A   1      28.981  27.735  23.486  1.00  0.00    -0.040 A 
ATOM     25  C   UNL A   1      31.618  28.034  22.712  1.00  0.00    -0.037 A 
ATOM     26  H   UNL A   1      30.965  29.833  21.821  1.00  0.00     0.064 H 
ATOM     27  C   UNL A   1      29.960  26.828  23.904  1.00  0.00    -0.037 A 
ATOM     28  H   UNL A   1      27.991  27.579  23.727  1.00  0.00     0.064 H 
ATOM     29  H   UNL A   1      32.564  28.080  22.302  1.00  0.00     0.065 H 
ATOM     30  H   UNL A   1      29.673  26.003  24.454  1.00  0.00     0.065 H 
BRANCH  22  31
ATOM     31  S   UNL A   1      28.150  30.060  22.298  1.00  0.00     0.242 S 
ATOM     32  O   UNL A   1      27.032  29.936  23.205  1.00  0.00    -0.207 OA
ATOM     33  O   UNL A   1      27.954  29.981  20.863  1.00  0.00    -0.207 OA
BRANCH  31  34
ATOM     34  N   UNL A   1      28.971  31.522  22.638  1.00  0.00    -0.204 NA
BRANCH  34  35
ATOM     35  C   UNL A   1      28.399  32.686  21.936  1.00  0.00     0.002 C 
ATOM     36  H   UNL A   1      27.422  32.441  21.575  1.00  0.00     0.041 H 
ATOM     37  H   UNL A   1      29.027  32.952  21.113  1.00  0.00     0.041 H 
ATOM     38  H   UNL A   1      28.330  33.512  22.614  1.00  0.00     0.041 H 
ENDBRANCH  34  35
BRANCH  34  39
ATOM     39  C   UNL A   1      29.218  31.801  24.071  1.00  0.00     0.002 C 
ATOM     40  H   UNL A   1      30.206  32.192  24.194  1.00  0.00     0.041 H 
ATOM     41  H   UNL A   1      29.122  30.894  24.632  1.00  0.00     0.041 H 
ATOM     42  H   UNL A   1      28.504  32.516  24.423  1.00  0.00     0.041 H 
ENDBRANCH  34  39
ENDBRANCH  31  34
ENDBRANCH  22  31
ENDBRANCH  15  21
BRANCH  16  43
ATOM     43  C   UNL A   1      33.116  28.201  25.857  1.00  0.00    -0.001 A 
ATOM     44  C   UNL A   1      31.896  28.814  26.151  1.00  0.00    -0.050 A 
ATOM     45  C   UNL A   1      34.293  28.873  26.204  1.00  0.00    -0.050 A 
ATOM     46  C   UNL A   1      31.882  30.020  26.871  1.00  0.00    -0.026 A 
ATOM     47  H   UNL A   1      31.010  28.384  25.841  1.00  0.00     0.063 H 
ATOM     48  C   UNL A   1      34.293  30.064  26.924  1.00  0.00    -0.026 A 
ATOM     49  H   UNL A   1      35.199  28.469  25.915  1.00  0.00     0.063 H 
ATOM     50  C   UNL A   1      33.078  30.622  27.268  1.00  0.00     0.123 A 
ATOM     51  H   UNL A   1      30.981  30.464  27.110  1.00  0.00     0.065 H 
ATOM     52  H   UNL A   1      35.180  30.519  27.193  1.00  0.00     0.065 H 
ATOM     53  F   UNL A   1      33.055  31.793  27.915  1.00  0.00    -0.207 F 
ENDBRANCH  16  43
ENDBRANCH  11  14
ENDBRANCH   8  11
ENDBRANCH   5   8
ENDBRANCH   1   4
BRANCH   1  54
ATOM     54  C   UNL A   1      34.871  21.134  25.703  1.00  0.00    -0.036 C 
ATOM     55  H   UNL A   1      35.579  20.468  26.153  1.00  0.00     0.028 H 
ATOM     56  H   UNL A   1      34.651  22.009  26.278  1.00  0.00     0.028 H 
BRANCH  54  57
ATOM     57  C   UNL A   1      35.492  21.658  24.401  1.00  0.00    -0.052 C 
ATOM     58  H   UNL A   1      34.955  22.545  24.138  1.00  0.00     0.027 H 
ATOM     59  H   UNL A   1      35.414  20.822  23.737  1.00  0.00     0.027 H 
BRANCH  57  60
ATOM     60  C   UNL A   1      37.004  22.016  24.351  1.00  0.00    -0.052 C 
ATOM     61  H   UNL A   1      37.077  23.031  24.680  1.00  0.00     0.027 H 
ATOM     62  H   UNL A   1      37.250  21.759  23.342  1.00  0.00     0.027 H 
BRANCH  60  63
ATOM     63  C   UNL A   1      38.085  21.235  25.139  1.00  0.00    -0.036 C 
ATOM     64  H   UNL A   1      38.699  20.745  24.413  1.00  0.00     0.028 H 
ATOM     65  H   UNL A   1      37.504  20.627  25.800  1.00  0.00     0.028 H 
BRANCH  63  66
ATOM     66  C   UNL A   1      39.051  21.974  26.111  1.00  0.00     0.018 C 
ATOM     67  H   UNL A   1      38.809  21.681  27.112  1.00  0.00     0.049 H 
ATOM     68  H   UNL A   1      38.914  23.023  25.946  1.00  0.00     0.049 H 
BRANCH  66  69
ATOM     69  N   UNL A   1      40.463  21.689  25.877  1.00  0.00    -0.352 N 
ATOM     70  C   UNL A   1      41.617  22.444  25.966  1.00  0.00     0.251 C 
ATOM     71  H   UNL A   1      40.629  20.761  25.594  1.00  0.00     0.163 HD
ATOM     72  O   UNL A   1      42.565  22.059  25.273  1.00  0.00    -0.269 OA
BRANCH  70  73
ATOM     73  C   UNL A   1      41.856  23.638  26.844  1.00  0.00     0.039 A 
ATOM     74  C   UNL A   1      42.346  24.817  26.243  1.00  0.00    -0.049 A 
ATOM     75  C   UNL A   1      41.778  23.623  28.231  1.00  0.00    -0.049 A 
ATOM     76  C   UNL A   1      42.729  25.938  27.005  1.00  0.00    -0.053 A 
ATOM     77  H   UNL A   1      42.424  24.860  25.215  1.00  0.00     0.063 H 
ATOM     78  C   UNL A   1      42.243  24.709  29.008  1.00  0.00    -0.053 A 
ATOM     79  H   UNL A   1      41.374  22.800  28.705  1.00  0.00     0.063 H 
ATOM     80  C   UNL A   1      42.675  25.897  28.402  1.00  0.00    -0.014 A 
ATOM     81  H   UNL A   1      43.053  26.795  26.529  1.00  0.00     0.063 H 
ATOM     82  H   UNL A   1      42.262  24.626  30.038  1.00  0.00     0.063 H 
BRANCH  80  83
ATOM     83  C   UNL A   1      42.641  27.190  29.173  1.00  0.00     0.031 A 
ATOM     84  C   UNL A   1      43.990  27.379  29.945  1.00  0.00     0.074 A 
ATOM     85  C   UNL A   1      41.523  27.998  29.144  1.00  0.00     0.049 A 
ATOM     86  N   UNL A   1      44.293  28.157  30.942  1.00  0.00    -0.248 NA
ATOM     87  C   UNL A   1      45.179  26.556  29.565  1.00  0.00    -0.034 C 
ATOM     88  C   UNL A   1      40.322  27.759  28.313  1.00  0.00    -0.036 A 
ATOM     89  N   UNL A   1      41.156  29.179  29.791  1.00  0.00    -0.354 N 
ATOM     90  C   UNL A   1      45.696  28.080  31.139  1.00  0.00     0.074 A 
ATOM     91  C   UNL A   1      46.168  27.008  30.331  1.00  0.00    -0.034 C 
ATOM     92  H   UNL A   1      45.223  25.801  28.862  1.00  0.00     0.065 H 
ATOM     93  C   UNL A   1      39.354  28.676  28.566  1.00  0.00    -0.036 A 
ATOM     94  H   UNL A   1      40.231  26.993  27.628  1.00  0.00     0.065 H 
ATOM     95  C   UNL A   1      39.812  29.627  29.564  1.00  0.00     0.049 A 
ATOM     96  H   UNL A   1      41.780  29.674  30.370  1.00  0.00     0.167 HD
ATOM     97  C   UNL A   1      46.410  29.002  31.848  1.00  0.00     0.037 A 
ATOM     98  H   UNL A   1      47.131  26.638  30.338  1.00  0.00     0.065 H 
ATOM     99  H   UNL A   1      38.426  28.695  28.115  1.00  0.00     0.065 H 
ATOM    100  C   UNL A   1      39.115  30.664  30.152  1.00  0.00     0.037 A 
ATOM    101  C   UNL A   1      45.520  29.895  32.494  1.00  0.00     0.049 A 
ATOM    102  C   UNL A   1      40.127  31.415  30.895  1.00  0.00     0.074 A 
ATOM    103  C   UNL A   1      44.634  29.716  33.522  1.00  0.00    -0.036 A 
ATOM    104  N   UNL A   1      45.225  31.053  31.825  1.00  0.00    -0.354 N 
ATOM    105  N   UNL A   1      40.980  32.220  30.342  1.00  0.00    -0.248 NA
ATOM    106  C   UNL A   1      40.202  31.263  32.353  1.00  0.00    -0.034 C 
ATOM    107  C   UNL A   1      43.538  30.503  33.126  1.00  0.00    -0.036 A 
ATOM    108  H   UNL A   1      44.744  29.147  34.376  1.00  0.00     0.065 H 
ATOM    109  C   UNL A   1      43.898  31.303  32.036  1.00  0.00     0.049 A 
ATOM    110  H   UNL A   1      45.848  31.599  31.294  1.00  0.00     0.167 HD
ATOM    111  C   UNL A   1      41.902  32.370  31.344  1.00  0.00     0.074 A 
ATOM    112  C   UNL A   1      41.222  32.085  32.588  1.00  0.00    -0.034 C 
ATOM    113  H   UNL A   1      39.636  30.692  33.000  1.00  0.00     0.065 H 
ATOM    114  H   UNL A   1      42.607  30.492  33.572  1.00  0.00     0.065 H 
ATOM    115  C   UNL A   1      43.200  32.101  31.063  1.00  0.00     0.037 A 
ATOM    116  H   UNL A   1      41.485  32.461  33.513  1.00  0.00     0.065 H 
BRANCH  97 117
ATOM    117  C   UNL A   1      47.868  29.383  31.830  1.00  0.00     0.064 A 
ATOM    118  C   UNL A   1      48.571  29.352  33.063  1.00  0.00     0.173 A 
ATOM    119  C   UNL A   1      48.448  30.148  30.810  1.00  0.00     0.173 A 
ATOM    120  F   UNL A   1      48.134  28.603  34.087  1.00  0.00    -0.203 F 
ATOM    121  C   UNL A   1      49.665  30.179  33.309  1.00  0.00     0.198 A 
ATOM    122  C   UNL A   1      49.583  30.930  31.046  1.00  0.00     0.198 A 
ATOM    123  F   UNL A   1      47.880  30.247  29.603  1.00  0.00    -0.203 F 
ATOM    124  F   UNL A   1      50.183  30.251  34.545  1.00  0.00    -0.200 F 
ATOM    125  C   UNL A   1      50.156  30.987  32.305  1.00  0.00     0.200 A 
ATOM    126  F   UNL A   1      50.065  31.703  30.063  1.00  0.00    -0.200 F 
ATOM    127  F   UNL A   1      51.151  31.848  32.558  1.00  0.00    -0.200 F 
ENDBRANCH  97 117
BRANCH 100 128
ATOM    128  C   UNL A   1      37.708  31.260  30.280  1.00  0.00     0.064 A 
ATOM    129  C   UNL A   1      36.912  31.275  31.428  1.00  0.00     0.173 A 
ATOM    130  C   UNL A   1      37.124  31.974  29.178  1.00  0.00     0.173 A 
ATOM    131  F   UNL A   1      37.247  30.552  32.501  1.00  0.00    -0.203 F 
ATOM    132  C   UNL A   1      35.717  32.035  31.504  1.00  0.00     0.198 A 
ATOM    133  C   UNL A   1      35.986  32.776  29.272  1.00  0.00     0.198 A 
ATOM    134  F   UNL A   1      37.637  31.922  27.943  1.00  0.00    -0.203 F 
ATOM    135  F   UNL A   1      34.986  32.015  32.627  1.00  0.00    -0.200 F 
ATOM    136  C   UNL A   1      35.287  32.823  30.447  1.00  0.00     0.200 A 
ATOM    137  F   UNL A   1      35.596  33.508  28.216  1.00  0.00    -0.200 F 
ATOM    138  F   UNL A   1      34.202  33.603  30.554  1.00  0.00    -0.200 F 
ENDBRANCH 100 128
BRANCH 115 139
ATOM    139  C   UNL A   1      43.571  32.304  29.606  1.00  0.00     0.064 A 
ATOM    140  C   UNL A   1      43.524  33.596  29.054  1.00  0.00     0.173 A 
ATOM    141  C   UNL A   1      43.837  31.260  28.702  1.00  0.00     0.173 A 
ATOM    142  F   UNL A   1      43.298  34.652  29.850  1.00  0.00    -0.203 F 
ATOM    143  C   UNL A   1      43.706  33.822  27.688  1.00  0.00     0.198 A 
ATOM    144  C   UNL A   1      44.021  31.483  27.334  1.00  0.00     0.198 A 
ATOM    145  F   UNL A   1      43.923  30.000  29.123  1.00  0.00    -0.203 F 
ATOM    146  F   UNL A   1      43.647  35.071  27.205  1.00  0.00    -0.200 F 
ATOM    147  C   UNL A   1      43.949  32.765  26.826  1.00  0.00     0.200 A 
ATOM    148  F   UNL A   1      44.276  30.452  26.513  1.00  0.00    -0.200 F 
ATOM    149  F   UNL A   1      44.132  32.984  25.516  1.00  0.00    -0.200 F 
ENDBRANCH 115 139
ENDBRANCH  80  83
ENDBRANCH  70  73
ENDBRANCH  66  69
ENDBRANCH  63  66
ENDBRANCH  60  63
ENDBRANCH  57  60
ENDBRANCH  54  57
ENDBRANCH   1  54
TORSDOF 21
ENDMDL
MODEL 6
REMARK VINA RESULT:     -11.3      5.545     11.153
REMARK SMILES CN(C)S(=O)(=O)c1ccc(-n2c(CCC(=O)NCCCCCCNC(=O)c3ccc(-c4c5nc(c(-c6c(F)c(F)c(F)c(F)c6F)c6ccc([nH]6)c(-c6c(F)c(F)c(F)c(F)c6F)c6nc(c(-c7c(F)c(F)c(F)c(F)c7F)c7ccc4[nH]7)C=C6)C=C5)cc3)ccc2-c2ccc(F)cc2)cc1
REMARK SMILES IDX 18 1 17 4 15 5 16 6 14 8 13 11 12 14 11 15 92 16 90 17 91 18
REMARK SMILES IDX 10 21 7 22 8 23 101 24 9 25 100 27 4 31 5 32 6 33 2 34 1 35
REMARK SMILES IDX 3 39 93 43 94 44 99 45 95 46 98 48 96 50 97 53 19 54 20 57
REMARK SMILES IDX 21 60 22 63 23 66 24 69 25 70 26 72 27 73 28 74 89 75 29 76
REMARK SMILES IDX 88 78 30 80 31 83 32 84 82 85 33 86 87 87 81 88 83 89 34 90
REMARK SMILES IDX 86 91 80 93 79 95 35 97 67 100 47 101 66 102 48 103 51 104
REMARK SMILES IDX 65 105 84 106 49 107 50 109 64 111 85 112 52 115 36 117
REMARK SMILES IDX 37 118 45 119 38 120 39 121 43 122 46 123 40 124 41 125
REMARK SMILES IDX 44 126 42 127 68 128 69 129 77 130 70 131 71 132 75 133
REMARK SMILES IDX 78 134 72 135 73 136 76 137 74 138 53 139 54 140 62 141
REMARK SMILES IDX 55 142 56 143 60 144 63 145 57 146 58 147 61 148 59 149
REMARK H PARENT 18 2 18 3 17 7 14 9 14 10 13 12 13 13 90 19 91 20 8 26 101 28
REMARK H PARENT 9 29 100 30 1 36 1 37 1 38 3 40 3 41 3 42 94 47 99 49 95 51
REMARK H PARENT 98 52 19 55 19 56 20 58 20 59 21 61 21 62 22 64 22 65 23 67
REMARK H PARENT 23 68 24 71 28 77 89 79 29 81 88 82 87 92 81 94 83 96 86 98
REMARK H PARENT 80 99 48 108 51 110 84 113 49 114 85 116
REMARK Flexibility Score: inf
ROOT
ATOM      1  C   UNL A   1      43.171  35.848  36.328  1.00  0.00     0.017 C 
ATOM      2  H   UNL A   1      43.911  36.621  36.335  1.00  0.00     0.049 H 
ATOM      3  H   UNL A   1      43.242  35.240  35.452  1.00  0.00     0.049 H 
ENDROOT
BRANCH   1   4
ATOM      4  N   UNL A   1      41.852  36.467  36.327  1.00  0.00    -0.356 N 
ATOM      5  C   UNL A   1      40.626  35.948  36.031  1.00  0.00     0.220 C 
ATOM      6  O   UNL A   1      39.641  36.679  36.169  1.00  0.00    -0.275 OA
ATOM      7  H   UNL A   1      41.845  37.418  36.582  1.00  0.00     0.163 HD
BRANCH   5   8
ATOM      8  C   UNL A   1      40.455  34.527  35.521  1.00  0.00     0.032 C 
ATOM      9  H   UNL A   1      41.209  33.922  35.978  1.00  0.00     0.037 H 
ATOM     10  H   UNL A   1      39.454  34.249  35.777  1.00  0.00     0.037 H 
BRANCH   8  11
ATOM     11  C   UNL A   1      40.558  34.338  33.996  1.00  0.00    -0.003 C 
ATOM     12  H   UNL A   1      39.624  34.624  33.560  1.00  0.00     0.034 H 
ATOM     13  H   UNL A   1      41.376  34.945  33.670  1.00  0.00     0.034 H 
BRANCH  11  14
ATOM     14  C   UNL A   1      40.870  32.926  33.557  1.00  0.00     0.024 A 
ATOM     15  N   UNL A   1      39.994  31.952  33.017  1.00  0.00    -0.314 N 
ATOM     16  C   UNL A   1      40.783  30.780  32.794  1.00  0.00     0.053 A 
ATOM     17  C   UNL A   1      42.125  32.352  33.693  1.00  0.00    -0.040 A 
ATOM     18  C   UNL A   1      42.071  31.033  33.230  1.00  0.00    -0.036 A 
ATOM     19  H   UNL A   1      42.961  32.822  34.072  1.00  0.00     0.064 H 
ATOM     20  H   UNL A   1      42.857  30.364  33.217  1.00  0.00     0.065 H 
BRANCH  15  21
ATOM     21  C   UNL A   1      38.618  32.127  32.563  1.00  0.00     0.046 A 
ATOM     22  C   UNL A   1      35.975  33.000  32.080  1.00  0.00     0.082 A 
ATOM     23  C   UNL A   1      37.023  33.491  31.316  1.00  0.00    -0.040 A 
ATOM     24  C   UNL A   1      36.217  32.021  33.029  1.00  0.00    -0.040 A 
ATOM     25  C   UNL A   1      38.309  32.982  31.499  1.00  0.00    -0.037 A 
ATOM     26  H   UNL A   1      36.853  34.231  30.616  1.00  0.00     0.064 H 
ATOM     27  C   UNL A   1      37.530  31.596  33.257  1.00  0.00    -0.037 A 
ATOM     28  H   UNL A   1      35.437  31.609  33.562  1.00  0.00     0.064 H 
ATOM     29  H   UNL A   1      39.053  33.242  30.832  1.00  0.00     0.065 H 
ATOM     30  H   UNL A   1      37.700  30.863  33.964  1.00  0.00     0.065 H 
BRANCH  22  31
ATOM     31  S   UNL A   1      34.339  33.631  31.851  1.00  0.00     0.242 S 
ATOM     32  O   UNL A   1      33.497  33.076  32.885  1.00  0.00    -0.207 OA
ATOM     33  O   UNL A   1      33.997  33.472  30.450  1.00  0.00    -0.207 OA
BRANCH  31  34
ATOM     34  N   UNL A   1      34.551  35.301  32.155  1.00  0.00    -0.204 NA
BRANCH  34  35
ATOM     35  C   UNL A   1      33.658  36.156  31.350  1.00  0.00     0.002 C 
ATOM     36  H   UNL A   1      33.551  37.108  31.825  1.00  0.00     0.041 H 
ATOM     37  H   UNL A   1      32.700  35.690  31.262  1.00  0.00     0.041 H 
ATOM     38  H   UNL A   1      34.080  36.291  30.374  1.00  0.00     0.041 H 
ENDBRANCH  34  35
BRANCH  34  39
ATOM     39  C   UNL A   1      34.563  35.696  33.582  1.00  0.00     0.002 C 
ATOM     40  H   UNL A   1      35.009  34.917  34.165  1.00  0.00     0.041 H 
ATOM     41  H   UNL A   1      33.559  35.860  33.915  1.00  0.00     0.041 H 
ATOM     42  H   UNL A   1      35.129  36.597  33.698  1.00  0.00     0.041 H 
ENDBRANCH  34  39
ENDBRANCH  31  34
ENDBRANCH  22  31
ENDBRANCH  15  21
BRANCH  16  43
ATOM     43  C   UNL A   1      40.379  29.607  31.997  1.00  0.00    -0.001 A 
ATOM     44  C   UNL A   1      39.577  28.582  32.503  1.00  0.00    -0.050 A 
ATOM     45  C   UNL A   1      40.723  29.570  30.641  1.00  0.00    -0.050 A 
ATOM     46  C   UNL A   1      39.057  27.614  31.628  1.00  0.00    -0.026 A 
ATOM     47  H   UNL A   1      39.368  28.536  33.513  1.00  0.00     0.063 H 
ATOM     48  C   UNL A   1      40.209  28.621  29.763  1.00  0.00    -0.026 A 
ATOM     49  H   UNL A   1      41.384  30.274  30.278  1.00  0.00     0.063 H 
ATOM     50  C   UNL A   1      39.360  27.654  30.266  1.00  0.00     0.123 A 
ATOM     51  H   UNL A   1      38.445  26.867  31.995  1.00  0.00     0.065 H 
ATOM     52  H   UNL A   1      40.456  28.639  28.761  1.00  0.00     0.065 H 
ATOM     53  F   UNL A   1      38.895  26.702  29.448  1.00  0.00    -0.207 F 
ENDBRANCH  16  43
ENDBRANCH  11  14
ENDBRANCH   8  11
ENDBRANCH   5   8
ENDBRANCH   1   4
BRANCH   1  54
ATOM     54  C   UNL A   1      43.398  34.943  37.538  1.00  0.00    -0.036 C 
ATOM     55  H   UNL A   1      42.437  34.650  37.908  1.00  0.00     0.028 H 
ATOM     56  H   UNL A   1      43.983  35.527  38.218  1.00  0.00     0.028 H 
BRANCH  54  57
ATOM     57  C   UNL A   1      44.214  33.664  37.306  1.00  0.00    -0.052 C 
ATOM     58  H   UNL A   1      44.907  33.588  38.116  1.00  0.00     0.027 H 
ATOM     59  H   UNL A   1      44.619  33.804  36.325  1.00  0.00     0.027 H 
BRANCH  57  60
ATOM     60  C   UNL A   1      43.491  32.291  37.202  1.00  0.00    -0.052 C 
ATOM     61  H   UNL A   1      42.533  32.495  36.772  1.00  0.00     0.027 H 
ATOM     62  H   UNL A   1      43.563  31.936  38.209  1.00  0.00     0.027 H 
BRANCH  60  63
ATOM     63  C   UNL A   1      44.065  31.090  36.410  1.00  0.00    -0.036 C 
ATOM     64  H   UNL A   1      44.416  31.479  35.477  1.00  0.00     0.028 H 
ATOM     65  H   UNL A   1      43.246  30.403  36.393  1.00  0.00     0.028 H 
BRANCH  63  66
ATOM     66  C   UNL A   1      45.223  30.230  36.997  1.00  0.00     0.018 C 
ATOM     67  H   UNL A   1      45.607  30.729  37.862  1.00  0.00     0.049 H 
ATOM     68  H   UNL A   1      45.956  30.128  36.223  1.00  0.00     0.049 H 
BRANCH  66  69
ATOM     69  N   UNL A   1      44.823  28.881  37.384  1.00  0.00    -0.352 N 
ATOM     70  C   UNL A   1      44.215  27.837  36.714  1.00  0.00     0.251 C 
ATOM     71  H   UNL A   1      45.029  28.670  38.323  1.00  0.00     0.163 HD
ATOM     72  O   UNL A   1      43.608  27.026  37.421  1.00  0.00    -0.269 OA
BRANCH  70  73
ATOM     73  C   UNL A   1      44.256  27.556  35.240  1.00  0.00     0.039 A 
ATOM     74  C   UNL A   1      43.031  27.465  34.546  1.00  0.00    -0.049 A 
ATOM     75  C   UNL A   1      45.406  27.225  34.533  1.00  0.00    -0.049 A 
ATOM     76  C   UNL A   1      42.966  27.070  33.195  1.00  0.00    -0.053 A 
ATOM     77  H   UNL A   1      42.156  27.696  35.043  1.00  0.00     0.063 H 
ATOM     78  C   UNL A   1      45.343  26.744  33.205  1.00  0.00    -0.053 A 
ATOM     79  H   UNL A   1      46.326  27.332  34.988  1.00  0.00     0.063 H 
ATOM     80  C   UNL A   1      44.128  26.710  32.506  1.00  0.00    -0.014 A 
ATOM     81  H   UNL A   1      42.054  27.046  32.712  1.00  0.00     0.063 H 
ATOM     82  H   UNL A   1      46.206  26.414  32.743  1.00  0.00     0.063 H 
BRANCH  80  83
ATOM     83  C   UNL A   1      44.126  26.735  31.001  1.00  0.00     0.031 A 
ATOM     84  C   UNL A   1      44.152  28.219  30.499  1.00  0.00     0.074 A 
ATOM     85  C   UNL A   1      44.087  25.562  30.277  1.00  0.00     0.049 A 
ATOM     86  N   UNL A   1      43.863  28.723  29.336  1.00  0.00    -0.248 NA
ATOM     87  C   UNL A   1      44.533  29.311  31.446  1.00  0.00    -0.034 C 
ATOM     88  C   UNL A   1      44.144  24.201  30.857  1.00  0.00    -0.036 A 
ATOM     89  N   UNL A   1      43.996  25.257  28.918  1.00  0.00    -0.354 N 
ATOM     90  C   UNL A   1      44.234  30.093  29.356  1.00  0.00     0.074 A 
ATOM     91  C   UNL A   1      44.545  30.416  30.706  1.00  0.00    -0.034 C 
ATOM     92  H   UNL A   1      44.742  29.227  32.453  1.00  0.00     0.065 H 
ATOM     93  C   UNL A   1      43.995  23.249  29.902  1.00  0.00    -0.036 A 
ATOM     94  H   UNL A   1      44.279  24.002  31.860  1.00  0.00     0.065 H 
ATOM     95  C   UNL A   1      43.849  23.867  28.595  1.00  0.00     0.049 A 
ATOM     96  H   UNL A   1      44.028  25.953  28.222  1.00  0.00     0.167 HD
ATOM     97  C   UNL A   1      44.403  30.845  28.230  1.00  0.00     0.037 A 
ATOM     98  H   UNL A   1      44.748  31.365  31.058  1.00  0.00     0.065 H 
ATOM     99  H   UNL A   1      43.986  22.232  30.079  1.00  0.00     0.065 H 
ATOM    100  C   UNL A   1      43.604  23.263  27.378  1.00  0.00     0.037 A 
ATOM    101  C   UNL A   1      43.967  30.111  27.100  1.00  0.00     0.049 A 
ATOM    102  C   UNL A   1      43.785  24.330  26.393  1.00  0.00     0.074 A 
ATOM    103  C   UNL A   1      42.722  29.703  26.701  1.00  0.00    -0.036 A 
ATOM    104  N   UNL A   1      44.924  29.397  26.428  1.00  0.00    -0.354 N 
ATOM    105  N   UNL A   1      44.943  24.771  26.011  1.00  0.00    -0.248 NA
ATOM    106  C   UNL A   1      42.601  24.954  25.791  1.00  0.00    -0.034 C 
ATOM    107  C   UNL A   1      42.968  28.420  26.182  1.00  0.00    -0.036 A 
ATOM    108  H   UNL A   1      41.827  30.212  26.765  1.00  0.00     0.065 H 
ATOM    109  C   UNL A   1      44.347  28.216  26.056  1.00  0.00     0.049 A 
ATOM    110  H   UNL A   1      45.849  29.681  26.249  1.00  0.00     0.167 HD
ATOM    111  C   UNL A   1      44.598  25.953  25.410  1.00  0.00     0.074 A 
ATOM    112  C   UNL A   1      43.217  25.831  25.001  1.00  0.00    -0.034 C 
ATOM    113  H   UNL A   1      41.596  24.769  25.935  1.00  0.00     0.065 H 
ATOM    114  H   UNL A   1      42.242  27.731  25.930  1.00  0.00     0.065 H 
ATOM    115  C   UNL A   1      45.209  27.086  25.833  1.00  0.00     0.037 A 
ATOM    116  H   UNL A   1      42.777  26.342  24.220  1.00  0.00     0.065 H 
BRANCH  97 117
ATOM    117  C   UNL A   1      45.182  32.108  27.965  1.00  0.00     0.064 A 
ATOM    118  C   UNL A   1      44.446  33.284  27.663  1.00  0.00     0.173 A 
ATOM    119  C   UNL A   1      46.531  32.112  27.587  1.00  0.00     0.173 A 
ATOM    120  F   UNL A   1      43.162  33.408  28.034  1.00  0.00    -0.203 F 
ATOM    121  C   UNL A   1      44.974  34.301  26.871  1.00  0.00     0.198 A 
ATOM    122  C   UNL A   1      47.072  33.165  26.844  1.00  0.00     0.198 A 
ATOM    123  F   UNL A   1      47.326  31.063  27.825  1.00  0.00    -0.203 F 
ATOM    124  F   UNL A   1      44.184  35.304  26.458  1.00  0.00    -0.200 F 
ATOM    125  C   UNL A   1      46.283  34.229  26.441  1.00  0.00     0.200 A 
ATOM    126  F   UNL A   1      48.348  33.098  26.440  1.00  0.00    -0.200 F 
ATOM    127  F   UNL A   1      46.771  35.158  25.609  1.00  0.00    -0.200 F 
ENDBRANCH  97 117
BRANCH 100 128
ATOM    128  C   UNL A   1      43.225  21.918  26.746  1.00  0.00     0.064 A 
ATOM    129  C   UNL A   1      44.022  21.141  25.902  1.00  0.00     0.173 A 
ATOM    130  C   UNL A   1      41.979  21.287  27.084  1.00  0.00     0.173 A 
ATOM    131  F   UNL A   1      45.154  21.632  25.388  1.00  0.00    -0.203 F 
ATOM    132  C   UNL A   1      43.666  19.817  25.541  1.00  0.00     0.198 A 
ATOM    133  C   UNL A   1      41.659  19.962  26.786  1.00  0.00     0.198 A 
ATOM    134  F   UNL A   1      41.001  21.939  27.726  1.00  0.00    -0.203 F 
ATOM    135  F   UNL A   1      44.464  19.112  24.726  1.00  0.00    -0.200 F 
ATOM    136  C   UNL A   1      42.515  19.214  26.025  1.00  0.00     0.200 A 
ATOM    137  F   UNL A   1      40.523  19.426  27.263  1.00  0.00    -0.200 F 
ATOM    138  F   UNL A   1      42.227  17.935  25.748  1.00  0.00    -0.200 F 
ENDBRANCH 100 128
BRANCH 115 139
ATOM    139  C   UNL A   1      46.596  26.862  26.409  1.00  0.00     0.064 A 
ATOM    140  C   UNL A   1      47.625  26.399  25.571  1.00  0.00     0.173 A 
ATOM    141  C   UNL A   1      46.912  26.955  27.775  1.00  0.00     0.173 A 
ATOM    142  F   UNL A   1      47.415  26.301  24.249  1.00  0.00    -0.203 F 
ATOM    143  C   UNL A   1      48.875  26.030  26.073  1.00  0.00     0.198 A 
ATOM    144  C   UNL A   1      48.164  26.589  28.280  1.00  0.00     0.198 A 
ATOM    145  F   UNL A   1      46.016  27.401  28.653  1.00  0.00    -0.203 F 
ATOM    146  F   UNL A   1      49.826  25.588  25.237  1.00  0.00    -0.200 F 
ATOM    147  C   UNL A   1      49.144  26.120  27.428  1.00  0.00     0.200 A 
ATOM    148  F   UNL A   1      48.416  26.700  29.595  1.00  0.00    -0.200 F 
ATOM    149  F   UNL A   1      50.347  25.774  27.908  1.00  0.00    -0.200 F 
ENDBRANCH 115 139
ENDBRANCH  80  83
ENDBRANCH  70  73
ENDBRANCH  66  69
ENDBRANCH  63  66
ENDBRANCH  60  63
ENDBRANCH  57  60
ENDBRANCH  54  57
ENDBRANCH   1  54
TORSDOF 21
ENDMDL
MODEL 7
REMARK VINA RESULT:     -11.2      5.212     10.659
REMARK SMILES CN(C)S(=O)(=O)c1ccc(-n2c(CCC(=O)NCCCCCCNC(=O)c3ccc(-c4c5nc(c(-c6c(F)c(F)c(F)c(F)c6F)c6ccc([nH]6)c(-c6c(F)c(F)c(F)c(F)c6F)c6nc(c(-c7c(F)c(F)c(F)c(F)c7F)c7ccc4[nH]7)C=C6)C=C5)cc3)ccc2-c2ccc(F)cc2)cc1
REMARK SMILES IDX 18 1 17 4 15 5 16 6 14 8 13 11 12 14 11 15 92 16 90 17 91 18
REMARK SMILES IDX 10 21 7 22 8 23 101 24 9 25 100 27 4 31 5 32 6 33 2 34 1 35
REMARK SMILES IDX 3 39 93 43 94 44 99 45 95 46 98 48 96 50 97 53 19 54 20 57
REMARK SMILES IDX 21 60 22 63 23 66 24 69 25 70 26 72 27 73 28 74 89 75 29 76
REMARK SMILES IDX 88 78 30 80 31 83 32 84 82 85 33 86 87 87 81 88 83 89 34 90
REMARK SMILES IDX 86 91 80 93 79 95 35 97 67 100 47 101 66 102 48 103 51 104
REMARK SMILES IDX 65 105 84 106 49 107 50 109 64 111 85 112 52 115 36 117
REMARK SMILES IDX 37 118 45 119 38 120 39 121 43 122 46 123 40 124 41 125
REMARK SMILES IDX 44 126 42 127 68 128 69 129 77 130 70 131 71 132 75 133
REMARK SMILES IDX 78 134 72 135 73 136 76 137 74 138 53 139 54 140 62 141
REMARK SMILES IDX 55 142 56 143 60 144 63 145 57 146 58 147 61 148 59 149
REMARK H PARENT 18 2 18 3 17 7 14 9 14 10 13 12 13 13 90 19 91 20 8 26 101 28
REMARK H PARENT 9 29 100 30 1 36 1 37 1 38 3 40 3 41 3 42 94 47 99 49 95 51
REMARK H PARENT 98 52 19 55 19 56 20 58 20 59 21 61 21 62 22 64 22 65 23 67
REMARK H PARENT 23 68 24 71 28 77 89 79 29 81 88 82 87 92 81 94 83 96 86 98
REMARK H PARENT 80 99 48 108 51 110 84 113 49 114 85 116
REMARK Flexibility Score: inf
ROOT
ATOM      1  C   UNL A   1      40.886  29.234  33.119  1.00  0.00     0.017 C 
ATOM      2  H   UNL A   1      41.128  30.227  33.436  1.00  0.00     0.049 H 
ATOM      3  H   UNL A   1      41.068  29.098  32.074  1.00  0.00     0.049 H 
ENDROOT
BRANCH   1   4
ATOM      4  N   UNL A   1      39.467  29.004  33.352  1.00  0.00    -0.356 N 
ATOM      5  C   UNL A   1      38.527  28.388  32.578  1.00  0.00     0.220 C 
ATOM      6  O   UNL A   1      37.389  28.268  33.039  1.00  0.00    -0.275 OA
ATOM      7  H   UNL A   1      39.130  29.350  34.208  1.00  0.00     0.163 HD
BRANCH   5   8
ATOM      8  C   UNL A   1      38.841  27.881  31.180  1.00  0.00     0.032 C 
ATOM      9  H   UNL A   1      39.679  27.222  31.252  1.00  0.00     0.037 H 
ATOM     10  H   UNL A   1      37.942  27.413  30.836  1.00  0.00     0.037 H 
BRANCH   8  11
ATOM     11  C   UNL A   1      39.174  28.957  30.129  1.00  0.00    -0.003 C 
ATOM     12  H   UNL A   1      39.863  29.649  30.567  1.00  0.00     0.034 H 
ATOM     13  H   UNL A   1      39.579  28.441  29.284  1.00  0.00     0.034 H 
BRANCH  11  14
ATOM     14  C   UNL A   1      37.981  29.736  29.626  1.00  0.00     0.024 A 
ATOM     15  N   UNL A   1      37.507  31.002  30.048  1.00  0.00    -0.314 N 
ATOM     16  C   UNL A   1      36.337  31.274  29.271  1.00  0.00     0.053 A 
ATOM     17  C   UNL A   1      37.111  29.246  28.664  1.00  0.00    -0.040 A 
ATOM     18  C   UNL A   1      36.098  30.187  28.449  1.00  0.00    -0.036 A 
ATOM     19  H   UNL A   1      37.197  28.337  28.184  1.00  0.00     0.064 H 
ATOM     20  H   UNL A   1      35.309  30.087  27.792  1.00  0.00     0.065 H 
BRANCH  15  21
ATOM     21  C   UNL A   1      38.159  31.963  30.931  1.00  0.00     0.046 A 
ATOM     22  C   UNL A   1      39.887  33.346  32.688  1.00  0.00     0.082 A 
ATOM     23  C   UNL A   1      40.070  33.433  31.315  1.00  0.00    -0.040 A 
ATOM     24  C   UNL A   1      38.807  32.642  33.193  1.00  0.00    -0.040 A 
ATOM     25  C   UNL A   1      39.155  32.825  30.456  1.00  0.00    -0.037 A 
ATOM     26  H   UNL A   1      40.881  33.945  30.931  1.00  0.00     0.064 H 
ATOM     27  C   UNL A   1      37.958  31.963  32.313  1.00  0.00    -0.037 A 
ATOM     28  H   UNL A   1      38.630  32.619  34.208  1.00  0.00     0.064 H 
ATOM     29  H   UNL A   1      39.211  33.015  29.444  1.00  0.00     0.065 H 
ATOM     30  H   UNL A   1      37.154  31.443  32.699  1.00  0.00     0.065 H 
BRANCH  22  31
ATOM     31  S   UNL A   1      41.036  34.122  33.786  1.00  0.00     0.242 S 
ATOM     32  O   UNL A   1      41.476  33.133  34.743  1.00  0.00    -0.207 OA
ATOM     33  O   UNL A   1      40.449  35.373  34.227  1.00  0.00    -0.207 OA
BRANCH  31  34
ATOM     34  N   UNL A   1      42.340  34.490  32.741  1.00  0.00    -0.204 NA
BRANCH  34  35
ATOM     35  C   UNL A   1      42.995  35.773  33.061  1.00  0.00     0.002 C 
ATOM     36  H   UNL A   1      42.687  36.516  32.355  1.00  0.00     0.041 H 
ATOM     37  H   UNL A   1      44.056  35.654  33.015  1.00  0.00     0.041 H 
ATOM     38  H   UNL A   1      42.712  36.081  34.047  1.00  0.00     0.041 H 
ENDBRANCH  34  35
BRANCH  34  39
ATOM     39  C   UNL A   1      43.321  33.401  32.532  1.00  0.00     0.002 C 
ATOM     40  H   UNL A   1      44.181  33.788  32.025  1.00  0.00     0.041 H 
ATOM     41  H   UNL A   1      42.876  32.629  31.939  1.00  0.00     0.041 H 
ATOM     42  H   UNL A   1      43.615  32.999  33.479  1.00  0.00     0.041 H 
ENDBRANCH  34  39
ENDBRANCH  31  34
ENDBRANCH  22  31
ENDBRANCH  15  21
BRANCH  16  43
ATOM     43  C   UNL A   1      35.661  32.579  29.159  1.00  0.00    -0.001 A 
ATOM     44  C   UNL A   1      35.555  33.282  27.957  1.00  0.00    -0.050 A 
ATOM     45  C   UNL A   1      34.999  33.088  30.282  1.00  0.00    -0.050 A 
ATOM     46  C   UNL A   1      34.715  34.405  27.883  1.00  0.00    -0.026 A 
ATOM     47  H   UNL A   1      36.091  32.978  27.128  1.00  0.00     0.063 H 
ATOM     48  C   UNL A   1      34.159  34.195  30.220  1.00  0.00    -0.026 A 
ATOM     49  H   UNL A   1      35.141  32.624  31.194  1.00  0.00     0.063 H 
ATOM     50  C   UNL A   1      34.010  34.838  29.007  1.00  0.00     0.123 A 
ATOM     51  H   UNL A   1      34.617  34.914  26.989  1.00  0.00     0.065 H 
ATOM     52  H   UNL A   1      33.659  34.527  31.060  1.00  0.00     0.065 H 
ATOM     53  F   UNL A   1      33.246  35.935  28.937  1.00  0.00    -0.207 F 
ENDBRANCH  16  43
ENDBRANCH  11  14
ENDBRANCH   8  11
ENDBRANCH   5   8
ENDBRANCH   1   4
BRANCH   1  54
ATOM     54  C   UNL A   1      41.777  28.249  33.875  1.00  0.00    -0.036 C 
ATOM     55  H   UNL A   1      42.478  27.844  33.174  1.00  0.00     0.028 H 
ATOM     56  H   UNL A   1      41.105  27.535  34.302  1.00  0.00     0.028 H 
BRANCH  54  57
ATOM     57  C   UNL A   1      42.576  28.804  35.061  1.00  0.00    -0.052 C 
ATOM     58  H   UNL A   1      42.133  29.742  35.322  1.00  0.00     0.027 H 
ATOM     59  H   UNL A   1      43.582  28.822  34.695  1.00  0.00     0.027 H 
BRANCH  57  60
ATOM     60  C   UNL A   1      42.688  27.980  36.375  1.00  0.00    -0.052 C 
ATOM     61  H   UNL A   1      42.257  27.024  36.160  1.00  0.00     0.027 H 
ATOM     62  H   UNL A   1      42.217  28.635  37.078  1.00  0.00     0.027 H 
BRANCH  60  63
ATOM     63  C   UNL A   1      44.036  27.689  37.080  1.00  0.00    -0.036 C 
ATOM     64  H   UNL A   1      44.245  28.535  37.701  1.00  0.00     0.028 H 
ATOM     65  H   UNL A   1      44.695  27.491  36.261  1.00  0.00     0.028 H 
BRANCH  63  66
ATOM     66  C   UNL A   1      44.210  26.427  37.975  1.00  0.00     0.018 C 
ATOM     67  H   UNL A   1      43.312  25.849  37.920  1.00  0.00     0.049 H 
ATOM     68  H   UNL A   1      44.414  26.776  38.967  1.00  0.00     0.049 H 
BRANCH  66  69
ATOM     69  N   UNL A   1      45.330  25.575  37.587  1.00  0.00    -0.352 N 
ATOM     70  C   UNL A   1      45.679  24.933  36.414  1.00  0.00     0.251 C 
ATOM     71  H   UNL A   1      45.974  25.424  38.317  1.00  0.00     0.163 HD
ATOM     72  O   UNL A   1      46.409  23.944  36.540  1.00  0.00    -0.269 OA
BRANCH  70  73
ATOM     73  C   UNL A   1      45.314  25.335  35.015  1.00  0.00     0.039 A 
ATOM     74  C   UNL A   1      46.248  26.091  34.275  1.00  0.00    -0.049 A 
ATOM     75  C   UNL A   1      44.059  25.152  34.445  1.00  0.00    -0.049 A 
ATOM     76  C   UNL A   1      45.938  26.629  33.010  1.00  0.00    -0.053 A 
ATOM     77  H   UNL A   1      47.187  26.253  34.671  1.00  0.00     0.063 H 
ATOM     78  C   UNL A   1      43.710  25.761  33.218  1.00  0.00    -0.053 A 
ATOM     79  H   UNL A   1      43.367  24.560  34.930  1.00  0.00     0.063 H 
ATOM     80  C   UNL A   1      44.661  26.463  32.464  1.00  0.00    -0.014 A 
ATOM     81  H   UNL A   1      46.658  27.149  32.484  1.00  0.00     0.063 H 
ATOM     82  H   UNL A   1      42.740  25.687  32.872  1.00  0.00     0.063 H 
BRANCH  80  83
ATOM     83  C   UNL A   1      44.472  26.625  30.979  1.00  0.00     0.031 A 
ATOM     84  C   UNL A   1      44.197  28.130  30.644  1.00  0.00     0.074 A 
ATOM     85  C   UNL A   1      44.534  25.534  30.138  1.00  0.00     0.049 A 
ATOM     86  N   UNL A   1      43.692  28.682  29.581  1.00  0.00    -0.248 NA
ATOM     87  C   UNL A   1      44.510  29.181  31.661  1.00  0.00    -0.034 C 
ATOM     88  C   UNL A   1      44.879  24.156  30.555  1.00  0.00    -0.036 A 
ATOM     89  N   UNL A   1      44.328  25.343  28.771  1.00  0.00    -0.354 N 
ATOM     90  C   UNL A   1      43.837  30.087  29.713  1.00  0.00     0.074 A 
ATOM     91  C   UNL A   1      44.254  30.334  31.051  1.00  0.00    -0.034 C 
ATOM     92  H   UNL A   1      44.851  29.042  32.625  1.00  0.00     0.065 H 
ATOM     93  C   UNL A   1      44.770  23.283  29.521  1.00  0.00    -0.036 A 
ATOM     94  H   UNL A   1      45.166  23.892  31.510  1.00  0.00     0.065 H 
ATOM     95  C   UNL A   1      44.369  23.984  28.314  1.00  0.00     0.049 A 
ATOM     96  H   UNL A   1      44.163  26.095  28.157  1.00  0.00     0.167 HD
ATOM     97  C   UNL A   1      43.745  30.957  28.666  1.00  0.00     0.037 A 
ATOM     98  H   UNL A   1      44.344  31.268  31.483  1.00  0.00     0.065 H 
ATOM     99  H   UNL A   1      44.946  22.268  29.584  1.00  0.00     0.065 H 
ATOM    100  C   UNL A   1      44.077  23.460  27.069  1.00  0.00     0.037 A 
ATOM    101  C   UNL A   1      43.298  30.265  27.514  1.00  0.00     0.049 A 
ATOM    102  C   UNL A   1      43.963  24.628  26.195  1.00  0.00     0.074 A 
ATOM    103  C   UNL A   1      42.096  29.687  27.205  1.00  0.00    -0.036 A 
ATOM    104  N   UNL A   1      44.268  29.791  26.670  1.00  0.00    -0.354 N 
ATOM    105  N   UNL A   1      44.980  25.296  25.744  1.00  0.00    -0.248 NA
ATOM    106  C   UNL A   1      42.630  25.091  25.792  1.00  0.00    -0.034 C 
ATOM    107  C   UNL A   1      42.480  28.518  26.524  1.00  0.00    -0.036 A 
ATOM    108  H   UNL A   1      41.145  30.026  27.417  1.00  0.00     0.065 H 
ATOM    109  C   UNL A   1      43.848  28.567  26.232  1.00  0.00     0.049 A 
ATOM    110  H   UNL A   1      45.107  30.245  26.428  1.00  0.00     0.167 HD
ATOM    111  C   UNL A   1      44.379  26.450  25.318  1.00  0.00     0.074 A 
ATOM    112  C   UNL A   1      42.996  26.130  25.045  1.00  0.00    -0.034 C 
ATOM    113  H   UNL A   1      41.693  24.723  26.020  1.00  0.00     0.065 H 
ATOM    114  H   UNL A   1      41.848  27.741  26.275  1.00  0.00     0.065 H 
ATOM    115  C   UNL A   1      44.847  27.628  25.797  1.00  0.00     0.037 A 
ATOM    116  H   UNL A   1      42.388  26.627  24.375  1.00  0.00     0.065 H 
BRANCH  97 117
ATOM    117  C   UNL A   1      44.272  32.354  28.462  1.00  0.00     0.064 A 
ATOM    118  C   UNL A   1      45.674  32.511  28.301  1.00  0.00     0.173 A 
ATOM    119  C   UNL A   1      43.563  33.503  28.833  1.00  0.00     0.173 A 
ATOM    120  F   UNL A   1      46.440  31.488  27.891  1.00  0.00    -0.203 F 
ATOM    121  C   UNL A   1      46.333  33.681  28.673  1.00  0.00     0.198 A 
ATOM    122  C   UNL A   1      44.224  34.694  29.147  1.00  0.00     0.198 A 
ATOM    123  F   UNL A   1      42.237  33.479  29.008  1.00  0.00    -0.203 F 
ATOM    124  F   UNL A   1      47.674  33.720  28.678  1.00  0.00    -0.200 F 
ATOM    125  C   UNL A   1      45.607  34.766  29.120  1.00  0.00     0.200 A 
ATOM    126  F   UNL A   1      43.515  35.751  29.567  1.00  0.00    -0.200 F 
ATOM    127  F   UNL A   1      46.237  35.862  29.561  1.00  0.00    -0.200 F 
ENDBRANCH  97 117
BRANCH 100 128
ATOM    128  C   UNL A   1      43.845  22.134  26.335  1.00  0.00     0.064 A 
ATOM    129  C   UNL A   1      44.769  21.449  25.541  1.00  0.00     0.173 A 
ATOM    130  C   UNL A   1      42.612  21.418  26.511  1.00  0.00     0.173 A 
ATOM    131  F   UNL A   1      45.916  22.029  25.174  1.00  0.00    -0.203 F 
ATOM    132  C   UNL A   1      44.531  20.130  25.081  1.00  0.00     0.198 A 
ATOM    133  C   UNL A   1      42.403  20.096  26.116  1.00  0.00     0.198 A 
ATOM    134  F   UNL A   1      41.537  21.979  27.079  1.00  0.00    -0.203 F 
ATOM    135  F   UNL A   1      45.448  19.516  24.319  1.00  0.00    -0.200 F 
ATOM    136  C   UNL A   1      43.375  19.440  25.412  1.00  0.00     0.200 A 
ATOM    137  F   UNL A   1      41.259  19.474  26.446  1.00  0.00    -0.200 F 
ATOM    138  F   UNL A   1      43.193  18.164  25.044  1.00  0.00    -0.200 F 
ENDBRANCH 100 128
BRANCH 115 139
ATOM    139  C   UNL A   1      46.311  27.594  26.196  1.00  0.00     0.064 A 
ATOM    140  C   UNL A   1      47.290  27.376  25.211  1.00  0.00     0.173 A 
ATOM    141  C   UNL A   1      46.773  27.633  27.523  1.00  0.00     0.173 A 
ATOM    142  F   UNL A   1      46.939  27.347  23.917  1.00  0.00    -0.203 F 
ATOM    143  C   UNL A   1      48.635  27.183  25.538  1.00  0.00     0.198 A 
ATOM    144  C   UNL A   1      48.118  27.443  27.853  1.00  0.00     0.198 A 
ATOM    145  F   UNL A   1      45.931  27.854  28.531  1.00  0.00    -0.203 F 
ATOM    146  F   UNL A   1      49.534  26.972  24.566  1.00  0.00    -0.200 F 
ATOM    147  C   UNL A   1      49.049  27.211  26.859  1.00  0.00     0.200 A 
ATOM    148  F   UNL A   1      48.509  27.492  29.137  1.00  0.00    -0.200 F 
ATOM    149  F   UNL A   1      50.341  27.035  27.171  1.00  0.00    -0.200 F 
ENDBRANCH 115 139
ENDBRANCH  80  83
ENDBRANCH  70  73
ENDBRANCH  66  69
ENDBRANCH  63  66
ENDBRANCH  60  63
ENDBRANCH  57  60
ENDBRANCH  54  57
ENDBRANCH   1  54
TORSDOF 21
ENDMDL
MODEL 8
REMARK VINA RESULT:     -10.9      5.845     11.851
REMARK SMILES CN(C)S(=O)(=O)c1ccc(-n2c(CCC(=O)NCCCCCCNC(=O)c3ccc(-c4c5nc(c(-c6c(F)c(F)c(F)c(F)c6F)c6ccc([nH]6)c(-c6c(F)c(F)c(F)c(F)c6F)c6nc(c(-c7c(F)c(F)c(F)c(F)c7F)c7ccc4[nH]7)C=C6)C=C5)cc3)ccc2-c2ccc(F)cc2)cc1
REMARK SMILES IDX 18 1 17 4 15 5 16 6 14 8 13 11 12 14 11 15 92 16 90 17 91 18
REMARK SMILES IDX 10 21 7 22 8 23 101 24 9 25 100 27 4 31 5 32 6 33 2 34 1 35
REMARK SMILES IDX 3 39 93 43 94 44 99 45 95 46 98 48 96 50 97 53 19 54 20 57
REMARK SMILES IDX 21 60 22 63 23 66 24 69 25 70 26 72 27 73 28 74 89 75 29 76
REMARK SMILES IDX 88 78 30 80 31 83 32 84 82 85 33 86 87 87 81 88 83 89 34 90
REMARK SMILES IDX 86 91 80 93 79 95 35 97 67 100 47 101 66 102 48 103 51 104
REMARK SMILES IDX 65 105 84 106 49 107 50 109 64 111 85 112 52 115 36 117
REMARK SMILES IDX 37 118 45 119 38 120 39 121 43 122 46 123 40 124 41 125
REMARK SMILES IDX 44 126 42 127 68 128 69 129 77 130 70 131 71 132 75 133
REMARK SMILES IDX 78 134 72 135 73 136 76 137 74 138 53 139 54 140 62 141
REMARK SMILES IDX 55 142 56 143 60 144 63 145 57 146 58 147 61 148 59 149
REMARK H PARENT 18 2 18 3 17 7 14 9 14 10 13 12 13 13 90 19 91 20 8 26 101 28
REMARK H PARENT 9 29 100 30 1 36 1 37 1 38 3 40 3 41 3 42 94 47 99 49 95 51
REMARK H PARENT 98 52 19 55 19 56 20 58 20 59 21 61 21 62 22 64 22 65 23 67
REMARK H PARENT 23 68 24 71 28 77 89 79 29 81 88 82 87 92 81 94 83 96 86 98
REMARK H PARENT 80 99 48 108 51 110 84 113 49 114 85 116
REMARK Flexibility Score: inf
ROOT
ATOM      1  C   UNL A   1      44.025  30.206  27.250  1.00  0.00     0.017 C 
ATOM      2  H   UNL A   1      44.286  29.409  27.915  1.00  0.00     0.049 H 
ATOM      3  H   UNL A   1      43.287  30.851  27.676  1.00  0.00     0.049 H 
ENDROOT
BRANCH   1   4
ATOM      4  N   UNL A   1      43.461  29.633  26.035  1.00  0.00    -0.356 N 
ATOM      5  C   UNL A   1      42.573  28.612  25.863  1.00  0.00     0.220 C 
ATOM      6  O   UNL A   1      42.202  28.358  24.713  1.00  0.00    -0.275 OA
ATOM      7  H   UNL A   1      43.772  30.052  25.201  1.00  0.00     0.163 HD
BRANCH   5   8
ATOM      8  C   UNL A   1      42.062  27.783  27.029  1.00  0.00     0.032 C 
ATOM      9  H   UNL A   1      41.910  28.442  27.857  1.00  0.00     0.037 H 
ATOM     10  H   UNL A   1      41.170  27.308  26.675  1.00  0.00     0.037 H 
BRANCH   8  11
ATOM     11  C   UNL A   1      42.980  26.639  27.499  1.00  0.00    -0.003 C 
ATOM     12  H   UNL A   1      42.423  25.726  27.460  1.00  0.00     0.034 H 
ATOM     13  H   UNL A   1      43.827  26.641  26.846  1.00  0.00     0.034 H 
BRANCH  11  14
ATOM     14  C   UNL A   1      43.520  26.801  28.902  1.00  0.00     0.024 A 
ATOM     15  N   UNL A   1      44.845  26.622  29.367  1.00  0.00    -0.314 N 
ATOM     16  C   UNL A   1      44.816  26.876  30.774  1.00  0.00     0.053 A 
ATOM     17  C   UNL A   1      42.717  27.110  29.989  1.00  0.00    -0.040 A 
ATOM     18  C   UNL A   1      43.511  27.151  31.140  1.00  0.00    -0.036 A 
ATOM     19  H   UNL A   1      41.701  27.282  29.954  1.00  0.00     0.064 H 
ATOM     20  H   UNL A   1      43.180  27.350  32.097  1.00  0.00     0.065 H 
BRANCH  15  21
ATOM     21  C   UNL A   1      46.061  26.431  28.582  1.00  0.00     0.046 A 
ATOM     22  C   UNL A   1      48.715  26.241  27.631  1.00  0.00     0.082 A 
ATOM     23  C   UNL A   1      48.119  25.158  28.260  1.00  0.00    -0.040 A 
ATOM     24  C   UNL A   1      47.978  27.391  27.400  1.00  0.00    -0.040 A 
ATOM     25  C   UNL A   1      46.779  25.230  28.639  1.00  0.00    -0.037 A 
ATOM     26  H   UNL A   1      48.666  24.302  28.448  1.00  0.00     0.064 H 
ATOM     27  C   UNL A   1      46.665  27.472  27.875  1.00  0.00    -0.037 A 
ATOM     28  H   UNL A   1      48.394  28.180  26.883  1.00  0.00     0.064 H 
ATOM     29  H   UNL A   1      46.303  24.377  28.970  1.00  0.00     0.065 H 
ATOM     30  H   UNL A   1      46.122  28.332  27.695  1.00  0.00     0.065 H 
BRANCH  22  31
ATOM     31  S   UNL A   1      50.411  26.157  27.137  1.00  0.00     0.242 S 
ATOM     32  O   UNL A   1      50.563  26.935  25.929  1.00  0.00    -0.207 OA
ATOM     33  O   UNL A   1      50.814  24.764  27.180  1.00  0.00    -0.207 OA
BRANCH  31  34
ATOM     34  N   UNL A   1      51.200  26.974  28.417  1.00  0.00    -0.204 NA
BRANCH  34  35
ATOM     35  C   UNL A   1      51.342  26.149  29.632  1.00  0.00     0.002 C 
ATOM     36  H   UNL A   1      50.392  25.732  29.893  1.00  0.00     0.041 H 
ATOM     37  H   UNL A   1      51.699  26.756  30.436  1.00  0.00     0.041 H 
ATOM     38  H   UNL A   1      52.038  25.357  29.445  1.00  0.00     0.041 H 
ENDBRANCH  34  35
BRANCH  34  39
ATOM     39  C   UNL A   1      52.462  27.660  28.058  1.00  0.00     0.002 C 
ATOM     40  H   UNL A   1      52.648  28.451  28.755  1.00  0.00     0.041 H 
ATOM     41  H   UNL A   1      52.378  28.067  27.072  1.00  0.00     0.041 H 
ATOM     42  H   UNL A   1      53.270  26.959  28.088  1.00  0.00     0.041 H 
ENDBRANCH  34  39
ENDBRANCH  31  34
ENDBRANCH  22  31
ENDBRANCH  15  21
BRANCH  16  43
ATOM     43  C   UNL A   1      45.993  27.081  31.638  1.00  0.00    -0.001 A 
ATOM     44  C   UNL A   1      46.512  26.085  32.469  1.00  0.00    -0.050 A 
ATOM     45  C   UNL A   1      46.691  28.291  31.543  1.00  0.00    -0.050 A 
ATOM     46  C   UNL A   1      47.754  26.282  33.095  1.00  0.00    -0.026 A 
ATOM     47  H   UNL A   1      45.984  25.211  32.623  1.00  0.00     0.063 H 
ATOM     48  C   UNL A   1      47.925  28.495  32.151  1.00  0.00    -0.026 A 
ATOM     49  H   UNL A   1      46.272  29.063  31.000  1.00  0.00     0.063 H 
ATOM     50  C   UNL A   1      48.458  27.474  32.913  1.00  0.00     0.123 A 
ATOM     51  H   UNL A   1      48.150  25.538  33.691  1.00  0.00     0.065 H 
ATOM     52  H   UNL A   1      48.431  29.387  32.035  1.00  0.00     0.065 H 
ATOM     53  F   UNL A   1      49.620  27.668  33.548  1.00  0.00    -0.207 F 
ENDBRANCH  16  43
ENDBRANCH  11  14
ENDBRANCH   8  11
ENDBRANCH   5   8
ENDBRANCH   1   4
BRANCH   1  54
ATOM     54  C   UNL A   1      45.273  31.046  26.982  1.00  0.00    -0.036 C 
ATOM     55  H   UNL A   1      44.948  32.019  26.674  1.00  0.00     0.028 H 
ATOM     56  H   UNL A   1      45.824  30.502  26.244  1.00  0.00     0.028 H 
BRANCH  54  57
ATOM     57  C   UNL A   1      46.249  31.233  28.152  1.00  0.00    -0.052 C 
ATOM     58  H   UNL A   1      47.020  30.501  28.032  1.00  0.00     0.027 H 
ATOM     59  H   UNL A   1      45.621  31.148  29.014  1.00  0.00     0.027 H 
BRANCH  57  60
ATOM     60  C   UNL A   1      46.958  32.602  28.359  1.00  0.00    -0.052 C 
ATOM     61  H   UNL A   1      47.610  32.471  29.197  1.00  0.00     0.027 H 
ATOM     62  H   UNL A   1      46.122  33.266  28.428  1.00  0.00     0.027 H 
BRANCH  60  63
ATOM     63  C   UNL A   1      47.808  33.290  27.263  1.00  0.00    -0.036 C 
ATOM     64  H   UNL A   1      48.432  32.531  26.839  1.00  0.00     0.028 H 
ATOM     65  H   UNL A   1      48.279  34.090  27.794  1.00  0.00     0.028 H 
BRANCH  63  66
ATOM     66  C   UNL A   1      47.127  34.022  26.070  1.00  0.00     0.018 C 
ATOM     67  H   UNL A   1      46.256  33.469  25.789  1.00  0.00     0.049 H 
ATOM     68  H   UNL A   1      47.852  34.075  25.284  1.00  0.00     0.049 H 
BRANCH  66  69
ATOM     69  N   UNL A   1      46.723  35.393  26.368  1.00  0.00    -0.352 N 
ATOM     70  C   UNL A   1      45.606  35.952  26.959  1.00  0.00     0.251 C 
ATOM     71  H   UNL A   1      47.388  36.063  26.087  1.00  0.00     0.163 HD
ATOM     72  O   UNL A   1      45.364  37.123  26.649  1.00  0.00    -0.269 OA
BRANCH  70  73
ATOM     73  C   UNL A   1      44.695  35.312  27.966  1.00  0.00     0.039 A 
ATOM     74  C   UNL A   1      43.821  34.298  27.522  1.00  0.00    -0.049 A 
ATOM     75  C   UNL A   1      44.537  35.751  29.275  1.00  0.00    -0.049 A 
ATOM     76  C   UNL A   1      42.838  33.739  28.362  1.00  0.00    -0.053 A 
ATOM     77  H   UNL A   1      43.906  33.953  26.553  1.00  0.00     0.063 H 
ATOM     78  C   UNL A   1      43.497  35.259  30.098  1.00  0.00    -0.053 A 
ATOM     79  H   UNL A   1      45.192  36.452  29.655  1.00  0.00     0.063 H 
ATOM     80  C   UNL A   1      42.670  34.213  29.667  1.00  0.00    -0.014 A 
ATOM     81  H   UNL A   1      42.237  32.976  28.012  1.00  0.00     0.063 H 
ATOM     82  H   UNL A   1      43.347  35.677  31.030  1.00  0.00     0.063 H 
BRANCH  80  83
ATOM     83  C   UNL A   1      41.969  33.345  30.678  1.00  0.00     0.031 A 
ATOM     84  C   UNL A   1      40.513  33.874  30.908  1.00  0.00     0.074 A 
ATOM     85  C   UNL A   1      42.620  32.279  31.263  1.00  0.00     0.049 A 
ATOM     86  N   UNL A   1      39.671  33.644  31.871  1.00  0.00    -0.248 NA
ATOM     87  C   UNL A   1      39.911  34.827  29.925  1.00  0.00    -0.034 C 
ATOM     88  C   UNL A   1      43.982  31.817  30.914  1.00  0.00    -0.036 A 
ATOM     89  N   UNL A   1      42.288  31.361  32.262  1.00  0.00    -0.354 N 
ATOM     90  C   UNL A   1      38.426  34.216  31.503  1.00  0.00     0.074 A 
ATOM     91  C   UNL A   1      38.664  35.011  30.347  1.00  0.00    -0.034 C 
ATOM     92  H   UNL A   1      40.364  35.249  29.100  1.00  0.00     0.065 H 
ATOM     93  C   UNL A   1      44.385  30.804  31.722  1.00  0.00    -0.036 A 
ATOM     94  H   UNL A   1      44.553  32.215  30.152  1.00  0.00     0.065 H 
ATOM     95  C   UNL A   1      43.336  30.471  32.670  1.00  0.00     0.049 A 
ATOM     96  H   UNL A   1      41.389  31.328  32.664  1.00  0.00     0.167 HD
ATOM     97  C   UNL A   1      37.240  33.882  32.088  1.00  0.00     0.037 A 
ATOM     98  H   UNL A   1      37.972  35.636  29.903  1.00  0.00     0.065 H 
ATOM     99  H   UNL A   1      45.304  30.337  31.671  1.00  0.00     0.065 H 
ATOM    100  C   UNL A   1      43.366  29.557  33.705  1.00  0.00     0.037 A 
ATOM    101  C   UNL A   1      37.483  33.057  33.214  1.00  0.00     0.049 A 
ATOM    102  C   UNL A   1      41.981  29.478  34.168  1.00  0.00     0.074 A 
ATOM    103  C   UNL A   1      38.067  33.313  34.425  1.00  0.00    -0.036 A 
ATOM    104  N   UNL A   1      37.436  31.704  33.001  1.00  0.00    -0.354 N 
ATOM    105  N   UNL A   1      41.045  28.832  33.543  1.00  0.00    -0.248 NA
ATOM    106  C   UNL A   1      41.603  30.163  35.410  1.00  0.00    -0.034 C 
ATOM    107  C   UNL A   1      38.802  32.140  34.669  1.00  0.00    -0.036 A 
ATOM    108  H   UNL A   1      37.986  34.157  35.013  1.00  0.00     0.065 H 
ATOM    109  C   UNL A   1      38.438  31.152  33.747  1.00  0.00     0.049 A 
ATOM    110  H   UNL A   1      36.803  31.224  32.420  1.00  0.00     0.167 HD
ATOM    111  C   UNL A   1      39.920  29.347  34.130  1.00  0.00     0.074 A 
ATOM    112  C   UNL A   1      40.312  29.839  35.433  1.00  0.00    -0.034 C 
ATOM    113  H   UNL A   1      42.167  30.725  36.066  1.00  0.00     0.065 H 
ATOM    114  H   UNL A   1      39.505  32.024  35.415  1.00  0.00     0.065 H 
ATOM    115  C   UNL A   1      38.969  29.882  33.328  1.00  0.00     0.037 A 
ATOM    116  H   UNL A   1      39.690  29.924  36.252  1.00  0.00     0.065 H 
BRANCH  97 117
ATOM    117  C   UNL A   1      35.813  33.990  31.616  1.00  0.00     0.064 A 
ATOM    118  C   UNL A   1      35.481  33.375  30.380  1.00  0.00     0.173 A 
ATOM    119  C   UNL A   1      34.926  34.974  32.071  1.00  0.00     0.173 A 
ATOM    120  F   UNL A   1      36.231  32.380  29.882  1.00  0.00    -0.203 F 
ATOM    121  C   UNL A   1      34.448  33.849  29.574  1.00  0.00     0.198 A 
ATOM    122  C   UNL A   1      33.854  35.404  31.284  1.00  0.00     0.198 A 
ATOM    123  F   UNL A   1      35.131  35.618  33.226  1.00  0.00    -0.203 F 
ATOM    124  F   UNL A   1      34.288  33.359  28.336  1.00  0.00    -0.200 F 
ATOM    125  C   UNL A   1      33.649  34.882  30.018  1.00  0.00     0.200 A 
ATOM    126  F   UNL A   1      33.070  36.398  31.725  1.00  0.00    -0.200 F 
ATOM    127  F   UNL A   1      32.710  35.401  29.215  1.00  0.00    -0.200 F 
ENDBRANCH  97 117
BRANCH 100 128
ATOM    128  C   UNL A   1      44.317  28.645  34.489  1.00  0.00     0.064 A 
ATOM    129  C   UNL A   1      45.571  28.991  34.998  1.00  0.00     0.173 A 
ATOM    130  C   UNL A   1      43.904  27.318  34.858  1.00  0.00     0.173 A 
ATOM    131  F   UNL A   1      46.159  30.138  34.644  1.00  0.00    -0.203 F 
ATOM    132  C   UNL A   1      46.280  28.146  35.889  1.00  0.00     0.198 A 
ATOM    133  C   UNL A   1      44.567  26.515  35.787  1.00  0.00     0.198 A 
ATOM    134  F   UNL A   1      42.826  26.733  34.322  1.00  0.00    -0.203 F 
ATOM    135  F   UNL A   1      47.482  28.521  36.348  1.00  0.00    -0.200 F 
ATOM    136  C   UNL A   1      45.753  26.938  36.321  1.00  0.00     0.200 A 
ATOM    137  F   UNL A   1      44.027  25.344  36.162  1.00  0.00    -0.200 F 
ATOM    138  F   UNL A   1      46.390  26.183  37.228  1.00  0.00    -0.200 F 
ENDBRANCH 100 128
BRANCH 115 139
ATOM    139  C   UNL A   1      38.936  29.290  31.931  1.00  0.00     0.064 A 
ATOM    140  C   UNL A   1      38.671  27.919  31.767  1.00  0.00     0.173 A 
ATOM    141  C   UNL A   1      39.288  29.990  30.763  1.00  0.00     0.173 A 
ATOM    142  F   UNL A   1      38.307  27.181  32.826  1.00  0.00    -0.203 F 
ATOM    143  C   UNL A   1      38.778  27.290  30.525  1.00  0.00     0.198 A 
ATOM    144  C   UNL A   1      39.393  29.363  29.518  1.00  0.00     0.198 A 
ATOM    145  F   UNL A   1      39.539  31.297  30.803  1.00  0.00    -0.203 F 
ATOM    146  F   UNL A   1      38.522  25.978  30.417  1.00  0.00    -0.200 F 
ATOM    147  C   UNL A   1      39.144  28.010  29.400  1.00  0.00     0.200 A 
ATOM    148  F   UNL A   1      39.730  30.079  28.432  1.00  0.00    -0.200 F 
ATOM    149  F   UNL A   1      39.238  27.407  28.206  1.00  0.00    -0.200 F 
ENDBRANCH 115 139
ENDBRANCH  80  83
ENDBRANCH  70  73
ENDBRANCH  66  69
ENDBRANCH  63  66
ENDBRANCH  60  63
ENDBRANCH  57  60
ENDBRANCH  54  57
ENDBRANCH   1  54
TORSDOF 21
ENDMDL
MODEL 9
REMARK VINA RESULT:     -10.8      7.476     14.021
REMARK SMILES CN(C)S(=O)(=O)c1ccc(-n2c(CCC(=O)NCCCCCCNC(=O)c3ccc(-c4c5nc(c(-c6c(F)c(F)c(F)c(F)c6F)c6ccc([nH]6)c(-c6c(F)c(F)c(F)c(F)c6F)c6nc(c(-c7c(F)c(F)c(F)c(F)c7F)c7ccc4[nH]7)C=C6)C=C5)cc3)ccc2-c2ccc(F)cc2)cc1
REMARK SMILES IDX 18 1 17 4 15 5 16 6 14 8 13 11 12 14 11 15 92 16 90 17 91 18
REMARK SMILES IDX 10 21 7 22 8 23 101 24 9 25 100 27 4 31 5 32 6 33 2 34 1 35
REMARK SMILES IDX 3 39 93 43 94 44 99 45 95 46 98 48 96 50 97 53 19 54 20 57
REMARK SMILES IDX 21 60 22 63 23 66 24 69 25 70 26 72 27 73 28 74 89 75 29 76
REMARK SMILES IDX 88 78 30 80 31 83 32 84 82 85 33 86 87 87 81 88 83 89 34 90
REMARK SMILES IDX 86 91 80 93 79 95 35 97 67 100 47 101 66 102 48 103 51 104
REMARK SMILES IDX 65 105 84 106 49 107 50 109 64 111 85 112 52 115 36 117
REMARK SMILES IDX 37 118 45 119 38 120 39 121 43 122 46 123 40 124 41 125
REMARK SMILES IDX 44 126 42 127 68 128 69 129 77 130 70 131 71 132 75 133
REMARK SMILES IDX 78 134 72 135 73 136 76 137 74 138 53 139 54 140 62 141
REMARK SMILES IDX 55 142 56 143 60 144 63 145 57 146 58 147 61 148 59 149
REMARK H PARENT 18 2 18 3 17 7 14 9 14 10 13 12 13 13 90 19 91 20 8 26 101 28
REMARK H PARENT 9 29 100 30 1 36 1 37 1 38 3 40 3 41 3 42 94 47 99 49 95 51
REMARK H PARENT 98 52 19 55 19 56 20 58 20 59 21 61 21 62 22 64 22 65 23 67
REMARK H PARENT 23 68 24 71 28 77 89 79 29 81 88 82 87 92 81 94 83 96 86 98
REMARK H PARENT 80 99 48 108 51 110 84 113 49 114 85 116
REMARK Flexibility Score: inf
ROOT
ATOM      1  C   UNL A   1      44.562  22.893  34.286  1.00  0.00     0.017 C 
ATOM      2  H   UNL A   1      44.118  23.167  33.352  1.00  0.00     0.049 H 
ATOM      3  H   UNL A   1      45.583  23.204  34.345  1.00  0.00     0.049 H 
ENDROOT
BRANCH   1   4
ATOM      4  N   UNL A   1      44.536  21.442  34.406  1.00  0.00    -0.356 N 
ATOM      5  C   UNL A   1      45.209  20.607  35.249  1.00  0.00     0.220 C 
ATOM      6  O   UNL A   1      44.959  19.399  35.186  1.00  0.00    -0.275 OA
ATOM      7  H   UNL A   1      43.934  20.988  33.773  1.00  0.00     0.163 HD
BRANCH   5   8
ATOM      8  C   UNL A   1      46.256  21.118  36.224  1.00  0.00     0.032 C 
ATOM      9  H   UNL A   1      46.345  22.174  36.083  1.00  0.00     0.037 H 
ATOM     10  H   UNL A   1      45.908  20.832  37.194  1.00  0.00     0.037 H 
BRANCH   8  11
ATOM     11  C   UNL A   1      47.662  20.504  36.091  1.00  0.00    -0.003 C 
ATOM     12  H   UNL A   1      47.618  19.723  35.360  1.00  0.00     0.034 H 
ATOM     13  H   UNL A   1      48.317  21.302  35.812  1.00  0.00     0.034 H 
BRANCH  11  14
ATOM     14  C   UNL A   1      48.217  19.921  37.370  1.00  0.00     0.024 A 
ATOM     15  N   UNL A   1      49.563  19.630  37.700  1.00  0.00    -0.314 N 
ATOM     16  C   UNL A   1      49.544  19.072  39.017  1.00  0.00     0.053 A 
ATOM     17  C   UNL A   1      47.415  19.518  38.426  1.00  0.00    -0.040 A 
ATOM     18  C   UNL A   1      48.228  18.992  39.437  1.00  0.00    -0.036 A 
ATOM     19  H   UNL A   1      46.387  19.594  38.463  1.00  0.00     0.064 H 
ATOM     20  H   UNL A   1      47.903  18.608  40.337  1.00  0.00     0.065 H 
BRANCH  15  21
ATOM     21  C   UNL A   1      50.773  20.001  36.973  1.00  0.00     0.046 A 
ATOM     22  C   UNL A   1      52.681  21.015  35.153  1.00  0.00     0.082 A 
ATOM     23  C   UNL A   1      52.246  21.795  36.215  1.00  0.00    -0.040 A 
ATOM     24  C   UNL A   1      52.236  19.710  35.032  1.00  0.00    -0.040 A 
ATOM     25  C   UNL A   1      51.377  21.250  37.161  1.00  0.00    -0.037 A 
ATOM     26  H   UNL A   1      52.563  22.773  36.305  1.00  0.00     0.064 H 
ATOM     27  C   UNL A   1      51.292  19.219  35.940  1.00  0.00    -0.037 A 
ATOM     28  H   UNL A   1      52.597  19.105  34.278  1.00  0.00     0.064 H 
ATOM     29  H   UNL A   1      51.175  21.780  38.023  1.00  0.00     0.065 H 
ATOM     30  H   UNL A   1      50.969  18.243  35.843  1.00  0.00     0.065 H 
BRANCH  22  31
ATOM     31  S   UNL A   1      53.790  21.692  33.953  1.00  0.00     0.242 S 
ATOM     32  O   UNL A   1      53.831  20.791  32.824  1.00  0.00    -0.207 OA
ATOM     33  O   UNL A   1      55.008  22.074  34.643  1.00  0.00    -0.207 OA
BRANCH  31  34
ATOM     34  N   UNL A   1      52.980  23.124  33.481  1.00  0.00    -0.204 NA
BRANCH  34  35
ATOM     35  C   UNL A   1      53.849  24.068  32.752  1.00  0.00     0.002 C 
ATOM     36  H   UNL A   1      54.835  23.661  32.677  1.00  0.00     0.041 H 
ATOM     37  H   UNL A   1      53.885  24.998  33.277  1.00  0.00     0.041 H 
ATOM     38  H   UNL A   1      53.454  24.228  31.769  1.00  0.00     0.041 H 
ENDBRANCH  34  35
BRANCH  34  39
ATOM     39  C   UNL A   1      51.676  22.930  32.806  1.00  0.00     0.002 C 
ATOM     40  H   UNL A   1      50.895  23.333  33.417  1.00  0.00     0.041 H 
ATOM     41  H   UNL A   1      51.506  21.885  32.653  1.00  0.00     0.041 H 
ATOM     42  H   UNL A   1      51.686  23.433  31.862  1.00  0.00     0.041 H 
ENDBRANCH  34  39
ENDBRANCH  31  34
ENDBRANCH  22  31
ENDBRANCH  15  21
BRANCH  16  43
ATOM     43  C   UNL A   1      50.718  18.872  39.886  1.00  0.00    -0.001 A 
ATOM     44  C   UNL A   1      51.087  19.771  40.889  1.00  0.00    -0.050 A 
ATOM     45  C   UNL A   1      51.434  17.674  39.777  1.00  0.00    -0.050 A 
ATOM     46  C   UNL A   1      52.081  19.409  41.812  1.00  0.00    -0.026 A 
ATOM     47  H   UNL A   1      50.632  20.696  40.950  1.00  0.00     0.063 H 
ATOM     48  C   UNL A   1      52.415  17.301  40.689  1.00  0.00    -0.026 A 
ATOM     49  H   UNL A   1      51.226  17.042  38.987  1.00  0.00     0.063 H 
ATOM     50  C   UNL A   1      52.721  18.172  41.717  1.00  0.00     0.123 A 
ATOM     51  H   UNL A   1      52.340  20.063  42.569  1.00  0.00     0.065 H 
ATOM     52  H   UNL A   1      52.904  16.396  40.601  1.00  0.00     0.065 H 
ATOM     53  F   UNL A   1      53.697  17.855  42.576  1.00  0.00    -0.207 F 
ENDBRANCH  16  43
ENDBRANCH  11  14
ENDBRANCH   8  11
ENDBRANCH   5   8
ENDBRANCH   1   4
BRANCH   1  54
ATOM     54  C   UNL A   1      43.801  23.592  35.412  1.00  0.00    -0.036 C 
ATOM     55  H   UNL A   1      44.289  24.527  35.600  1.00  0.00     0.028 H 
ATOM     56  H   UNL A   1      43.817  22.904  36.231  1.00  0.00     0.028 H 
BRANCH  54  57
ATOM     57  C   UNL A   1      42.315  23.888  35.168  1.00  0.00    -0.052 C 
ATOM     58  H   UNL A   1      41.769  23.033  35.509  1.00  0.00     0.027 H 
ATOM     59  H   UNL A   1      42.275  24.109  34.122  1.00  0.00     0.027 H 
BRANCH  57  60
ATOM     60  C   UNL A   1      41.653  25.134  35.823  1.00  0.00    -0.052 C 
ATOM     61  H   UNL A   1      40.599  24.956  35.792  1.00  0.00     0.027 H 
ATOM     62  H   UNL A   1      42.082  25.928  35.249  1.00  0.00     0.027 H 
BRANCH  60  63
ATOM     63  C   UNL A   1      41.964  25.595  37.268  1.00  0.00    -0.036 C 
ATOM     64  H   UNL A   1      41.475  24.903  37.922  1.00  0.00     0.028 H 
ATOM     65  H   UNL A   1      41.630  26.611  37.270  1.00  0.00     0.028 H 
BRANCH  63  66
ATOM     66  C   UNL A   1      43.434  25.714  37.767  1.00  0.00     0.018 C 
ATOM     67  H   UNL A   1      44.037  25.037  37.201  1.00  0.00     0.049 H 
ATOM     68  H   UNL A   1      43.426  25.483  38.812  1.00  0.00     0.049 H 
BRANCH  66  69
ATOM     69  N   UNL A   1      43.999  27.054  37.634  1.00  0.00    -0.352 N 
ATOM     70  C   UNL A   1      44.708  27.696  36.637  1.00  0.00     0.251 C 
ATOM     71  H   UNL A   1      43.842  27.621  38.423  1.00  0.00     0.163 HD
ATOM     72  O   UNL A   1      45.423  28.633  37.004  1.00  0.00    -0.269 OA
BRANCH  70  73
ATOM     73  C   UNL A   1      44.663  27.412  35.163  1.00  0.00     0.039 A 
ATOM     74  C   UNL A   1      43.443  27.616  34.484  1.00  0.00    -0.049 A 
ATOM     75  C   UNL A   1      45.691  26.814  34.445  1.00  0.00    -0.049 A 
ATOM     76  C   UNL A   1      43.269  27.246  33.135  1.00  0.00    -0.053 A 
ATOM     77  H   UNL A   1      42.655  28.051  34.989  1.00  0.00     0.063 H 
ATOM     78  C   UNL A   1      45.499  26.360  33.119  1.00  0.00    -0.053 A 
ATOM     79  H   UNL A   1      46.615  26.697  34.889  1.00  0.00     0.063 H 
ATOM     80  C   UNL A   1      44.303  26.617  32.435  1.00  0.00    -0.014 A 
ATOM     81  H   UNL A   1      42.372  27.441  32.662  1.00  0.00     0.063 H 
ATOM     82  H   UNL A   1      46.251  25.831  32.649  1.00  0.00     0.063 H 
BRANCH  80  83
ATOM     83  C   UNL A   1      44.289  26.640  30.930  1.00  0.00     0.031 A 
ATOM     84  C   UNL A   1      44.355  28.121  30.425  1.00  0.00     0.074 A 
ATOM     85  C   UNL A   1      44.208  25.467  30.208  1.00  0.00     0.049 A 
ATOM     86  N   UNL A   1      44.072  28.632  29.263  1.00  0.00    -0.248 NA
ATOM     87  C   UNL A   1      44.777  29.203  31.366  1.00  0.00    -0.034 C 
ATOM     88  C   UNL A   1      44.228  24.106  30.790  1.00  0.00    -0.036 A 
ATOM     89  N   UNL A   1      44.095  25.163  28.850  1.00  0.00    -0.354 N 
ATOM     90  C   UNL A   1      44.484  29.990  29.277  1.00  0.00     0.074 A 
ATOM     91  C   UNL A   1      44.816  30.306  30.624  1.00  0.00    -0.034 C 
ATOM     92  H   UNL A   1      44.992  29.114  32.371  1.00  0.00     0.065 H 
ATOM     93  C   UNL A   1      44.042  23.157  29.838  1.00  0.00    -0.036 A 
ATOM     94  H   UNL A   1      44.365  23.905  31.793  1.00  0.00     0.065 H 
ATOM     95  C   UNL A   1      43.904  23.777  28.532  1.00  0.00     0.049 A 
ATOM     96  H   UNL A   1      44.143  25.856  28.153  1.00  0.00     0.167 HD
ATOM     97  C   UNL A   1      44.667  30.735  28.149  1.00  0.00     0.037 A 
ATOM     98  H   UNL A   1      45.052  31.249  30.973  1.00  0.00     0.065 H 
ATOM     99  H   UNL A   1      44.003  22.141  30.017  1.00  0.00     0.065 H 
ATOM    100  C   UNL A   1      43.630  23.179  27.318  1.00  0.00     0.037 A 
ATOM    101  C   UNL A   1      44.198  30.012  27.024  1.00  0.00     0.049 A 
ATOM    102  C   UNL A   1      43.835  24.238  26.330  1.00  0.00     0.074 A 
ATOM    103  C   UNL A   1      42.939  29.642  26.636  1.00  0.00    -0.036 A 
ATOM    104  N   UNL A   1      45.127  29.269  26.345  1.00  0.00    -0.354 N 
ATOM    105  N   UNL A   1      45.003  24.644  25.936  1.00  0.00    -0.248 NA
ATOM    106  C   UNL A   1      42.666  24.897  25.736  1.00  0.00    -0.034 C 
ATOM    107  C   UNL A   1      43.141  28.351  26.117  1.00  0.00    -0.036 A 
ATOM    108  H   UNL A   1      42.060  30.178  26.706  1.00  0.00     0.065 H 
ATOM    109  C   UNL A   1      44.512  28.105  25.980  1.00  0.00     0.049 A 
ATOM    110  H   UNL A   1      46.059  29.524  26.158  1.00  0.00     0.167 HD
ATOM    111  C   UNL A   1      44.689  25.835  25.336  1.00  0.00     0.074 A 
ATOM    112  C   UNL A   1      43.301  25.754  24.940  1.00  0.00    -0.034 C 
ATOM    113  H   UNL A   1      41.657  24.743  25.889  1.00  0.00     0.065 H 
ATOM    114  H   UNL A   1      42.392  27.684  25.873  1.00  0.00     0.065 H 
ATOM    115  C   UNL A   1      45.338  26.949  25.752  1.00  0.00     0.037 A 
ATOM    116  H   UNL A   1      42.870  26.277  24.161  1.00  0.00     0.065 H 
BRANCH  97 117
ATOM    117  C   UNL A   1      45.481  31.973  27.875  1.00  0.00     0.064 A 
ATOM    118  C   UNL A   1      44.817  33.080  27.284  1.00  0.00     0.173 A 
ATOM    119  C   UNL A   1      46.878  31.963  27.766  1.00  0.00     0.173 A 
ATOM    120  F   UNL A   1      43.485  33.217  27.382  1.00  0.00    -0.203 F 
ATOM    121  C   UNL A   1      45.488  34.000  26.482  1.00  0.00     0.198 A 
ATOM    122  C   UNL A   1      47.553  32.925  27.009  1.00  0.00     0.198 A 
ATOM    123  F   UNL A   1      47.612  30.975  28.289  1.00  0.00    -0.203 F 
ATOM    124  F   UNL A   1      44.793  34.920  25.797  1.00  0.00    -0.200 F 
ATOM    125  C   UNL A   1      46.855  33.907  26.325  1.00  0.00     0.200 A 
ATOM    126  F   UNL A   1      48.883  32.841  26.871  1.00  0.00    -0.200 F 
ATOM    127  F   UNL A   1      47.495  34.734  25.488  1.00  0.00    -0.200 F 
ENDBRANCH  97 117
BRANCH 100 128
ATOM    128  C   UNL A   1      43.205  21.845  26.691  1.00  0.00     0.064 A 
ATOM    129  C   UNL A   1      43.978  21.034  25.856  1.00  0.00     0.173 A 
ATOM    130  C   UNL A   1      41.935  21.263  27.026  1.00  0.00     0.173 A 
ATOM    131  F   UNL A   1      45.130  21.480  25.347  1.00  0.00    -0.203 F 
ATOM    132  C   UNL A   1      43.575  19.722  25.501  1.00  0.00     0.198 A 
ATOM    133  C   UNL A   1      41.567  19.949  26.734  1.00  0.00     0.198 A 
ATOM    134  F   UNL A   1      40.978  21.954  27.658  1.00  0.00    -0.203 F 
ATOM    135  F   UNL A   1      44.351  18.983  24.695  1.00  0.00    -0.200 F 
ATOM    136  C   UNL A   1      42.400  19.165  25.982  1.00  0.00     0.200 A 
ATOM    137  F   UNL A   1      40.410  19.458  27.208  1.00  0.00    -0.200 F 
ATOM    138  F   UNL A   1      42.066  17.896  25.711  1.00  0.00    -0.200 F 
ENDBRANCH 100 128
BRANCH 115 139
ATOM    139  C   UNL A   1      46.721  26.683  26.316  1.00  0.00     0.064 A 
ATOM    140  C   UNL A   1      47.753  26.276  25.453  1.00  0.00     0.173 A 
ATOM    141  C   UNL A   1      47.032  26.684  27.687  1.00  0.00     0.173 A 
ATOM    142  F   UNL A   1      47.548  26.268  24.127  1.00  0.00    -0.203 F 
ATOM    143  C   UNL A   1      49.001  25.872  25.934  1.00  0.00     0.198 A 
ATOM    144  C   UNL A   1      48.282  26.282  28.171  1.00  0.00     0.198 A 
ATOM    145  F   UNL A   1      46.134  27.072  28.589  1.00  0.00    -0.203 F 
ATOM    146  F   UNL A   1      49.954  25.485  25.073  1.00  0.00    -0.200 F 
ATOM    147  C   UNL A   1      49.264  25.869  27.293  1.00  0.00     0.200 A 
ATOM    148  F   UNL A   1      48.530  26.303  29.491  1.00  0.00    -0.200 F 
ATOM    149  F   UNL A   1      50.465  25.490  27.753  1.00  0.00    -0.200 F 
ENDBRANCH 115 139
ENDBRANCH  80  83
ENDBRANCH  70  73
ENDBRANCH  66  69
ENDBRANCH  63  66
ENDBRANCH  60  63
ENDBRANCH  57  60
ENDBRANCH  54  57
ENDBRANCH   1  54
TORSDOF 21
ENDMDL
MODEL 10
REMARK VINA RESULT:     -10.7      9.973     16.386
REMARK SMILES CN(C)S(=O)(=O)c1ccc(-n2c(CCC(=O)NCCCCCCNC(=O)c3ccc(-c4c5nc(c(-c6c(F)c(F)c(F)c(F)c6F)c6ccc([nH]6)c(-c6c(F)c(F)c(F)c(F)c6F)c6nc(c(-c7c(F)c(F)c(F)c(F)c7F)c7ccc4[nH]7)C=C6)C=C5)cc3)ccc2-c2ccc(F)cc2)cc1
REMARK SMILES IDX 18 1 17 4 15 5 16 6 14 8 13 11 12 14 11 15 92 16 90 17 91 18
REMARK SMILES IDX 10 21 7 22 8 23 101 24 9 25 100 27 4 31 5 32 6 33 2 34 1 35
REMARK SMILES IDX 3 39 93 43 94 44 99 45 95 46 98 48 96 50 97 53 19 54 20 57
REMARK SMILES IDX 21 60 22 63 23 66 24 69 25 70 26 72 27 73 28 74 89 75 29 76
REMARK SMILES IDX 88 78 30 80 31 83 32 84 82 85 33 86 87 87 81 88 83 89 34 90
REMARK SMILES IDX 86 91 80 93 79 95 35 97 67 100 47 101 66 102 48 103 51 104
REMARK SMILES IDX 65 105 84 106 49 107 50 109 64 111 85 112 52 115 36 117
REMARK SMILES IDX 37 118 45 119 38 120 39 121 43 122 46 123 40 124 41 125
REMARK SMILES IDX 44 126 42 127 68 128 69 129 77 130 70 131 71 132 75 133
REMARK SMILES IDX 78 134 72 135 73 136 76 137 74 138 53 139 54 140 62 141
REMARK SMILES IDX 55 142 56 143 60 144 63 145 57 146 58 147 61 148 59 149
REMARK H PARENT 18 2 18 3 17 7 14 9 14 10 13 12 13 13 90 19 91 20 8 26 101 28
REMARK H PARENT 9 29 100 30 1 36 1 37 1 38 3 40 3 41 3 42 94 47 99 49 95 51
REMARK H PARENT 98 52 19 55 19 56 20 58 20 59 21 61 21 62 22 64 22 65 23 67
REMARK H PARENT 23 68 24 71 28 77 89 79 29 81 88 82 87 92 81 94 83 96 86 98
REMARK H PARENT 80 99 48 108 51 110 84 113 49 114 85 116
REMARK Flexibility Score: inf
ROOT
ATOM      1  C   UNL A   1      43.053  42.882  22.871  1.00  0.00     0.017 C 
ATOM      2  H   UNL A   1      43.554  43.769  23.199  1.00  0.00     0.049 H 
ATOM      3  H   UNL A   1      43.699  42.252  22.296  1.00  0.00     0.049 H 
ENDROOT
BRANCH   1   4
ATOM      4  N   UNL A   1      41.938  43.267  22.015  1.00  0.00    -0.356 N 
ATOM      5  C   UNL A   1      41.813  43.250  20.657  1.00  0.00     0.220 C 
ATOM      6  O   UNL A   1      40.724  43.574  20.174  1.00  0.00    -0.275 OA
ATOM      7  H   UNL A   1      41.145  43.593  22.497  1.00  0.00     0.163 HD
BRANCH   5   8
ATOM      8  C   UNL A   1      42.968  42.873  19.746  1.00  0.00     0.032 C 
ATOM      9  H   UNL A   1      43.837  43.394  20.086  1.00  0.00     0.037 H 
ATOM     10  H   UNL A   1      43.044  41.807  19.804  1.00  0.00     0.037 H 
BRANCH   8  11
ATOM     11  C   UNL A   1      42.782  43.191  18.250  1.00  0.00    -0.003 C 
ATOM     12  H   UNL A   1      43.581  42.730  17.708  1.00  0.00     0.034 H 
ATOM     13  H   UNL A   1      41.818  42.815  17.977  1.00  0.00     0.034 H 
BRANCH  11  14
ATOM     14  C   UNL A   1      42.776  44.666  17.917  1.00  0.00     0.024 A 
ATOM     15  N   UNL A   1      43.637  45.684  18.392  1.00  0.00    -0.314 N 
ATOM     16  C   UNL A   1      43.192  46.903  17.790  1.00  0.00     0.053 A 
ATOM     17  C   UNL A   1      41.825  45.251  17.095  1.00  0.00    -0.040 A 
ATOM     18  C   UNL A   1      42.076  46.625  17.020  1.00  0.00    -0.036 A 
ATOM     19  H   UNL A   1      41.059  44.754  16.616  1.00  0.00     0.064 H 
ATOM     20  H   UNL A   1      41.524  47.313  16.485  1.00  0.00     0.065 H 
BRANCH  15  21
ATOM     21  C   UNL A   1      44.868  45.541  19.164  1.00  0.00     0.046 A 
ATOM     22  C   UNL A   1      47.039  44.634  20.728  1.00  0.00     0.082 A 
ATOM     23  C   UNL A   1      47.070  44.502  19.347  1.00  0.00    -0.040 A 
ATOM     24  C   UNL A   1      45.975  45.282  21.332  1.00  0.00    -0.040 A 
ATOM     25  C   UNL A   1      46.036  45.040  18.579  1.00  0.00    -0.037 A 
ATOM     26  H   UNL A   1      47.852  44.008  18.890  1.00  0.00     0.064 H 
ATOM     27  C   UNL A   1      44.907  45.728  20.547  1.00  0.00    -0.037 A 
ATOM     28  H   UNL A   1      45.971  45.435  22.352  1.00  0.00     0.064 H 
ATOM     29  H   UNL A   1      46.136  45.069  17.552  1.00  0.00     0.065 H 
ATOM     30  H   UNL A   1      44.120  46.213  21.006  1.00  0.00     0.065 H 
BRANCH  22  31
ATOM     31  S   UNL A   1      48.348  43.964  21.711  1.00  0.00     0.242 S 
ATOM     32  O   UNL A   1      48.553  44.844  22.839  1.00  0.00    -0.207 OA
ATOM     33  O   UNL A   1      49.443  43.631  20.820  1.00  0.00    -0.207 OA
BRANCH  31  34
ATOM     34  N   UNL A   1      47.663  42.501  22.275  1.00  0.00    -0.204 NA
BRANCH  34  35
ATOM     35  C   UNL A   1      46.889  42.665  23.520  1.00  0.00     0.002 C 
ATOM     36  H   UNL A   1      46.834  41.727  24.032  1.00  0.00     0.041 H 
ATOM     37  H   UNL A   1      45.902  43.002  23.286  1.00  0.00     0.041 H 
ATOM     38  H   UNL A   1      47.373  43.385  24.148  1.00  0.00     0.041 H 
ENDBRANCH  34  35
BRANCH  34  39
ATOM     39  C   UNL A   1      46.932  41.704  21.264  1.00  0.00     0.002 C 
ATOM     40  H   UNL A   1      47.112  42.110  20.291  1.00  0.00     0.041 H 
ATOM     41  H   UNL A   1      45.883  41.736  21.475  1.00  0.00     0.041 H 
ATOM     42  H   UNL A   1      47.271  40.690  21.296  1.00  0.00     0.041 H 
ENDBRANCH  34  39
ENDBRANCH  31  34
ENDBRANCH  22  31
ENDBRANCH  15  21
BRANCH  16  43
ATOM     43  C   UNL A   1      43.936  48.175  17.765  1.00  0.00    -0.001 A 
ATOM     44  C   UNL A   1      44.965  48.440  16.859  1.00  0.00    -0.050 A 
ATOM     45  C   UNL A   1      43.522  49.208  18.615  1.00  0.00    -0.050 A 
ATOM     46  C   UNL A   1      45.477  49.743  16.753  1.00  0.00    -0.026 A 
ATOM     47  H   UNL A   1      45.347  47.681  16.272  1.00  0.00     0.063 H 
ATOM     48  C   UNL A   1      44.016  50.505  18.515  1.00  0.00    -0.026 A 
ATOM     49  H   UNL A   1      42.823  49.000  19.345  1.00  0.00     0.063 H 
ATOM     50  C   UNL A   1      44.985  50.766  17.565  1.00  0.00     0.123 A 
ATOM     51  H   UNL A   1      46.223  49.946  16.068  1.00  0.00     0.065 H 
ATOM     52  H   UNL A   1      43.667  51.253  19.134  1.00  0.00     0.065 H 
ATOM     53  F   UNL A   1      45.510  51.995  17.487  1.00  0.00    -0.207 F 
ENDBRANCH  16  43
ENDBRANCH  11  14
ENDBRANCH   8  11
ENDBRANCH   5   8
ENDBRANCH   1   4
BRANCH   1  54
ATOM     54  C   UNL A   1      42.609  42.089  24.099  1.00  0.00    -0.036 C 
ATOM     55  H   UNL A   1      42.441  41.078  23.788  1.00  0.00     0.028 H 
ATOM     56  H   UNL A   1      41.741  42.598  24.462  1.00  0.00     0.028 H 
BRANCH  54  57
ATOM     57  C   UNL A   1      43.577  42.052  25.290  1.00  0.00    -0.052 C 
ATOM     58  H   UNL A   1      43.344  42.896  25.904  1.00  0.00     0.027 H 
ATOM     59  H   UNL A   1      44.540  42.036  24.824  1.00  0.00     0.027 H 
BRANCH  57  60
ATOM     60  C   UNL A   1      43.610  40.810  26.225  1.00  0.00    -0.052 C 
ATOM     61  H   UNL A   1      43.948  39.995  25.619  1.00  0.00     0.027 H 
ATOM     62  H   UNL A   1      42.614  40.811  26.615  1.00  0.00     0.027 H 
BRANCH  60  63
ATOM     63  C   UNL A   1      44.449  40.751  27.525  1.00  0.00    -0.036 C 
ATOM     64  H   UNL A   1      43.980  41.412  28.222  1.00  0.00     0.028 H 
ATOM     65  H   UNL A   1      45.433  40.995  27.183  1.00  0.00     0.028 H 
BRANCH  63  66
ATOM     66  C   UNL A   1      44.669  39.402  28.270  1.00  0.00     0.018 C 
ATOM     67  H   UNL A   1      43.833  38.766  28.068  1.00  0.00     0.049 H 
ATOM     68  H   UNL A   1      44.767  39.635  29.310  1.00  0.00     0.049 H 
BRANCH  66  69
ATOM     69  N   UNL A   1      45.887  38.698  27.877  1.00  0.00    -0.352 N 
ATOM     70  C   UNL A   1      46.329  37.398  28.031  1.00  0.00     0.251 C 
ATOM     71  H   UNL A   1      46.530  39.272  27.403  1.00  0.00     0.163 HD
ATOM     72  O   UNL A   1      47.554  37.242  28.007  1.00  0.00    -0.269 OA
BRANCH  70  73
ATOM     73  C   UNL A   1      45.489  36.163  28.171  1.00  0.00     0.039 A 
ATOM     74  C   UNL A   1      45.644  35.382  29.336  1.00  0.00    -0.049 A 
ATOM     75  C   UNL A   1      44.678  35.644  27.168  1.00  0.00    -0.049 A 
ATOM     76  C   UNL A   1      45.001  34.137  29.491  1.00  0.00    -0.053 A 
ATOM     77  H   UNL A   1      46.245  35.732  30.098  1.00  0.00     0.063 H 
ATOM     78  C   UNL A   1      44.100  34.358  27.277  1.00  0.00    -0.053 A 
ATOM     79  H   UNL A   1      44.495  36.210  26.325  1.00  0.00     0.063 H 
ATOM     80  C   UNL A   1      44.214  33.614  28.460  1.00  0.00    -0.014 A 
ATOM     81  H   UNL A   1      45.113  33.608  30.370  1.00  0.00     0.063 H 
ATOM     82  H   UNL A   1      43.586  33.963  26.474  1.00  0.00     0.063 H 
BRANCH  80  83
ATOM     83  C   UNL A   1      43.194  32.554  28.782  1.00  0.00     0.031 A 
ATOM     84  C   UNL A   1      43.631  31.192  28.144  1.00  0.00     0.074 A 
ATOM     85  C   UNL A   1      42.071  32.859  29.522  1.00  0.00     0.049 A 
ATOM     86  N   UNL A   1      42.947  30.113  27.904  1.00  0.00    -0.248 NA
ATOM     87  C   UNL A   1      45.040  31.014  27.678  1.00  0.00    -0.034 C 
ATOM     88  C   UNL A   1      41.794  34.172  30.147  1.00  0.00    -0.036 A 
ATOM     89  N   UNL A   1      40.935  32.147  29.909  1.00  0.00    -0.354 N 
ATOM     90  C   UNL A   1      43.859  29.106  27.491  1.00  0.00     0.074 A 
ATOM     91  C   UNL A   1      45.111  29.747  27.278  1.00  0.00    -0.034 C 
ATOM     92  H   UNL A   1      45.794  31.719  27.669  1.00  0.00     0.065 H 
ATOM     93  C   UNL A   1      40.570  34.194  30.733  1.00  0.00    -0.036 A 
ATOM     94  H   UNL A   1      42.448  34.970  30.137  1.00  0.00     0.065 H 
ATOM     95  C   UNL A   1      39.919  32.904  30.584  1.00  0.00     0.049 A 
ATOM     96  H   UNL A   1      40.834  31.184  29.729  1.00  0.00     0.167 HD
ATOM     97  C   UNL A   1      43.563  27.774  27.492  1.00  0.00     0.037 A 
ATOM     98  H   UNL A   1      45.947  29.297  26.873  1.00  0.00     0.065 H 
ATOM     99  H   UNL A   1      40.161  35.009  31.215  1.00  0.00     0.065 H 
ATOM    100  C   UNL A   1      38.647  32.530  30.968  1.00  0.00     0.037 A 
ATOM    101  C   UNL A   1      42.184  27.596  27.767  1.00  0.00     0.049 A 
ATOM    102  C   UNL A   1      38.617  31.079  30.782  1.00  0.00     0.074 A 
ATOM    103  C   UNL A   1      41.063  27.896  27.042  1.00  0.00    -0.036 A 
ATOM    104  N   UNL A   1      41.845  27.384  29.077  1.00  0.00    -0.354 N 
ATOM    105  N   UNL A   1      39.176  30.234  31.593  1.00  0.00    -0.248 NA
ATOM    106  C   UNL A   1      37.920  30.522  29.616  1.00  0.00    -0.034 C 
ATOM    107  C   UNL A   1      40.169  28.349  28.029  1.00  0.00    -0.036 A 
ATOM    108  H   UNL A   1      40.910  27.810  26.026  1.00  0.00     0.065 H 
ATOM    109  C   UNL A   1      40.684  28.068  29.300  1.00  0.00     0.049 A 
ATOM    110  H   UNL A   1      42.343  26.845  29.732  1.00  0.00     0.167 HD
ATOM    111  C   UNL A   1      39.199  29.098  30.828  1.00  0.00     0.074 A 
ATOM    112  C   UNL A   1      38.148  29.231  29.844  1.00  0.00    -0.034 C 
ATOM    113  H   UNL A   1      37.408  30.990  28.852  1.00  0.00     0.065 H 
ATOM    114  H   UNL A   1      39.268  28.818  27.844  1.00  0.00     0.065 H 
ATOM    115  C   UNL A   1      40.388  28.474  30.648  1.00  0.00     0.037 A 
ATOM    116  H   UNL A   1      37.651  28.448  29.391  1.00  0.00     0.065 H 
BRANCH  97 117
ATOM    117  C   UNL A   1      44.433  26.545  27.536  1.00  0.00     0.064 A 
ATOM    118  C   UNL A   1      45.216  26.334  28.702  1.00  0.00     0.173 A 
ATOM    119  C   UNL A   1      44.839  25.851  26.389  1.00  0.00     0.173 A 
ATOM    120  F   UNL A   1      44.880  26.905  29.870  1.00  0.00    -0.203 F 
ATOM    121  C   UNL A   1      46.420  25.636  28.665  1.00  0.00     0.198 A 
ATOM    122  C   UNL A   1      46.019  25.101  26.375  1.00  0.00     0.198 A 
ATOM    123  F   UNL A   1      44.176  25.965  25.233  1.00  0.00    -0.203 F 
ATOM    124  F   UNL A   1      47.216  25.619  29.746  1.00  0.00    -0.200 F 
ATOM    125  C   UNL A   1      46.834  25.039  27.493  1.00  0.00     0.200 A 
ATOM    126  F   UNL A   1      46.410  24.510  25.237  1.00  0.00    -0.200 F 
ATOM    127  F   UNL A   1      48.030  24.441  27.426  1.00  0.00    -0.200 F 
ENDBRANCH  97 117
BRANCH 100 128
ATOM    128  C   UNL A   1      37.324  33.097  31.496  1.00  0.00     0.064 A 
ATOM    129  C   UNL A   1      36.223  33.491  30.732  1.00  0.00     0.173 A 
ATOM    130  C   UNL A   1      37.085  33.171  32.911  1.00  0.00     0.173 A 
ATOM    131  F   UNL A   1      36.318  33.603  29.404  1.00  0.00    -0.203 F 
ATOM    132  C   UNL A   1      34.972  33.801  31.322  1.00  0.00     0.198 A 
ATOM    133  C   UNL A   1      35.837  33.411  33.490  1.00  0.00     0.198 A 
ATOM    134  F   UNL A   1      38.066  33.016  33.809  1.00  0.00    -0.203 F 
ATOM    135  F   UNL A   1      33.945  34.177  30.545  1.00  0.00    -0.200 F 
ATOM    136  C   UNL A   1      34.768  33.710  32.690  1.00  0.00     0.200 A 
ATOM    137  F   UNL A   1      35.693  33.329  34.822  1.00  0.00    -0.200 F 
ATOM    138  F   UNL A   1      33.561  33.924  33.233  1.00  0.00    -0.200 F 
ENDBRANCH 100 128
BRANCH 115 139
ATOM    139  C   UNL A   1      41.377  28.691  31.779  1.00  0.00     0.064 A 
ATOM    140  C   UNL A   1      41.071  28.215  33.065  1.00  0.00     0.173 A 
ATOM    141  C   UNL A   1      42.546  29.465  31.672  1.00  0.00     0.173 A 
ATOM    142  F   UNL A   1      39.984  27.451  33.252  1.00  0.00    -0.203 F 
ATOM    143  C   UNL A   1      41.867  28.518  34.172  1.00  0.00     0.198 A 
ATOM    144  C   UNL A   1      43.346  29.767  32.779  1.00  0.00     0.198 A 
ATOM    145  F   UNL A   1      42.939  29.947  30.495  1.00  0.00    -0.203 F 
ATOM    146  F   UNL A   1      41.533  28.047  35.383  1.00  0.00    -0.200 F 
ATOM    147  C   UNL A   1      43.002  29.297  34.031  1.00  0.00     0.200 A 
ATOM    148  F   UNL A   1      44.456  30.508  32.623  1.00  0.00    -0.200 F 
ATOM    149  F   UNL A   1      43.771  29.579  35.093  1.00  0.00    -0.200 F 
ENDBRANCH 115 139
ENDBRANCH  80  83
ENDBRANCH  70  73
ENDBRANCH  66  69
ENDBRANCH  63  66
ENDBRANCH  60  63
ENDBRANCH  57  60
ENDBRANCH  54  57
ENDBRANCH   1  54
TORSDOF 21
ENDMDL
