MODEL 1
REMARK VINA RESULT:     -12.3      0.000      0.000
REMARK SMILES O=C(Cc1cccn1-c1ccc2c(c1)OCCO2)NCCCCCCNC(=O)c1ccc(-c2c3nc(c(-c4c(F)c(F)c(F)c(F)c4F)c4ccc([nH]4)c(-c4c(F)c(F)c(F)c(F)c4F)c4nc(c(-c5c(F)c(F)c(F)c(F)c5F)c5ccc2[nH]5)C=C4)C=C3)cc1
REMARK SMILES IDX 22 1 21 4 20 7 19 10 1 11 2 12 3 14 4 17 5 18 8 19 6 20 7 22
REMARK SMILES IDX 9 25 10 26 14 27 11 28 13 30 12 32 15 34 18 35 16 36 17 37
REMARK SMILES IDX 23 42 24 45 25 48 26 51 27 52 28 54 29 55 30 56 91 57 31 58
REMARK SMILES IDX 90 60 32 62 33 65 34 66 84 67 35 68 89 69 83 70 85 71 36 72
REMARK SMILES IDX 88 73 82 75 81 77 37 79 69 82 49 83 68 84 50 85 53 86 67 87
REMARK SMILES IDX 86 88 51 89 52 91 66 93 87 94 54 97 38 99 39 100 47 101
REMARK SMILES IDX 40 102 41 103 45 104 48 105 42 106 43 107 46 108 44 109
REMARK SMILES IDX 70 110 71 111 79 112 72 113 73 114 77 115 80 116 74 117
REMARK SMILES IDX 75 118 78 119 76 120 55 121 56 122 64 123 57 124 58 125
REMARK SMILES IDX 62 126 65 127 59 128 60 129 63 130 61 131
REMARK H PARENT 22 2 22 3 21 5 21 6 20 8 20 9 19 13 3 15 3 16 5 21 6 23 7 24
REMARK H PARENT 10 29 14 31 11 33 16 38 16 39 17 40 17 41 23 43 23 44 24 46
REMARK H PARENT 24 47 25 49 25 50 26 53 30 59 91 61 31 63 90 64 89 74 83 76
REMARK H PARENT 85 78 88 80 82 81 50 90 53 92 86 95 51 96 87 98
REMARK Flexibility Score: inf
ROOT
ATOM      1  C   UNL A   1      34.068  28.033  24.516  1.00  0.00    -0.052 C 
ATOM      2  H   UNL A   1      34.981  28.198  25.050  1.00  0.00     0.027 H 
ATOM      3  H   UNL A   1      33.970  27.039  24.133  1.00  0.00     0.027 H 
ENDROOT
BRANCH   1   4
ATOM      4  C   UNL A   1      34.059  28.960  23.294  1.00  0.00    -0.036 C 
ATOM      5  H   UNL A   1      33.397  29.776  23.500  1.00  0.00     0.028 H 
ATOM      6  H   UNL A   1      35.072  29.267  23.141  1.00  0.00     0.028 H 
BRANCH   4   7
ATOM      7  C   UNL A   1      33.608  28.299  21.993  1.00  0.00     0.017 C 
ATOM      8  H   UNL A   1      33.277  29.057  21.314  1.00  0.00     0.049 H 
ATOM      9  H   UNL A   1      34.437  27.760  21.585  1.00  0.00     0.049 H 
BRANCH   7  10
ATOM     10  N   UNL A   1      32.528  27.367  22.222  1.00  0.00    -0.356 N 
ATOM     11  O   UNL A   1      33.685  25.475  21.622  1.00  0.00    -0.275 OA
ATOM     12  C   UNL A   1      32.661  26.008  22.038  1.00  0.00     0.225 C 
ATOM     13  H   UNL A   1      31.658  27.719  22.522  1.00  0.00     0.163 HD
BRANCH  12  14
ATOM     14  C   UNL A   1      31.401  25.224  22.363  1.00  0.00     0.067 C 
ATOM     15  H   UNL A   1      31.576  24.190  22.150  1.00  0.00     0.043 H 
ATOM     16  H   UNL A   1      30.608  25.624  21.766  1.00  0.00     0.043 H 
BRANCH  14  17
ATOM     17  C   UNL A   1      30.991  25.354  23.810  1.00  0.00     0.032 A 
ATOM     18  C   UNL A   1      29.948  26.077  24.375  1.00  0.00    -0.040 A 
ATOM     19  N   UNL A   1      31.552  24.587  24.828  1.00  0.00    -0.320 N 
ATOM     20  C   UNL A   1      29.798  25.666  25.714  1.00  0.00    -0.044 A 
ATOM     21  H   UNL A   1      29.378  26.792  23.895  1.00  0.00     0.064 H 
ATOM     22  C   UNL A   1      30.758  24.714  25.951  1.00  0.00     0.009 A 
ATOM     23  H   UNL A   1      29.099  26.015  26.389  1.00  0.00     0.064 H 
ATOM     24  H   UNL A   1      30.869  24.178  26.826  1.00  0.00     0.082 H 
BRANCH  19  25
ATOM     25  C   UNL A   1      32.726  23.796  24.779  1.00  0.00     0.049 A 
ATOM     26  C   UNL A   1      32.644  22.462  24.360  1.00  0.00    -0.034 A 
ATOM     27  C   UNL A   1      33.946  24.330  25.209  1.00  0.00     0.008 A 
ATOM     28  C   UNL A   1      33.797  21.674  24.333  1.00  0.00    -0.014 A 
ATOM     29  H   UNL A   1      31.737  22.063  24.073  1.00  0.00     0.065 H 
ATOM     30  C   UNL A   1      35.088  23.531  25.195  1.00  0.00     0.163 A 
ATOM     31  H   UNL A   1      34.000  25.307  25.534  1.00  0.00     0.069 H 
ATOM     32  C   UNL A   1      35.012  22.203  24.767  1.00  0.00     0.161 A 
ATOM     33  H   UNL A   1      33.749  20.701  23.994  1.00  0.00     0.066 H 
ATOM     34  O   UNL A   1      36.247  24.114  25.643  1.00  0.00    -0.486 OA
ATOM     35  O   UNL A   1      36.092  21.357  24.752  1.00  0.00    -0.486 OA
ATOM     36  C   UNL A   1      37.396  23.330  25.308  1.00  0.00     0.122 C 
ATOM     37  C   UNL A   1      37.146  21.855  25.583  1.00  0.00     0.122 C 
ATOM     38  H   UNL A   1      38.228  23.658  25.895  1.00  0.00     0.074 H 
ATOM     39  H   UNL A   1      37.601  23.452  24.265  1.00  0.00     0.074 H 
ATOM     40  H   UNL A   1      36.873  21.731  26.611  1.00  0.00     0.074 H 
ATOM     41  H   UNL A   1      38.041  21.309  25.368  1.00  0.00     0.074 H 
ENDBRANCH  19  25
ENDBRANCH  14  17
ENDBRANCH  12  14
ENDBRANCH   7  10
ENDBRANCH   4   7
ENDBRANCH   1   4
BRANCH   1  42
ATOM     42  C   UNL A   1      32.906  28.225  25.496  1.00  0.00    -0.052 C 
ATOM     43  H   UNL A   1      32.406  27.285  25.605  1.00  0.00     0.027 H 
ATOM     44  H   UNL A   1      32.287  28.991  25.076  1.00  0.00     0.027 H 
BRANCH  42  45
ATOM     45  C   UNL A   1      33.302  28.717  26.894  1.00  0.00    -0.036 C 
ATOM     46  H   UNL A   1      32.882  28.050  27.618  1.00  0.00     0.028 H 
ATOM     47  H   UNL A   1      32.930  29.716  26.988  1.00  0.00     0.028 H 
BRANCH  45  48
ATOM     48  C   UNL A   1      34.813  28.785  27.124  1.00  0.00     0.018 C 
ATOM     49  H   UNL A   1      35.313  28.329  26.296  1.00  0.00     0.049 H 
ATOM     50  H   UNL A   1      35.042  28.269  28.032  1.00  0.00     0.049 H 
BRANCH  48  51
ATOM     51  N   UNL A   1      35.259  30.163  27.249  1.00  0.00    -0.352 N 
ATOM     52  C   UNL A   1      36.360  30.677  27.883  1.00  0.00     0.251 C 
ATOM     53  H   UNL A   1      34.682  30.828  26.811  1.00  0.00     0.163 HD
ATOM     54  O   UNL A   1      36.363  31.857  28.213  1.00  0.00    -0.269 OA
BRANCH  52  55
ATOM     55  C   UNL A   1      37.541  29.841  28.184  1.00  0.00     0.039 A 
ATOM     56  C   UNL A   1      38.550  29.766  27.214  1.00  0.00    -0.049 A 
ATOM     57  C   UNL A   1      37.615  29.054  29.338  1.00  0.00    -0.049 A 
ATOM     58  C   UNL A   1      39.656  28.949  27.425  1.00  0.00    -0.053 A 
ATOM     59  H   UNL A   1      38.474  30.317  26.345  1.00  0.00     0.063 H 
ATOM     60  C   UNL A   1      38.731  28.253  29.566  1.00  0.00    -0.053 A 
ATOM     61  H   UNL A   1      36.842  29.066  30.021  1.00  0.00     0.063 H 
ATOM     62  C   UNL A   1      39.757  28.216  28.615  1.00  0.00    -0.014 A 
ATOM     63  H   UNL A   1      40.397  28.884  26.710  1.00  0.00     0.063 H 
ATOM     64  H   UNL A   1      38.801  27.693  30.429  1.00  0.00     0.063 H 
BRANCH  62  65
ATOM     65  C   UNL A   1      41.049  27.568  28.932  1.00  0.00     0.031 A 
ATOM     66  C   UNL A   1      41.093  26.120  28.374  1.00  0.00     0.074 A 
ATOM     67  C   UNL A   1      41.945  28.314  29.652  1.00  0.00     0.049 A 
ATOM     68  N   UNL A   1      41.781  25.086  28.754  1.00  0.00    -0.248 NA
ATOM     69  C   UNL A   1      40.185  25.756  27.246  1.00  0.00    -0.034 C 
ATOM     70  C   UNL A   1      41.745  29.729  30.043  1.00  0.00    -0.036 A 
ATOM     71  N   UNL A   1      43.186  28.061  30.205  1.00  0.00    -0.354 N 
ATOM     72  C   UNL A   1      41.552  24.043  27.820  1.00  0.00     0.074 A 
ATOM     73  C   UNL A   1      40.478  24.479  26.985  1.00  0.00    -0.034 C 
ATOM     74  H   UNL A   1      39.489  26.355  26.775  1.00  0.00     0.065 H 
ATOM     75  C   UNL A   1      42.759  30.170  30.820  1.00  0.00    -0.036 A 
ATOM     76  H   UNL A   1      40.936  30.303  29.760  1.00  0.00     0.065 H 
ATOM     77  C   UNL A   1      43.724  29.105  31.014  1.00  0.00     0.049 A 
ATOM     78  H   UNL A   1      43.667  27.216  30.051  1.00  0.00     0.167 HD
ATOM     79  C   UNL A   1      42.360  22.944  27.711  1.00  0.00     0.037 A 
ATOM     80  H   UNL A   1      39.998  23.895  26.284  1.00  0.00     0.065 H 
ATOM     81  H   UNL A   1      42.837  31.121  31.215  1.00  0.00     0.065 H 
ATOM     82  C   UNL A   1      44.834  29.089  31.821  1.00  0.00     0.037 A 
ATOM     83  C   UNL A   1      43.362  22.991  28.717  1.00  0.00     0.049 A 
ATOM     84  C   UNL A   1      45.467  27.797  31.540  1.00  0.00     0.074 A 
ATOM     85  C   UNL A   1      43.318  22.780  30.068  1.00  0.00    -0.036 A 
ATOM     86  N   UNL A   1      44.527  23.639  28.395  1.00  0.00    -0.354 N 
ATOM     87  N   UNL A   1      46.128  27.525  30.456  1.00  0.00    -0.248 NA
ATOM     88  C   UNL A   1      45.271  26.696  32.490  1.00  0.00    -0.034 C 
ATOM     89  C   UNL A   1      44.212  23.746  30.569  1.00  0.00    -0.036 A 
ATOM     90  H   UNL A   1      42.763  22.085  30.592  1.00  0.00     0.065 H 
ATOM     91  C   UNL A   1      44.927  24.324  29.513  1.00  0.00     0.049 A 
ATOM     92  H   UNL A   1      44.989  23.617  27.526  1.00  0.00     0.167 HD
ATOM     93  C   UNL A   1      46.121  26.153  30.457  1.00  0.00     0.074 A 
ATOM     94  C   UNL A   1      45.901  25.735  31.823  1.00  0.00    -0.034 C 
ATOM     95  H   UNL A   1      44.787  26.674  33.402  1.00  0.00     0.065 H 
ATOM     96  H   UNL A   1      44.325  23.990  31.566  1.00  0.00     0.065 H 
ATOM     97  C   UNL A   1      45.752  25.490  29.332  1.00  0.00     0.037 A 
ATOM     98  H   UNL A   1      46.191  24.827  32.221  1.00  0.00     0.065 H 
BRANCH  79  99
ATOM     99  C   UNL A   1      42.543  21.894  26.643  1.00  0.00     0.064 A 
ATOM    100  C   UNL A   1      42.067  20.582  26.912  1.00  0.00     0.173 A 
ATOM    101  C   UNL A   1      43.471  22.006  25.601  1.00  0.00     0.173 A 
ATOM    102  F   UNL A   1      41.124  20.369  27.843  1.00  0.00    -0.203 F 
ATOM    103  C   UNL A   1      42.615  19.453  26.305  1.00  0.00     0.198 A 
ATOM    104  C   UNL A   1      43.979  20.873  24.955  1.00  0.00     0.198 A 
ATOM    105  F   UNL A   1      43.984  23.194  25.255  1.00  0.00    -0.203 F 
ATOM    106  F   UNL A   1      42.250  18.230  26.712  1.00  0.00    -0.200 F 
ATOM    107  C   UNL A   1      43.590  19.600  25.340  1.00  0.00     0.200 A 
ATOM    108  F   UNL A   1      44.915  21.016  24.006  1.00  0.00    -0.200 F 
ATOM    109  F   UNL A   1      44.181  18.520  24.810  1.00  0.00    -0.200 F 
ENDBRANCH  79  99
BRANCH  82 110
ATOM    110  C   UNL A   1      45.496  29.922  32.904  1.00  0.00     0.064 A 
ATOM    111  C   UNL A   1      46.695  30.634  32.791  1.00  0.00     0.173 A 
ATOM    112  C   UNL A   1      44.838  30.103  34.162  1.00  0.00     0.173 A 
ATOM    113  F   UNL A   1      47.497  30.466  31.735  1.00  0.00    -0.203 F 
ATOM    114  C   UNL A   1      47.122  31.542  33.784  1.00  0.00     0.198 A 
ATOM    115  C   UNL A   1      45.227  31.040  35.117  1.00  0.00     0.198 A 
ATOM    116  F   UNL A   1      43.775  29.369  34.515  1.00  0.00    -0.203 F 
ATOM    117  F   UNL A   1      48.275  32.207  33.624  1.00  0.00    -0.200 F 
ATOM    118  C   UNL A   1      46.365  31.780  34.920  1.00  0.00     0.200 A 
ATOM    119  F   UNL A   1      44.474  31.227  36.211  1.00  0.00    -0.200 F 
ATOM    120  F   UNL A   1      46.734  32.699  35.821  1.00  0.00    -0.200 F 
ENDBRANCH  82 110
BRANCH  97 121
ATOM    121  C   UNL A   1      45.923  26.298  28.057  1.00  0.00     0.064 A 
ATOM    122  C   UNL A   1      47.209  26.674  27.637  1.00  0.00     0.173 A 
ATOM    123  C   UNL A   1      44.857  26.826  27.306  1.00  0.00     0.173 A 
ATOM    124  F   UNL A   1      48.285  26.199  28.282  1.00  0.00    -0.203 F 
ATOM    125  C   UNL A   1      47.410  27.539  26.557  1.00  0.00     0.198 A 
ATOM    126  C   UNL A   1      45.053  27.687  26.222  1.00  0.00     0.198 A 
ATOM    127  F   UNL A   1      43.599  26.516  27.601  1.00  0.00    -0.203 F 
ATOM    128  F   UNL A   1      48.655  27.875  26.196  1.00  0.00    -0.200 F 
ATOM    129  C   UNL A   1      46.332  28.049  25.852  1.00  0.00     0.200 A 
ATOM    130  F   UNL A   1      43.997  28.156  25.539  1.00  0.00    -0.200 F 
ATOM    131  F   UNL A   1      46.525  28.871  24.811  1.00  0.00    -0.200 F 
ENDBRANCH  97 121
ENDBRANCH  62  65
ENDBRANCH  52  55
ENDBRANCH  48  51
ENDBRANCH  45  48
ENDBRANCH  42  45
ENDBRANCH   1  42
TORSDOF 15
ENDMDL
MODEL 2
REMARK VINA RESULT:     -12.0      4.256      9.165
REMARK SMILES O=C(Cc1cccn1-c1ccc2c(c1)OCCO2)NCCCCCCNC(=O)c1ccc(-c2c3nc(c(-c4c(F)c(F)c(F)c(F)c4F)c4ccc([nH]4)c(-c4c(F)c(F)c(F)c(F)c4F)c4nc(c(-c5c(F)c(F)c(F)c(F)c5F)c5ccc2[nH]5)C=C4)C=C3)cc1
REMARK SMILES IDX 22 1 21 4 20 7 19 10 1 11 2 12 3 14 4 17 5 18 8 19 6 20 7 22
REMARK SMILES IDX 9 25 10 26 14 27 11 28 13 30 12 32 15 34 18 35 16 36 17 37
REMARK SMILES IDX 23 42 24 45 25 48 26 51 27 52 28 54 29 55 30 56 91 57 31 58
REMARK SMILES IDX 90 60 32 62 33 65 34 66 84 67 35 68 89 69 83 70 85 71 36 72
REMARK SMILES IDX 88 73 82 75 81 77 37 79 69 82 49 83 68 84 50 85 53 86 67 87
REMARK SMILES IDX 86 88 51 89 52 91 66 93 87 94 54 97 38 99 39 100 47 101
REMARK SMILES IDX 40 102 41 103 45 104 48 105 42 106 43 107 46 108 44 109
REMARK SMILES IDX 70 110 71 111 79 112 72 113 73 114 77 115 80 116 74 117
REMARK SMILES IDX 75 118 78 119 76 120 55 121 56 122 64 123 57 124 58 125
REMARK SMILES IDX 62 126 65 127 59 128 60 129 63 130 61 131
REMARK H PARENT 22 2 22 3 21 5 21 6 20 8 20 9 19 13 3 15 3 16 5 21 6 23 7 24
REMARK H PARENT 10 29 14 31 11 33 16 38 16 39 17 40 17 41 23 43 23 44 24 46
REMARK H PARENT 24 47 25 49 25 50 26 53 30 59 91 61 31 63 90 64 89 74 83 76
REMARK H PARENT 85 78 88 80 82 81 50 90 53 92 86 95 51 96 87 98
REMARK Flexibility Score: inf
ROOT
ATOM      1  C   UNL A   1      35.027  21.397  25.829  1.00  0.00    -0.052 C 
ATOM      2  H   UNL A   1      34.331  21.907  25.196  1.00  0.00     0.027 H 
ATOM      3  H   UNL A   1      34.942  20.331  25.788  1.00  0.00     0.027 H 
ENDROOT
BRANCH   1   4
ATOM      4  C   UNL A   1      34.724  21.790  27.281  1.00  0.00    -0.036 C 
ATOM      5  H   UNL A   1      35.078  21.008  27.919  1.00  0.00     0.028 H 
ATOM      6  H   UNL A   1      35.215  22.726  27.447  1.00  0.00     0.028 H 
BRANCH   4   7
ATOM      7  C   UNL A   1      33.245  22.020  27.585  1.00  0.00     0.017 C 
ATOM      8  H   UNL A   1      32.834  21.128  28.010  1.00  0.00     0.049 H 
ATOM      9  H   UNL A   1      33.166  22.839  28.270  1.00  0.00     0.049 H 
BRANCH   7  10
ATOM     10  N   UNL A   1      32.506  22.355  26.389  1.00  0.00    -0.356 N 
ATOM     11  O   UNL A   1      31.254  24.042  27.321  1.00  0.00    -0.275 OA
ATOM     12  C   UNL A   1      31.573  23.369  26.346  1.00  0.00     0.225 C 
ATOM     13  H   UNL A   1      32.677  21.836  25.570  1.00  0.00     0.163 HD
BRANCH  12  14
ATOM     14  C   UNL A   1      30.941  23.554  24.977  1.00  0.00     0.067 C 
ATOM     15  H   UNL A   1      30.377  24.464  24.980  1.00  0.00     0.043 H 
ATOM     16  H   UNL A   1      30.320  22.704  24.789  1.00  0.00     0.043 H 
BRANCH  14  17
ATOM     17  C   UNL A   1      31.962  23.626  23.868  1.00  0.00     0.032 A 
ATOM     18  C   UNL A   1      32.257  22.703  22.872  1.00  0.00    -0.040 A 
ATOM     19  N   UNL A   1      32.693  24.777  23.584  1.00  0.00    -0.320 N 
ATOM     20  C   UNL A   1      33.079  23.331  21.915  1.00  0.00    -0.044 A 
ATOM     21  H   UNL A   1      31.928  21.725  22.838  1.00  0.00     0.064 H 
ATOM     22  C   UNL A   1      33.286  24.617  22.348  1.00  0.00     0.009 A 
ATOM     23  H   UNL A   1      33.454  22.904  21.053  1.00  0.00     0.064 H 
ATOM     24  H   UNL A   1      33.803  25.347  21.832  1.00  0.00     0.082 H 
BRANCH  19  25
ATOM     25  C   UNL A   1      32.835  25.939  24.381  1.00  0.00     0.049 A 
ATOM     26  C   UNL A   1      33.839  25.991  25.357  1.00  0.00    -0.034 A 
ATOM     27  C   UNL A   1      31.934  27.000  24.236  1.00  0.00     0.008 A 
ATOM     28  C   UNL A   1      33.965  27.126  26.160  1.00  0.00    -0.014 A 
ATOM     29  H   UNL A   1      34.483  25.193  25.482  1.00  0.00     0.065 H 
ATOM     30  C   UNL A   1      32.057  28.122  25.053  1.00  0.00     0.163 A 
ATOM     31  H   UNL A   1      31.184  26.952  23.529  1.00  0.00     0.069 H 
ATOM     32  C   UNL A   1      33.065  28.181  26.020  1.00  0.00     0.161 A 
ATOM     33  H   UNL A   1      34.724  27.184  26.857  1.00  0.00     0.066 H 
ATOM     34  O   UNL A   1      31.132  29.118  24.867  1.00  0.00    -0.486 OA
ATOM     35  O   UNL A   1      33.225  29.244  26.872  1.00  0.00    -0.486 OA
ATOM     36  C   UNL A   1      31.519  30.328  25.524  1.00  0.00     0.122 C 
ATOM     37  C   UNL A   1      32.038  30.043  26.925  1.00  0.00     0.122 C 
ATOM     38  H   UNL A   1      30.671  30.978  25.591  1.00  0.00     0.074 H 
ATOM     39  H   UNL A   1      32.300  30.790  24.958  1.00  0.00     0.074 H 
ATOM     40  H   UNL A   1      31.286  29.521  27.479  1.00  0.00     0.074 H 
ATOM     41  H   UNL A   1      32.271  30.974  27.401  1.00  0.00     0.074 H 
ENDBRANCH  19  25
ENDBRANCH  14  17
ENDBRANCH  12  14
ENDBRANCH   7  10
ENDBRANCH   4   7
ENDBRANCH   1   4
BRANCH   1  42
ATOM     42  C   UNL A   1      36.441  21.727  25.340  1.00  0.00    -0.052 C 
ATOM     43  H   UNL A   1      36.644  21.121  24.481  1.00  0.00     0.027 H 
ATOM     44  H   UNL A   1      37.094  21.532  26.164  1.00  0.00     0.027 H 
BRANCH  42  45
ATOM     45  C   UNL A   1      36.673  23.193  24.951  1.00  0.00    -0.036 C 
ATOM     46  H   UNL A   1      35.722  23.646  24.760  1.00  0.00     0.028 H 
ATOM     47  H   UNL A   1      37.308  23.189  24.089  1.00  0.00     0.028 H 
BRANCH  45  48
ATOM     48  C   UNL A   1      37.389  24.015  26.023  1.00  0.00     0.018 C 
ATOM     49  H   UNL A   1      36.731  24.153  26.856  1.00  0.00     0.049 H 
ATOM     50  H   UNL A   1      37.663  24.959  25.603  1.00  0.00     0.049 H 
BRANCH  48  51
ATOM     51  N   UNL A   1      38.594  23.343  26.478  1.00  0.00    -0.352 N 
ATOM     52  C   UNL A   1      39.785  23.867  26.910  1.00  0.00     0.251 C 
ATOM     53  H   UNL A   1      38.548  22.360  26.475  1.00  0.00     0.163 HD
ATOM     54  O   UNL A   1      40.792  23.169  26.878  1.00  0.00    -0.269 OA
BRANCH  52  55
ATOM     55  C   UNL A   1      39.884  25.254  27.409  1.00  0.00     0.039 A 
ATOM     56  C   UNL A   1      39.444  25.510  28.716  1.00  0.00    -0.049 A 
ATOM     57  C   UNL A   1      40.291  26.309  26.585  1.00  0.00    -0.049 A 
ATOM     58  C   UNL A   1      39.465  26.808  29.213  1.00  0.00    -0.053 A 
ATOM     59  H   UNL A   1      39.107  24.736  29.308  1.00  0.00     0.063 H 
ATOM     60  C   UNL A   1      40.337  27.607  27.085  1.00  0.00    -0.053 A 
ATOM     61  H   UNL A   1      40.556  26.125  25.605  1.00  0.00     0.063 H 
ATOM     62  C   UNL A   1      39.938  27.850  28.405  1.00  0.00    -0.014 A 
ATOM     63  H   UNL A   1      39.134  27.002  30.171  1.00  0.00     0.063 H 
ATOM     64  H   UNL A   1      40.662  28.383  26.489  1.00  0.00     0.063 H 
BRANCH  62  65
ATOM     65  C   UNL A   1      40.197  29.164  29.035  1.00  0.00     0.031 A 
ATOM     66  C   UNL A   1      38.885  29.983  29.166  1.00  0.00     0.074 A 
ATOM     67  C   UNL A   1      41.499  29.437  29.364  1.00  0.00     0.049 A 
ATOM     68  N   UNL A   1      38.689  31.265  29.239  1.00  0.00    -0.248 NA
ATOM     69  C   UNL A   1      37.581  29.256  29.162  1.00  0.00    -0.034 C 
ATOM     70  C   UNL A   1      42.624  28.484  29.221  1.00  0.00    -0.036 A 
ATOM     71  N   UNL A   1      42.153  30.542  29.875  1.00  0.00    -0.354 N 
ATOM     72  C   UNL A   1      37.309  31.481  29.487  1.00  0.00     0.074 A 
ATOM     73  C   UNL A   1      36.666  30.217  29.315  1.00  0.00    -0.034 C 
ATOM     74  H   UNL A   1      37.422  28.242  29.063  1.00  0.00     0.065 H 
ATOM     75  C   UNL A   1      43.801  29.064  29.546  1.00  0.00    -0.036 A 
ATOM     76  H   UNL A   1      42.524  27.505  28.912  1.00  0.00     0.065 H 
ATOM     77  C   UNL A   1      43.575  30.441  29.938  1.00  0.00     0.049 A 
ATOM     78  H   UNL A   1      41.671  31.345  30.178  1.00  0.00     0.167 HD
ATOM     79  C   UNL A   1      36.809  32.667  29.954  1.00  0.00     0.037 A 
ATOM     80  H   UNL A   1      35.646  30.068  29.309  1.00  0.00     0.065 H 
ATOM     81  H   UNL A   1      44.722  28.598  29.520  1.00  0.00     0.065 H 
ATOM     82  C   UNL A   1      44.498  31.414  30.230  1.00  0.00     0.037 A 
ATOM     83  C   UNL A   1      37.859  33.619  30.049  1.00  0.00     0.049 A 
ATOM     84  C   UNL A   1      43.692  32.566  30.645  1.00  0.00     0.074 A 
ATOM     85  C   UNL A   1      38.547  34.325  29.100  1.00  0.00    -0.036 A 
ATOM     86  N   UNL A   1      38.544  33.664  31.236  1.00  0.00    -0.354 N 
ATOM     87  N   UNL A   1      43.082  32.660  31.787  1.00  0.00    -0.248 NA
ATOM     88  C   UNL A   1      43.468  33.650  29.683  1.00  0.00    -0.034 C 
ATOM     89  C   UNL A   1      39.860  34.346  29.611  1.00  0.00    -0.036 A 
ATOM     90  H   UNL A   1      38.192  34.740  28.224  1.00  0.00     0.065 H 
ATOM     91  C   UNL A   1      39.862  33.876  30.930  1.00  0.00     0.049 A 
ATOM     92  H   UNL A   1      38.160  33.562  32.137  1.00  0.00     0.167 HD
ATOM     93  C   UNL A   1      42.152  33.636  31.532  1.00  0.00     0.074 A 
ATOM     94  C   UNL A   1      42.643  34.400  30.406  1.00  0.00    -0.034 C 
ATOM     95  H   UNL A   1      43.840  33.790  28.729  1.00  0.00     0.065 H 
ATOM     96  H   UNL A   1      40.694  34.661  29.092  1.00  0.00     0.065 H 
ATOM     97  C   UNL A   1      40.856  33.422  31.870  1.00  0.00     0.037 A 
ATOM     98  H   UNL A   1      42.390  35.378  30.197  1.00  0.00     0.065 H 
BRANCH  79  99
ATOM     99  C   UNL A   1      35.499  33.059  30.591  1.00  0.00     0.064 A 
ATOM    100  C   UNL A   1      34.774  34.137  30.013  1.00  0.00     0.173 A 
ATOM    101  C   UNL A   1      35.145  32.719  31.902  1.00  0.00     0.173 A 
ATOM    102  F   UNL A   1      34.984  34.503  28.739  1.00  0.00    -0.203 F 
ATOM    103  C   UNL A   1      33.895  34.924  30.754  1.00  0.00     0.198 A 
ATOM    104  C   UNL A   1      34.220  33.478  32.626  1.00  0.00     0.198 A 
ATOM    105  F   UNL A   1      35.756  31.715  32.545  1.00  0.00    -0.203 F 
ATOM    106  F   UNL A   1      33.364  36.028  30.211  1.00  0.00    -0.200 F 
ATOM    107  C   UNL A   1      33.635  34.606  32.071  1.00  0.00     0.200 A 
ATOM    108  F   UNL A   1      33.955  33.160  33.901  1.00  0.00    -0.200 F 
ATOM    109  F   UNL A   1      32.855  35.403  32.815  1.00  0.00    -0.200 F 
ENDBRANCH  79  99
BRANCH  82 110
ATOM    110  C   UNL A   1      45.997  31.651  30.167  1.00  0.00     0.064 A 
ATOM    111  C   UNL A   1      46.876  31.712  31.253  1.00  0.00     0.173 A 
ATOM    112  C   UNL A   1      46.647  31.747  28.897  1.00  0.00     0.173 A 
ATOM    113  F   UNL A   1      46.417  31.773  32.507  1.00  0.00    -0.203 F 
ATOM    114  C   UNL A   1      48.277  31.730  31.081  1.00  0.00     0.198 A 
ATOM    115  C   UNL A   1      48.030  31.708  28.724  1.00  0.00     0.198 A 
ATOM    116  F   UNL A   1      45.956  31.881  27.757  1.00  0.00    -0.203 F 
ATOM    117  F   UNL A   1      49.078  31.781  32.155  1.00  0.00    -0.200 F 
ATOM    118  C   UNL A   1      48.851  31.679  29.821  1.00  0.00     0.200 A 
ATOM    119  F   UNL A   1      48.544  31.676  27.486  1.00  0.00    -0.200 F 
ATOM    120  F   UNL A   1      50.180  31.618  29.665  1.00  0.00    -0.200 F 
ENDBRANCH  82 110
BRANCH  97 121
ATOM    121  C   UNL A   1      40.667  32.393  32.970  1.00  0.00     0.064 A 
ATOM    122  C   UNL A   1      41.128  32.668  34.268  1.00  0.00     0.173 A 
ATOM    123  C   UNL A   1      40.167  31.095  32.763  1.00  0.00     0.173 A 
ATOM    124  F   UNL A   1      41.601  33.889  34.561  1.00  0.00    -0.203 F 
ATOM    125  C   UNL A   1      41.113  31.701  35.278  1.00  0.00     0.198 A 
ATOM    126  C   UNL A   1      40.145  30.126  33.770  1.00  0.00     0.198 A 
ATOM    127  F   UNL A   1      39.683  30.735  31.579  1.00  0.00    -0.203 F 
ATOM    128  F   UNL A   1      41.569  32.007  36.500  1.00  0.00    -0.200 F 
ATOM    129  C   UNL A   1      40.626  30.429  35.028  1.00  0.00     0.200 A 
ATOM    130  F   UNL A   1      39.652  28.904  33.516  1.00  0.00    -0.200 F 
ATOM    131  F   UNL A   1      40.603  29.504  35.999  1.00  0.00    -0.200 F 
ENDBRANCH  97 121
ENDBRANCH  62  65
ENDBRANCH  52  55
ENDBRANCH  48  51
ENDBRANCH  45  48
ENDBRANCH  42  45
ENDBRANCH   1  42
TORSDOF 15
ENDMDL
MODEL 3
REMARK VINA RESULT:     -11.7      4.666      7.592
REMARK SMILES O=C(Cc1cccn1-c1ccc2c(c1)OCCO2)NCCCCCCNC(=O)c1ccc(-c2c3nc(c(-c4c(F)c(F)c(F)c(F)c4F)c4ccc([nH]4)c(-c4c(F)c(F)c(F)c(F)c4F)c4nc(c(-c5c(F)c(F)c(F)c(F)c5F)c5ccc2[nH]5)C=C4)C=C3)cc1
REMARK SMILES IDX 22 1 21 4 20 7 19 10 1 11 2 12 3 14 4 17 5 18 8 19 6 20 7 22
REMARK SMILES IDX 9 25 10 26 14 27 11 28 13 30 12 32 15 34 18 35 16 36 17 37
REMARK SMILES IDX 23 42 24 45 25 48 26 51 27 52 28 54 29 55 30 56 91 57 31 58
REMARK SMILES IDX 90 60 32 62 33 65 34 66 84 67 35 68 89 69 83 70 85 71 36 72
REMARK SMILES IDX 88 73 82 75 81 77 37 79 69 82 49 83 68 84 50 85 53 86 67 87
REMARK SMILES IDX 86 88 51 89 52 91 66 93 87 94 54 97 38 99 39 100 47 101
REMARK SMILES IDX 40 102 41 103 45 104 48 105 42 106 43 107 46 108 44 109
REMARK SMILES IDX 70 110 71 111 79 112 72 113 73 114 77 115 80 116 74 117
REMARK SMILES IDX 75 118 78 119 76 120 55 121 56 122 64 123 57 124 58 125
REMARK SMILES IDX 62 126 65 127 59 128 60 129 63 130 61 131
REMARK H PARENT 22 2 22 3 21 5 21 6 20 8 20 9 19 13 3 15 3 16 5 21 6 23 7 24
REMARK H PARENT 10 29 14 31 11 33 16 38 16 39 17 40 17 41 23 43 23 44 24 46
REMARK H PARENT 24 47 25 49 25 50 26 53 30 59 91 61 31 63 90 64 89 74 83 76
REMARK H PARENT 85 78 88 80 82 81 50 90 53 92 86 95 51 96 87 98
REMARK Flexibility Score: inf
ROOT
ATOM      1  C   UNL A   1      34.842  33.688  29.037  1.00  0.00    -0.052 C 
ATOM      2  H   UNL A   1      35.823  33.496  28.657  1.00  0.00     0.027 H 
ATOM      3  H   UNL A   1      34.822  33.898  30.086  1.00  0.00     0.027 H 
ENDROOT
BRANCH   1   4
ATOM      4  C   UNL A   1      34.001  32.420  28.842  1.00  0.00    -0.036 C 
ATOM      5  H   UNL A   1      34.078  31.830  29.732  1.00  0.00     0.028 H 
ATOM      6  H   UNL A   1      33.004  32.748  28.637  1.00  0.00     0.028 H 
BRANCH   4   7
ATOM      7  C   UNL A   1      34.420  31.551  27.658  1.00  0.00     0.017 C 
ATOM      8  H   UNL A   1      34.212  32.077  26.749  1.00  0.00     0.049 H 
ATOM      9  H   UNL A   1      35.466  31.344  27.745  1.00  0.00     0.049 H 
BRANCH   7  10
ATOM     10  N   UNL A   1      33.708  30.294  27.648  1.00  0.00    -0.356 N 
ATOM     11  O   UNL A   1      31.921  31.017  26.397  1.00  0.00    -0.275 OA
ATOM     12  C   UNL A   1      32.510  30.118  26.990  1.00  0.00     0.225 C 
ATOM     13  H   UNL A   1      34.095  29.529  28.133  1.00  0.00     0.163 HD
BRANCH  12  14
ATOM     14  C   UNL A   1      31.959  28.706  27.097  1.00  0.00     0.067 C 
ATOM     15  H   UNL A   1      30.914  28.727  26.862  1.00  0.00     0.043 H 
ATOM     16  H   UNL A   1      32.133  28.366  28.096  1.00  0.00     0.043 H 
BRANCH  14  17
ATOM     17  C   UNL A   1      32.643  27.741  26.161  1.00  0.00     0.032 A 
ATOM     18  C   UNL A   1      33.823  27.027  26.329  1.00  0.00    -0.040 A 
ATOM     19  N   UNL A   1      32.059  27.287  24.980  1.00  0.00    -0.320 N 
ATOM     20  C   UNL A   1      33.903  26.057  25.311  1.00  0.00    -0.044 A 
ATOM     21  H   UNL A   1      34.522  27.182  27.073  1.00  0.00     0.064 H 
ATOM     22  C   UNL A   1      32.784  26.202  24.530  1.00  0.00     0.009 A 
ATOM     23  H   UNL A   1      34.661  25.368  25.178  1.00  0.00     0.064 H 
ATOM     24  H   UNL A   1      32.525  25.597  23.735  1.00  0.00     0.082 H 
BRANCH  19  25
ATOM     25  C   UNL A   1      30.922  27.806  24.314  1.00  0.00     0.049 A 
ATOM     26  C   UNL A   1      29.779  27.009  24.172  1.00  0.00    -0.034 A 
ATOM     27  C   UNL A   1      30.968  29.084  23.746  1.00  0.00     0.008 A 
ATOM     28  C   UNL A   1      28.665  27.511  23.495  1.00  0.00    -0.014 A 
ATOM     29  H   UNL A   1      29.759  26.055  24.566  1.00  0.00     0.065 H 
ATOM     30  C   UNL A   1      29.859  29.571  23.057  1.00  0.00     0.163 A 
ATOM     31  H   UNL A   1      31.818  29.662  23.836  1.00  0.00     0.069 H 
ATOM     32  C   UNL A   1      28.713  28.781  22.924  1.00  0.00     0.161 A 
ATOM     33  H   UNL A   1      27.809  26.941  23.417  1.00  0.00     0.066 H 
ATOM     34  O   UNL A   1      29.978  30.825  22.514  1.00  0.00    -0.486 OA
ATOM     35  O   UNL A   1      27.597  29.190  22.238  1.00  0.00    -0.486 OA
ATOM     36  C   UNL A   1      28.710  31.345  22.103  1.00  0.00     0.122 C 
ATOM     37  C   UNL A   1      27.901  30.287  21.370  1.00  0.00     0.122 C 
ATOM     38  H   UNL A   1      28.868  32.178  21.450  1.00  0.00     0.074 H 
ATOM     39  H   UNL A   1      28.167  31.648  22.973  1.00  0.00     0.074 H 
ATOM     40  H   UNL A   1      28.466  29.928  20.534  1.00  0.00     0.074 H 
ATOM     41  H   UNL A   1      26.984  30.726  21.036  1.00  0.00     0.074 H 
ENDBRANCH  19  25
ENDBRANCH  14  17
ENDBRANCH  12  14
ENDBRANCH   7  10
ENDBRANCH   4   7
ENDBRANCH   1   4
BRANCH   1  42
ATOM     42  C   UNL A   1      34.304  34.946  28.345  1.00  0.00    -0.052 C 
ATOM     43  H   UNL A   1      34.135  34.710  27.315  1.00  0.00     0.027 H 
ATOM     44  H   UNL A   1      35.043  35.705  28.493  1.00  0.00     0.027 H 
BRANCH  42  45
ATOM     45  C   UNL A   1      32.999  35.504  28.926  1.00  0.00    -0.036 C 
ATOM     46  H   UNL A   1      32.452  34.695  29.366  1.00  0.00     0.028 H 
ATOM     47  H   UNL A   1      32.471  35.965  28.116  1.00  0.00     0.028 H 
BRANCH  45  48
ATOM     48  C   UNL A   1      33.202  36.582  29.991  1.00  0.00     0.018 C 
ATOM     49  H   UNL A   1      32.928  37.532  29.584  1.00  0.00     0.049 H 
ATOM     50  H   UNL A   1      34.230  36.582  30.285  1.00  0.00     0.049 H 
BRANCH  48  51
ATOM     51  N   UNL A   1      32.386  36.316  31.164  1.00  0.00    -0.352 N 
ATOM     52  C   UNL A   1      32.556  35.395  32.165  1.00  0.00     0.251 C 
ATOM     53  H   UNL A   1      31.588  36.886  31.253  1.00  0.00     0.163 HD
ATOM     54  O   UNL A   1      31.589  35.058  32.838  1.00  0.00    -0.269 OA
BRANCH  52  55
ATOM     55  C   UNL A   1      33.876  34.794  32.447  1.00  0.00     0.039 A 
ATOM     56  C   UNL A   1      33.902  33.498  32.979  1.00  0.00    -0.049 A 
ATOM     57  C   UNL A   1      35.064  35.520  32.304  1.00  0.00    -0.049 A 
ATOM     58  C   UNL A   1      35.116  32.909  33.313  1.00  0.00    -0.053 A 
ATOM     59  H   UNL A   1      33.021  32.980  33.121  1.00  0.00     0.063 H 
ATOM     60  C   UNL A   1      36.285  34.927  32.615  1.00  0.00    -0.053 A 
ATOM     61  H   UNL A   1      35.036  36.495  31.970  1.00  0.00     0.063 H 
ATOM     62  C   UNL A   1      36.308  33.615  33.104  1.00  0.00    -0.014 A 
ATOM     63  H   UNL A   1      35.139  31.958  33.713  1.00  0.00     0.063 H 
ATOM     64  H   UNL A   1      37.164  35.449  32.485  1.00  0.00     0.063 H 
BRANCH  62  65
ATOM     65  C   UNL A   1      37.588  32.881  33.217  1.00  0.00     0.031 A 
ATOM     66  C   UNL A   1      37.631  31.689  32.223  1.00  0.00     0.074 A 
ATOM     67  C   UNL A   1      38.475  33.343  34.154  1.00  0.00     0.049 A 
ATOM     68  N   UNL A   1      38.303  30.578  32.261  1.00  0.00    -0.248 NA
ATOM     69  C   UNL A   1      36.744  31.720  31.024  1.00  0.00    -0.034 C 
ATOM     70  C   UNL A   1      38.279  34.560  34.975  1.00  0.00    -0.036 A 
ATOM     71  N   UNL A   1      39.703  32.908  34.616  1.00  0.00    -0.354 N 
ATOM     72  C   UNL A   1      38.085  29.895  31.038  1.00  0.00     0.074 A 
ATOM     73  C   UNL A   1      37.031  30.592  30.370  1.00  0.00    -0.034 C 
ATOM     74  H   UNL A   1      36.063  32.449  30.759  1.00  0.00     0.065 H 
ATOM     75  C   UNL A   1      39.281  34.713  35.869  1.00  0.00    -0.036 A 
ATOM     76  H   UNL A   1      37.481  35.206  34.879  1.00  0.00     0.065 H 
ATOM     77  C   UNL A   1      40.233  33.629  35.726  1.00  0.00     0.049 A 
ATOM     78  H   UNL A   1      40.181  32.151  34.206  1.00  0.00     0.167 HD
ATOM     79  C   UNL A   1      38.886  28.878  30.594  1.00  0.00     0.037 A 
ATOM     80  H   UNL A   1      36.561  30.270  29.510  1.00  0.00     0.065 H 
ATOM     81  H   UNL A   1      39.358  35.485  36.551  1.00  0.00     0.065 H 
ATOM     82  C   UNL A   1      41.326  33.338  36.503  1.00  0.00     0.037 A 
ATOM     83  C   UNL A   1      39.868  28.585  31.578  1.00  0.00     0.049 A 
ATOM     84  C   UNL A   1      41.954  32.196  35.832  1.00  0.00     0.074 A 
ATOM     85  C   UNL A   1      39.795  27.951  32.789  1.00  0.00    -0.036 A 
ATOM     86  N   UNL A   1      41.045  29.285  31.501  1.00  0.00    -0.354 N 
ATOM     87  N   UNL A   1      42.635  32.278  34.729  1.00  0.00    -0.248 NA
ATOM     88  C   UNL A   1      41.730  30.852  36.374  1.00  0.00    -0.034 C 
ATOM     89  C   UNL A   1      40.687  28.692  33.588  1.00  0.00    -0.036 A 
ATOM     90  H   UNL A   1      39.224  27.132  33.051  1.00  0.00     0.065 H 
ATOM     91  C   UNL A   1      41.427  29.568  32.786  1.00  0.00     0.049 A 
ATOM     92  H   UNL A   1      41.523  29.537  30.678  1.00  0.00     0.167 HD
ATOM     93  C   UNL A   1      42.617  30.979  34.289  1.00  0.00     0.074 A 
ATOM     94  C   UNL A   1      42.366  30.147  35.444  1.00  0.00    -0.034 C 
ATOM     95  H   UNL A   1      41.228  30.544  37.222  1.00  0.00     0.065 H 
ATOM     96  H   UNL A   1      40.781  28.601  34.612  1.00  0.00     0.065 H 
ATOM     97  C   UNL A   1      42.266  30.719  33.004  1.00  0.00     0.037 A 
ATOM     98  H   UNL A   1      42.641  29.156  35.532  1.00  0.00     0.065 H 
BRANCH  79  99
ATOM     99  C   UNL A   1      39.082  28.224  29.248  1.00  0.00     0.064 A 
ATOM    100  C   UNL A   1      39.176  26.807  29.204  1.00  0.00     0.173 A 
ATOM    101  C   UNL A   1      39.562  28.904  28.123  1.00  0.00     0.173 A 
ATOM    102  F   UNL A   1      38.684  26.053  30.200  1.00  0.00    -0.203 F 
ATOM    103  C   UNL A   1      39.862  26.139  28.192  1.00  0.00     0.198 A 
ATOM    104  C   UNL A   1      40.202  28.224  27.080  1.00  0.00     0.198 A 
ATOM    105  F   UNL A   1      39.518  30.241  28.050  1.00  0.00    -0.203 F 
ATOM    106  F   UNL A   1      40.068  24.817  28.281  1.00  0.00    -0.200 F 
ATOM    107  C   UNL A   1      40.396  26.853  27.139  1.00  0.00     0.200 A 
ATOM    108  F   UNL A   1      40.706  28.916  26.049  1.00  0.00    -0.200 F 
ATOM    109  F   UNL A   1      41.127  26.230  26.204  1.00  0.00    -0.200 F 
ENDBRANCH  79  99
BRANCH  82 110
ATOM    110  C   UNL A   1      41.973  33.769  37.808  1.00  0.00     0.064 A 
ATOM    111  C   UNL A   1      43.193  34.438  37.951  1.00  0.00     0.173 A 
ATOM    112  C   UNL A   1      41.279  33.573  39.043  1.00  0.00     0.173 A 
ATOM    113  F   UNL A   1      44.026  34.579  36.915  1.00  0.00    -0.203 F 
ATOM    114  C   UNL A   1      43.610  34.977  39.188  1.00  0.00     0.198 A 
ATOM    115  C   UNL A   1      41.660  34.152  40.253  1.00  0.00     0.198 A 
ATOM    116  F   UNL A   1      40.185  32.804  39.125  1.00  0.00    -0.203 F 
ATOM    117  F   UNL A   1      44.785  35.618  39.271  1.00  0.00    -0.200 F 
ATOM    118  C   UNL A   1      42.823  34.876  40.322  1.00  0.00     0.200 A 
ATOM    119  F   UNL A   1      40.875  34.015  41.331  1.00  0.00    -0.200 F 
ATOM    120  F   UNL A   1      43.185  35.455  41.474  1.00  0.00    -0.200 F 
ENDBRANCH  82 110
BRANCH  97 121
ATOM    121  C   UNL A   1      42.468  31.892  32.060  1.00  0.00     0.064 A 
ATOM    122  C   UNL A   1      43.766  32.355  31.794  1.00  0.00     0.173 A 
ATOM    123  C   UNL A   1      41.423  32.656  31.511  1.00  0.00     0.173 A 
ATOM    124  F   UNL A   1      44.825  31.675  32.259  1.00  0.00    -0.203 F 
ATOM    125  C   UNL A   1      43.998  33.519  31.053  1.00  0.00     0.198 A 
ATOM    126  C   UNL A   1      41.649  33.816  30.765  1.00  0.00     0.198 A 
ATOM    127  F   UNL A   1      40.155  32.293  31.681  1.00  0.00    -0.203 F 
ATOM    128  F   UNL A   1      45.254  33.927  30.830  1.00  0.00    -0.200 F 
ATOM    129  C   UNL A   1      42.939  34.251  30.543  1.00  0.00     0.200 A 
ATOM    130  F   UNL A   1      40.612  34.504  30.263  1.00  0.00    -0.200 F 
ATOM    131  F   UNL A   1      43.162  35.362  29.824  1.00  0.00    -0.200 F 
ENDBRANCH  97 121
ENDBRANCH  62  65
ENDBRANCH  52  55
ENDBRANCH  48  51
ENDBRANCH  45  48
ENDBRANCH  42  45
ENDBRANCH   1  42
TORSDOF 15
ENDMDL
MODEL 4
REMARK VINA RESULT:     -11.7      4.357      9.113
REMARK SMILES O=C(Cc1cccn1-c1ccc2c(c1)OCCO2)NCCCCCCNC(=O)c1ccc(-c2c3nc(c(-c4c(F)c(F)c(F)c(F)c4F)c4ccc([nH]4)c(-c4c(F)c(F)c(F)c(F)c4F)c4nc(c(-c5c(F)c(F)c(F)c(F)c5F)c5ccc2[nH]5)C=C4)C=C3)cc1
REMARK SMILES IDX 22 1 21 4 20 7 19 10 1 11 2 12 3 14 4 17 5 18 8 19 6 20 7 22
REMARK SMILES IDX 9 25 10 26 14 27 11 28 13 30 12 32 15 34 18 35 16 36 17 37
REMARK SMILES IDX 23 42 24 45 25 48 26 51 27 52 28 54 29 55 30 56 91 57 31 58
REMARK SMILES IDX 90 60 32 62 33 65 34 66 84 67 35 68 89 69 83 70 85 71 36 72
REMARK SMILES IDX 88 73 82 75 81 77 37 79 69 82 49 83 68 84 50 85 53 86 67 87
REMARK SMILES IDX 86 88 51 89 52 91 66 93 87 94 54 97 38 99 39 100 47 101
REMARK SMILES IDX 40 102 41 103 45 104 48 105 42 106 43 107 46 108 44 109
REMARK SMILES IDX 70 110 71 111 79 112 72 113 73 114 77 115 80 116 74 117
REMARK SMILES IDX 75 118 78 119 76 120 55 121 56 122 64 123 57 124 58 125
REMARK SMILES IDX 62 126 65 127 59 128 60 129 63 130 61 131
REMARK H PARENT 22 2 22 3 21 5 21 6 20 8 20 9 19 13 3 15 3 16 5 21 6 23 7 24
REMARK H PARENT 10 29 14 31 11 33 16 38 16 39 17 40 17 41 23 43 23 44 24 46
REMARK H PARENT 24 47 25 49 25 50 26 53 30 59 91 61 31 63 90 64 89 74 83 76
REMARK H PARENT 85 78 88 80 82 81 50 90 53 92 86 95 51 96 87 98
REMARK Flexibility Score: inf
ROOT
ATOM      1  C   UNL A   1      34.796  22.438  24.126  1.00  0.00    -0.052 C 
ATOM      2  H   UNL A   1      35.421  21.756  23.589  1.00  0.00     0.027 H 
ATOM      3  H   UNL A   1      34.506  22.084  25.093  1.00  0.00     0.027 H 
ENDROOT
BRANCH   1   4
ATOM      4  C   UNL A   1      33.495  22.614  23.333  1.00  0.00    -0.036 C 
ATOM      5  H   UNL A   1      33.198  21.655  22.962  1.00  0.00     0.028 H 
ATOM      6  H   UNL A   1      32.785  23.044  24.008  1.00  0.00     0.028 H 
BRANCH   4   7
ATOM      7  C   UNL A   1      33.594  23.572  22.147  1.00  0.00     0.017 C 
ATOM      8  H   UNL A   1      34.462  24.186  22.267  1.00  0.00     0.049 H 
ATOM      9  H   UNL A   1      33.660  22.993  21.250  1.00  0.00     0.049 H 
BRANCH   7  10
ATOM     10  N   UNL A   1      32.427  24.420  22.056  1.00  0.00    -0.356 N 
ATOM     11  O   UNL A   1      33.555  26.363  21.573  1.00  0.00    -0.275 OA
ATOM     12  C   UNL A   1      32.500  25.762  21.749  1.00  0.00     0.225 C 
ATOM     13  H   UNL A   1      31.541  24.022  22.220  1.00  0.00     0.163 HD
BRANCH  12  14
ATOM     14  C   UNL A   1      31.144  26.445  21.684  1.00  0.00     0.067 C 
ATOM     15  H   UNL A   1      30.401  25.768  22.051  1.00  0.00     0.043 H 
ATOM     16  H   UNL A   1      30.966  26.714  20.664  1.00  0.00     0.043 H 
BRANCH  14  17
ATOM     17  C   UNL A   1      31.089  27.710  22.504  1.00  0.00     0.032 A 
ATOM     18  C   UNL A   1      30.764  29.004  22.119  1.00  0.00    -0.040 A 
ATOM     19  N   UNL A   1      31.219  27.720  23.891  1.00  0.00    -0.320 N 
ATOM     20  C   UNL A   1      30.581  29.780  23.281  1.00  0.00    -0.044 A 
ATOM     21  H   UNL A   1      30.671  29.340  21.147  1.00  0.00     0.064 H 
ATOM     22  C   UNL A   1      30.813  28.955  24.354  1.00  0.00     0.009 A 
ATOM     23  H   UNL A   1      30.323  30.779  23.318  1.00  0.00     0.064 H 
ATOM     24  H   UNL A   1      30.701  29.217  25.346  1.00  0.00     0.082 H 
BRANCH  19  25
ATOM     25  C   UNL A   1      31.677  26.675  24.732  1.00  0.00     0.049 A 
ATOM     26  C   UNL A   1      32.999  26.688  25.194  1.00  0.00    -0.034 A 
ATOM     27  C   UNL A   1      30.828  25.606  25.042  1.00  0.00     0.008 A 
ATOM     28  C   UNL A   1      33.458  25.647  26.004  1.00  0.00    -0.014 A 
ATOM     29  H   UNL A   1      33.631  27.463  24.938  1.00  0.00     0.065 H 
ATOM     30  C   UNL A   1      31.300  24.563  25.837  1.00  0.00     0.163 A 
ATOM     31  H   UNL A   1      29.860  25.590  24.686  1.00  0.00     0.069 H 
ATOM     32  C   UNL A   1      32.616  24.579  26.309  1.00  0.00     0.161 A 
ATOM     33  H   UNL A   1      34.420  25.668  26.375  1.00  0.00     0.066 H 
ATOM     34  O   UNL A   1      30.421  23.541  26.090  1.00  0.00    -0.486 OA
ATOM     35  O   UNL A   1      33.149  23.573  27.073  1.00  0.00    -0.486 OA
ATOM     36  C   UNL A   1      30.887  22.691  27.141  1.00  0.00     0.122 C 
ATOM     37  C   UNL A   1      32.366  22.379  26.971  1.00  0.00     0.122 C 
ATOM     38  H   UNL A   1      30.333  21.776  27.124  1.00  0.00     0.074 H 
ATOM     39  H   UNL A   1      30.749  23.194  28.075  1.00  0.00     0.074 H 
ATOM     40  H   UNL A   1      32.523  21.935  26.010  1.00  0.00     0.074 H 
ATOM     41  H   UNL A   1      32.665  21.703  27.746  1.00  0.00     0.074 H 
ENDBRANCH  19  25
ENDBRANCH  14  17
ENDBRANCH  12  14
ENDBRANCH   7  10
ENDBRANCH   4   7
ENDBRANCH   1   4
BRANCH   1  42
ATOM     42  C   UNL A   1      35.596  23.722  24.370  1.00  0.00    -0.052 C 
ATOM     43  H   UNL A   1      35.098  24.283  25.133  1.00  0.00     0.027 H 
ATOM     44  H   UNL A   1      35.639  24.229  23.428  1.00  0.00     0.027 H 
BRANCH  42  45
ATOM     45  C   UNL A   1      37.051  23.514  24.807  1.00  0.00    -0.036 C 
ATOM     46  H   UNL A   1      37.692  23.886  24.034  1.00  0.00     0.028 H 
ATOM     47  H   UNL A   1      37.178  22.464  24.975  1.00  0.00     0.028 H 
BRANCH  45  48
ATOM     48  C   UNL A   1      37.416  24.218  26.114  1.00  0.00     0.018 C 
ATOM     49  H   UNL A   1      36.552  24.257  26.743  1.00  0.00     0.049 H 
ATOM     50  H   UNL A   1      37.758  25.205  25.886  1.00  0.00     0.049 H 
BRANCH  48  51
ATOM     51  N   UNL A   1      38.477  23.509  26.810  1.00  0.00    -0.352 N 
ATOM     52  C   UNL A   1      39.582  23.996  27.459  1.00  0.00     0.251 C 
ATOM     53  H   UNL A   1      38.389  22.529  26.815  1.00  0.00     0.163 HD
ATOM     54  O   UNL A   1      40.543  23.257  27.639  1.00  0.00    -0.269 OA
BRANCH  52  55
ATOM     55  C   UNL A   1      39.643  25.391  27.943  1.00  0.00     0.039 A 
ATOM     56  C   UNL A   1      39.101  25.666  29.206  1.00  0.00    -0.049 A 
ATOM     57  C   UNL A   1      40.117  26.432  27.138  1.00  0.00    -0.049 A 
ATOM     58  C   UNL A   1      39.084  26.973  29.683  1.00  0.00    -0.053 A 
ATOM     59  H   UNL A   1      38.715  24.902  29.781  1.00  0.00     0.063 H 
ATOM     60  C   UNL A   1      40.125  27.738  27.620  1.00  0.00    -0.053 A 
ATOM     61  H   UNL A   1      40.460  26.233  26.185  1.00  0.00     0.063 H 
ATOM     62  C   UNL A   1      39.623  28.002  28.900  1.00  0.00    -0.014 A 
ATOM     63  H   UNL A   1      38.678  27.181  30.609  1.00  0.00     0.063 H 
ATOM     64  H   UNL A   1      40.498  28.504  27.040  1.00  0.00     0.063 H 
BRANCH  62  65
ATOM     65  C   UNL A   1      39.833  29.325  29.528  1.00  0.00     0.031 A 
ATOM     66  C   UNL A   1      38.600  30.243  29.309  1.00  0.00     0.074 A 
ATOM     67  C   UNL A   1      41.037  29.519  30.154  1.00  0.00     0.049 A 
ATOM     68  N   UNL A   1      38.500  31.538  29.289  1.00  0.00    -0.248 NA
ATOM     69  C   UNL A   1      37.279  29.614  29.015  1.00  0.00    -0.034 C 
ATOM     70  C   UNL A   1      42.079  28.481  30.320  1.00  0.00    -0.036 A 
ATOM     71  N   UNL A   1      41.640  30.599  30.770  1.00  0.00    -0.354 N 
ATOM     72  C   UNL A   1      37.124  31.867  29.188  1.00  0.00     0.074 A 
ATOM     73  C   UNL A   1      36.438  30.646  28.909  1.00  0.00    -0.034 C 
ATOM     74  H   UNL A   1      37.063  28.610  28.916  1.00  0.00     0.065 H 
ATOM     75  C   UNL A   1      43.189  28.990  30.900  1.00  0.00    -0.036 A 
ATOM     76  H   UNL A   1      41.974  27.496  30.030  1.00  0.00     0.065 H 
ATOM     77  C   UNL A   1      42.992  30.398  31.178  1.00  0.00     0.049 A 
ATOM     78  H   UNL A   1      41.168  31.450  30.919  1.00  0.00     0.167 HD
ATOM     79  C   UNL A   1      36.628  33.109  29.479  1.00  0.00     0.037 A 
ATOM     80  H   UNL A   1      35.439  30.572  28.661  1.00  0.00     0.065 H 
ATOM     81  H   UNL A   1      44.047  28.457  31.114  1.00  0.00     0.065 H 
ATOM     82  C   UNL A   1      43.896  31.315  31.652  1.00  0.00     0.037 A 
ATOM     83  C   UNL A   1      37.701  33.986  29.793  1.00  0.00     0.049 A 
ATOM     84  C   UNL A   1      43.114  32.544  31.819  1.00  0.00     0.074 A 
ATOM     85  C   UNL A   1      38.652  34.588  29.015  1.00  0.00    -0.036 A 
ATOM     86  N   UNL A   1      38.084  34.044  31.108  1.00  0.00    -0.354 N 
ATOM     87  N   UNL A   1      42.259  32.744  32.776  1.00  0.00    -0.248 NA
ATOM     88  C   UNL A   1      43.218  33.589  30.795  1.00  0.00    -0.034 C 
ATOM     89  C   UNL A   1      39.802  34.540  29.828  1.00  0.00    -0.036 A 
ATOM     90  H   UNL A   1      38.552  34.980  28.066  1.00  0.00     0.065 H 
ATOM     91  C   UNL A   1      39.450  34.143  31.124  1.00  0.00     0.049 A 
ATOM     92  H   UNL A   1      37.489  34.019  31.893  1.00  0.00     0.167 HD
ATOM     93  C   UNL A   1      41.502  33.770  32.269  1.00  0.00     0.074 A 
ATOM     94  C   UNL A   1      42.309  34.434  31.271  1.00  0.00    -0.034 C 
ATOM     95  H   UNL A   1      43.817  33.649  29.956  1.00  0.00     0.065 H 
ATOM     96  H   UNL A   1      40.759  34.766  29.515  1.00  0.00     0.065 H 
ATOM     97  C   UNL A   1      40.149  33.669  32.291  1.00  0.00     0.037 A 
ATOM     98  H   UNL A   1      42.197  35.416  30.973  1.00  0.00     0.065 H 
BRANCH  79  99
ATOM     99  C   UNL A   1      35.241  33.630  29.766  1.00  0.00     0.064 A 
ATOM    100  C   UNL A   1      34.642  34.491  28.807  1.00  0.00     0.173 A 
ATOM    101  C   UNL A   1      34.675  33.652  31.046  1.00  0.00     0.173 A 
ATOM    102  F   UNL A   1      35.061  34.499  27.532  1.00  0.00    -0.203 F 
ATOM    103  C   UNL A   1      33.672  35.429  29.154  1.00  0.00     0.198 A 
ATOM    104  C   UNL A   1      33.661  34.558  31.377  1.00  0.00     0.198 A 
ATOM    105  F   UNL A   1      35.153  32.878  32.028  1.00  0.00    -0.203 F 
ATOM    106  F   UNL A   1      33.258  36.330  28.252  1.00  0.00    -0.200 F 
ATOM    107  C   UNL A   1      33.197  35.477  30.448  1.00  0.00     0.200 A 
ATOM    108  F   UNL A   1      33.188  34.594  32.631  1.00  0.00    -0.200 F 
ATOM    109  F   UNL A   1      32.325  36.428  30.811  1.00  0.00    -0.200 F 
ENDBRANCH  79  99
BRANCH  82 110
ATOM    110  C   UNL A   1      45.381  31.439  31.946  1.00  0.00     0.064 A 
ATOM    111  C   UNL A   1      45.965  31.687  33.192  1.00  0.00     0.173 A 
ATOM    112  C   UNL A   1      46.332  31.208  30.903  1.00  0.00     0.173 A 
ATOM    113  F   UNL A   1      45.221  32.056  34.240  1.00  0.00    -0.203 F 
ATOM    114  C   UNL A   1      47.358  31.580  33.400  1.00  0.00     0.198 A 
ATOM    115  C   UNL A   1      47.700  31.045  31.117  1.00  0.00     0.198 A 
ATOM    116  F   UNL A   1      45.966  31.126  29.617  1.00  0.00    -0.203 F 
ATOM    117  F   UNL A   1      47.868  31.819  34.617  1.00  0.00    -0.200 F 
ATOM    118  C   UNL A   1      48.215  31.212  32.377  1.00  0.00     0.200 A 
ATOM    119  F   UNL A   1      48.498  30.705  30.093  1.00  0.00    -0.200 F 
ATOM    120  F   UNL A   1      49.525  31.036  32.596  1.00  0.00    -0.200 F 
ENDBRANCH  82 110
BRANCH  97 121
ATOM    121  C   UNL A   1      39.618  32.716  33.348  1.00  0.00     0.064 A 
ATOM    122  C   UNL A   1      39.818  33.004  34.707  1.00  0.00     0.173 A 
ATOM    123  C   UNL A   1      39.036  31.467  33.067  1.00  0.00     0.173 A 
ATOM    124  F   UNL A   1      40.347  34.182  35.068  1.00  0.00    -0.203 F 
ATOM    125  C   UNL A   1      39.481  32.091  35.712  1.00  0.00     0.198 A 
ATOM    126  C   UNL A   1      38.692  30.554  34.067  1.00  0.00     0.198 A 
ATOM    127  F   UNL A   1      38.780  31.103  31.814  1.00  0.00    -0.203 F 
ATOM    128  F   UNL A   1      39.695  32.406  36.997  1.00  0.00    -0.200 F 
ATOM    129  C   UNL A   1      38.923  30.865  35.392  1.00  0.00     0.200 A 
ATOM    130  F   UNL A   1      38.135  29.378  33.740  1.00  0.00    -0.200 F 
ATOM    131  F   UNL A   1      38.591  29.993  36.357  1.00  0.00    -0.200 F 
ENDBRANCH  97 121
ENDBRANCH  62  65
ENDBRANCH  52  55
ENDBRANCH  48  51
ENDBRANCH  45  48
ENDBRANCH  42  45
ENDBRANCH   1  42
TORSDOF 15
ENDMDL
MODEL 5
REMARK VINA RESULT:     -11.7      1.520      2.299
REMARK SMILES O=C(Cc1cccn1-c1ccc2c(c1)OCCO2)NCCCCCCNC(=O)c1ccc(-c2c3nc(c(-c4c(F)c(F)c(F)c(F)c4F)c4ccc([nH]4)c(-c4c(F)c(F)c(F)c(F)c4F)c4nc(c(-c5c(F)c(F)c(F)c(F)c5F)c5ccc2[nH]5)C=C4)C=C3)cc1
REMARK SMILES IDX 22 1 21 4 20 7 19 10 1 11 2 12 3 14 4 17 5 18 8 19 6 20 7 22
REMARK SMILES IDX 9 25 10 26 14 27 11 28 13 30 12 32 15 34 18 35 16 36 17 37
REMARK SMILES IDX 23 42 24 45 25 48 26 51 27 52 28 54 29 55 30 56 91 57 31 58
REMARK SMILES IDX 90 60 32 62 33 65 34 66 84 67 35 68 89 69 83 70 85 71 36 72
REMARK SMILES IDX 88 73 82 75 81 77 37 79 69 82 49 83 68 84 50 85 53 86 67 87
REMARK SMILES IDX 86 88 51 89 52 91 66 93 87 94 54 97 38 99 39 100 47 101
REMARK SMILES IDX 40 102 41 103 45 104 48 105 42 106 43 107 46 108 44 109
REMARK SMILES IDX 70 110 71 111 79 112 72 113 73 114 77 115 80 116 74 117
REMARK SMILES IDX 75 118 78 119 76 120 55 121 56 122 64 123 57 124 58 125
REMARK SMILES IDX 62 126 65 127 59 128 60 129 63 130 61 131
REMARK H PARENT 22 2 22 3 21 5 21 6 20 8 20 9 19 13 3 15 3 16 5 21 6 23 7 24
REMARK H PARENT 10 29 14 31 11 33 16 38 16 39 17 40 17 41 23 43 23 44 24 46
REMARK H PARENT 24 47 25 49 25 50 26 53 30 59 91 61 31 63 90 64 89 74 83 76
REMARK H PARENT 85 78 88 80 82 81 50 90 53 92 86 95 51 96 87 98
REMARK Flexibility Score: inf
ROOT
ATOM      1  C   UNL A   1      32.662  28.383  24.361  1.00  0.00    -0.052 C 
ATOM      2  H   UNL A   1      33.171  27.498  24.680  1.00  0.00     0.027 H 
ATOM      3  H   UNL A   1      31.615  28.240  24.197  1.00  0.00     0.027 H 
ENDROOT
BRANCH   1   4
ATOM      4  C   UNL A   1      33.249  28.805  23.008  1.00  0.00    -0.036 C 
ATOM      5  H   UNL A   1      32.538  29.440  22.520  1.00  0.00     0.028 H 
ATOM      6  H   UNL A   1      34.176  29.294  23.221  1.00  0.00     0.028 H 
BRANCH   4   7
ATOM      7  C   UNL A   1      33.579  27.649  22.066  1.00  0.00     0.017 C 
ATOM      8  H   UNL A   1      32.767  27.514  21.382  1.00  0.00     0.049 H 
ATOM      9  H   UNL A   1      34.480  27.888  21.542  1.00  0.00     0.049 H 
BRANCH   7  10
ATOM     10  N   UNL A   1      33.790  26.419  22.794  1.00  0.00    -0.356 N 
ATOM     11  O   UNL A   1      31.970  25.300  21.947  1.00  0.00    -0.275 OA
ATOM     12  C   UNL A   1      32.971  25.319  22.658  1.00  0.00     0.225 C 
ATOM     13  H   UNL A   1      34.552  26.364  23.416  1.00  0.00     0.163 HD
BRANCH  12  14
ATOM     14  C   UNL A   1      33.400  24.132  23.503  1.00  0.00     0.067 C 
ATOM     15  H   UNL A   1      34.444  24.228  23.723  1.00  0.00     0.043 H 
ATOM     16  H   UNL A   1      33.193  23.244  22.943  1.00  0.00     0.043 H 
BRANCH  14  17
ATOM     17  C   UNL A   1      32.641  24.038  24.804  1.00  0.00     0.032 A 
ATOM     18  C   UNL A   1      31.914  25.009  25.480  1.00  0.00    -0.040 A 
ATOM     19  N   UNL A   1      32.426  22.833  25.470  1.00  0.00    -0.320 N 
ATOM     20  C   UNL A   1      31.163  24.378  26.491  1.00  0.00    -0.044 A 
ATOM     21  H   UNL A   1      31.922  26.022  25.275  1.00  0.00     0.064 H 
ATOM     22  C   UNL A   1      31.454  23.038  26.428  1.00  0.00     0.009 A 
ATOM     23  H   UNL A   1      30.517  24.837  27.153  1.00  0.00     0.064 H 
ATOM     24  H   UNL A   1      31.016  22.302  27.004  1.00  0.00     0.082 H 
BRANCH  19  25
ATOM     25  C   UNL A   1      33.061  21.587  25.245  1.00  0.00     0.049 A 
ATOM     26  C   UNL A   1      34.459  21.522  25.190  1.00  0.00    -0.034 A 
ATOM     27  C   UNL A   1      32.289  20.442  25.016  1.00  0.00     0.008 A 
ATOM     28  C   UNL A   1      35.085  20.298  24.945  1.00  0.00    -0.014 A 
ATOM     29  H   UNL A   1      35.024  22.374  25.329  1.00  0.00     0.065 H 
ATOM     30  C   UNL A   1      32.922  19.228  24.755  1.00  0.00     0.163 A 
ATOM     31  H   UNL A   1      31.259  20.496  25.039  1.00  0.00     0.069 H 
ATOM     32  C   UNL A   1      34.317  19.158  24.710  1.00  0.00     0.161 A 
ATOM     33  H   UNL A   1      36.115  20.237  24.937  1.00  0.00     0.066 H 
ATOM     34  O   UNL A   1      32.105  18.150  24.525  1.00  0.00    -0.486 OA
ATOM     35  O   UNL A   1      35.001  18.001  24.435  1.00  0.00    -0.486 OA
ATOM     36  C   UNL A   1      32.831  16.918  24.572  1.00  0.00     0.122 C 
ATOM     37  C   UNL A   1      34.146  17.034  23.817  1.00  0.00     0.122 C 
ATOM     38  H   UNL A   1      32.239  16.145  24.127  1.00  0.00     0.074 H 
ATOM     39  H   UNL A   1      33.044  16.685  25.594  1.00  0.00     0.074 H 
ATOM     40  H   UNL A   1      33.947  17.333  22.808  1.00  0.00     0.074 H 
ATOM     41  H   UNL A   1      34.635  16.082  23.832  1.00  0.00     0.074 H 
ENDBRANCH  19  25
ENDBRANCH  14  17
ENDBRANCH  12  14
ENDBRANCH   7  10
ENDBRANCH   4   7
ENDBRANCH   1   4
BRANCH   1  42
ATOM     42  C   UNL A   1      32.776  29.424  25.480  1.00  0.00    -0.052 C 
ATOM     43  H   UNL A   1      31.815  29.874  25.613  1.00  0.00     0.027 H 
ATOM     44  H   UNL A   1      33.531  30.115  25.168  1.00  0.00     0.027 H 
BRANCH  42  45
ATOM     45  C   UNL A   1      33.237  28.877  26.838  1.00  0.00    -0.036 C 
ATOM     46  H   UNL A   1      32.934  27.853  26.908  1.00  0.00     0.028 H 
ATOM     47  H   UNL A   1      32.786  29.492  27.589  1.00  0.00     0.028 H 
BRANCH  45  48
ATOM     48  C   UNL A   1      34.748  28.948  27.057  1.00  0.00     0.018 C 
ATOM     49  H   UNL A   1      35.245  28.559  26.194  1.00  0.00     0.049 H 
ATOM     50  H   UNL A   1      34.994  28.371  27.923  1.00  0.00     0.049 H 
BRANCH  48  51
ATOM     51  N   UNL A   1      35.180  30.318  27.276  1.00  0.00    -0.352 N 
ATOM     52  C   UNL A   1      36.238  30.803  28.000  1.00  0.00     0.251 C 
ATOM     53  H   UNL A   1      34.627  31.004  26.837  1.00  0.00     0.163 HD
ATOM     54  O   UNL A   1      36.215  31.965  28.387  1.00  0.00    -0.269 OA
BRANCH  52  55
ATOM     55  C   UNL A   1      37.402  29.955  28.331  1.00  0.00     0.039 A 
ATOM     56  C   UNL A   1      38.452  29.900  27.404  1.00  0.00    -0.049 A 
ATOM     57  C   UNL A   1      37.424  29.140  29.468  1.00  0.00    -0.049 A 
ATOM     58  C   UNL A   1      39.545  29.075  27.643  1.00  0.00    -0.053 A 
ATOM     59  H   UNL A   1      38.415  30.473  26.546  1.00  0.00     0.063 H 
ATOM     60  C   UNL A   1      38.527  28.330  29.724  1.00  0.00    -0.053 A 
ATOM     61  H   UNL A   1      36.622  29.138  30.117  1.00  0.00     0.063 H 
ATOM     62  C   UNL A   1      39.593  28.312  28.817  1.00  0.00    -0.014 A 
ATOM     63  H   UNL A   1      40.317  29.025  26.959  1.00  0.00     0.063 H 
ATOM     64  H   UNL A   1      38.558  27.748  30.574  1.00  0.00     0.063 H 
BRANCH  62  65
ATOM     65  C   UNL A   1      40.868  27.652  29.174  1.00  0.00     0.031 A 
ATOM     66  C   UNL A   1      41.053  26.336  28.371  1.00  0.00     0.074 A 
ATOM     67  C   UNL A   1      41.631  28.274  30.127  1.00  0.00     0.049 A 
ATOM     68  N   UNL A   1      41.742  25.269  28.640  1.00  0.00    -0.248 NA
ATOM     69  C   UNL A   1      40.309  26.166  27.088  1.00  0.00    -0.034 C 
ATOM     70  C   UNL A   1      41.314  29.584  30.741  1.00  0.00    -0.036 A 
ATOM     71  N   UNL A   1      42.807  27.955  30.779  1.00  0.00    -0.354 N 
ATOM     72  C   UNL A   1      41.682  24.414  27.509  1.00  0.00     0.074 A 
ATOM     73  C   UNL A   1      40.695  24.970  26.638  1.00  0.00    -0.034 C 
ATOM     74  H   UNL A   1      39.646  26.823  26.649  1.00  0.00     0.065 H 
ATOM     75  C   UNL A   1      42.203  29.899  31.709  1.00  0.00    -0.036 A 
ATOM     76  H   UNL A   1      40.517  30.179  30.467  1.00  0.00     0.065 H 
ATOM     77  C   UNL A   1      43.189  28.844  31.828  1.00  0.00     0.049 A 
ATOM     78  H   UNL A   1      43.347  27.168  30.536  1.00  0.00     0.167 HD
ATOM     79  C   UNL A   1      42.552  23.378  27.306  1.00  0.00     0.037 A 
ATOM     80  H   UNL A   1      40.334  24.514  25.785  1.00  0.00     0.065 H 
ATOM     81  H   UNL A   1      42.183  30.760  32.279  1.00  0.00     0.065 H 
ATOM     82  C   UNL A   1      44.193  28.706  32.754  1.00  0.00     0.037 A 
ATOM     83  C   UNL A   1      43.421  23.263  28.424  1.00  0.00     0.049 A 
ATOM     84  C   UNL A   1      44.920  27.508  32.326  1.00  0.00     0.074 A 
ATOM     85  C   UNL A   1      43.224  22.800  29.697  1.00  0.00    -0.036 A 
ATOM     86  N   UNL A   1      44.582  23.991  28.379  1.00  0.00    -0.354 N 
ATOM     87  N   UNL A   1      45.721  27.463  31.304  1.00  0.00    -0.248 NA
ATOM     88  C   UNL A   1      44.667  26.243  33.024  1.00  0.00    -0.034 C 
ATOM     89  C   UNL A   1      44.001  23.679  30.476  1.00  0.00    -0.036 A 
ATOM     90  H   UNL A   1      42.646  22.004  30.009  1.00  0.00     0.065 H 
ATOM     91  C   UNL A   1      44.808  24.464  29.644  1.00  0.00     0.049 A 
ATOM     92  H   UNL A   1      45.146  24.145  27.586  1.00  0.00     0.167 HD
ATOM     93  C   UNL A   1      45.784  26.115  31.053  1.00  0.00     0.074 A 
ATOM     94  C   UNL A   1      45.422  25.442  32.280  1.00  0.00    -0.034 C 
ATOM     95  H   UNL A   1      44.078  26.037  33.848  1.00  0.00     0.065 H 
ATOM     96  H   UNL A   1      43.979  23.735  31.507  1.00  0.00     0.065 H 
ATOM     97  C   UNL A   1      45.589  25.666  29.788  1.00  0.00     0.037 A 
ATOM     98  H   UNL A   1      45.707  24.484  32.538  1.00  0.00     0.065 H 
BRANCH  79  99
ATOM     99  C   UNL A   1      42.916  22.552  26.096  1.00  0.00     0.064 A 
ATOM    100  C   UNL A   1      42.913  21.137  26.231  1.00  0.00     0.173 A 
ATOM    101  C   UNL A   1      43.621  23.061  24.999  1.00  0.00     0.173 A 
ATOM    102  F   UNL A   1      42.212  20.540  27.208  1.00  0.00    -0.203 F 
ATOM    103  C   UNL A   1      43.704  20.313  25.433  1.00  0.00     0.198 A 
ATOM    104  C   UNL A   1      44.371  22.223  24.165  1.00  0.00     0.198 A 
ATOM    105  F   UNL A   1      43.687  24.378  24.768  1.00  0.00    -0.203 F 
ATOM    106  F   UNL A   1      43.796  19.004  25.706  1.00  0.00    -0.200 F 
ATOM    107  C   UNL A   1      44.453  20.861  24.412  1.00  0.00     0.200 A 
ATOM    108  F   UNL A   1      45.085  22.754  23.163  1.00  0.00    -0.200 F 
ATOM    109  F   UNL A   1      45.279  20.089  23.693  1.00  0.00    -0.200 F 
ENDBRANCH  79  99
BRANCH  82 110
ATOM    110  C   UNL A   1      44.676  29.339  34.048  1.00  0.00     0.064 A 
ATOM    111  C   UNL A   1      43.922  29.536  35.209  1.00  0.00     0.173 A 
ATOM    112  C   UNL A   1      46.048  29.716  34.184  1.00  0.00     0.173 A 
ATOM    113  F   UNL A   1      42.596  29.362  35.207  1.00  0.00    -0.203 F 
ATOM    114  C   UNL A   1      44.514  29.943  36.425  1.00  0.00     0.198 A 
ATOM    115  C   UNL A   1      46.645  30.063  35.395  1.00  0.00     0.198 A 
ATOM    116  F   UNL A   1      46.877  29.761  33.133  1.00  0.00    -0.203 F 
ATOM    117  F   UNL A   1      43.749  30.110  37.513  1.00  0.00    -0.200 F 
ATOM    118  C   UNL A   1      45.878  30.157  36.528  1.00  0.00     0.200 A 
ATOM    119  F   UNL A   1      47.968  30.278  35.447  1.00  0.00    -0.200 F 
ATOM    120  F   UNL A   1      46.447  30.467  37.701  1.00  0.00    -0.200 F 
ENDBRANCH  82 110
BRANCH  97 121
ATOM    121  C   UNL A   1      45.871  26.704  28.715  1.00  0.00     0.064 A 
ATOM    122  C   UNL A   1      47.182  27.168  28.522  1.00  0.00     0.173 A 
ATOM    123  C   UNL A   1      44.877  27.352  27.960  1.00  0.00     0.173 A 
ATOM    124  F   UNL A   1      48.196  26.591  29.185  1.00  0.00    -0.203 F 
ATOM    125  C   UNL A   1      47.471  28.225  27.654  1.00  0.00     0.198 A 
ATOM    126  C   UNL A   1      45.161  28.405  27.086  1.00  0.00     0.198 A 
ATOM    127  F   UNL A   1      43.605  26.976  28.046  1.00  0.00    -0.203 F 
ATOM    128  F   UNL A   1      48.737  28.638  27.506  1.00  0.00    -0.200 F 
ATOM    129  C   UNL A   1      46.461  28.846  26.939  1.00  0.00     0.200 A 
ATOM    130  F   UNL A   1      44.172  28.984  26.388  1.00  0.00    -0.200 F 
ATOM    131  F   UNL A   1      46.740  29.854  26.099  1.00  0.00    -0.200 F 
ENDBRANCH  97 121
ENDBRANCH  62  65
ENDBRANCH  52  55
ENDBRANCH  48  51
ENDBRANCH  45  48
ENDBRANCH  42  45
ENDBRANCH   1  42
TORSDOF 15
ENDMDL
MODEL 6
REMARK VINA RESULT:     -11.7      1.446      2.431
REMARK SMILES O=C(Cc1cccn1-c1ccc2c(c1)OCCO2)NCCCCCCNC(=O)c1ccc(-c2c3nc(c(-c4c(F)c(F)c(F)c(F)c4F)c4ccc([nH]4)c(-c4c(F)c(F)c(F)c(F)c4F)c4nc(c(-c5c(F)c(F)c(F)c(F)c5F)c5ccc2[nH]5)C=C4)C=C3)cc1
REMARK SMILES IDX 22 1 21 4 20 7 19 10 1 11 2 12 3 14 4 17 5 18 8 19 6 20 7 22
REMARK SMILES IDX 9 25 10 26 14 27 11 28 13 30 12 32 15 34 18 35 16 36 17 37
REMARK SMILES IDX 23 42 24 45 25 48 26 51 27 52 28 54 29 55 30 56 91 57 31 58
REMARK SMILES IDX 90 60 32 62 33 65 34 66 84 67 35 68 89 69 83 70 85 71 36 72
REMARK SMILES IDX 88 73 82 75 81 77 37 79 69 82 49 83 68 84 50 85 53 86 67 87
REMARK SMILES IDX 86 88 51 89 52 91 66 93 87 94 54 97 38 99 39 100 47 101
REMARK SMILES IDX 40 102 41 103 45 104 48 105 42 106 43 107 46 108 44 109
REMARK SMILES IDX 70 110 71 111 79 112 72 113 73 114 77 115 80 116 74 117
REMARK SMILES IDX 75 118 78 119 76 120 55 121 56 122 64 123 57 124 58 125
REMARK SMILES IDX 62 126 65 127 59 128 60 129 63 130 61 131
REMARK H PARENT 22 2 22 3 21 5 21 6 20 8 20 9 19 13 3 15 3 16 5 21 6 23 7 24
REMARK H PARENT 10 29 14 31 11 33 16 38 16 39 17 40 17 41 23 43 23 44 24 46
REMARK H PARENT 24 47 25 49 25 50 26 53 30 59 91 61 31 63 90 64 89 74 83 76
REMARK H PARENT 85 78 88 80 82 81 50 90 53 92 86 95 51 96 87 98
REMARK Flexibility Score: inf
ROOT
ATOM      1  C   UNL A   1      32.036  27.534  24.558  1.00  0.00    -0.052 C 
ATOM      2  H   UNL A   1      32.668  26.676  24.658  1.00  0.00     0.027 H 
ATOM      3  H   UNL A   1      31.092  27.430  25.052  1.00  0.00     0.027 H 
ENDROOT
BRANCH   1   4
ATOM      4  C   UNL A   1      31.716  27.717  23.069  1.00  0.00    -0.036 C 
ATOM      5  H   UNL A   1      30.866  28.362  22.988  1.00  0.00     0.028 H 
ATOM      6  H   UNL A   1      32.598  28.122  22.619  1.00  0.00     0.028 H 
BRANCH   4   7
ATOM      7  C   UNL A   1      31.406  26.424  22.318  1.00  0.00     0.017 C 
ATOM      8  H   UNL A   1      30.472  26.034  22.666  1.00  0.00     0.049 H 
ATOM      9  H   UNL A   1      31.359  26.644  21.272  1.00  0.00     0.049 H 
BRANCH   7  10
ATOM     10  N   UNL A   1      32.436  25.432  22.528  1.00  0.00    -0.356 N 
ATOM     11  O   UNL A   1      31.037  23.747  23.224  1.00  0.00    -0.275 OA
ATOM     12  C   UNL A   1      32.164  24.148  22.947  1.00  0.00     0.225 C 
ATOM     13  H   UNL A   1      33.374  25.685  22.363  1.00  0.00     0.163 HD
BRANCH  12  14
ATOM     14  C   UNL A   1      33.400  23.275  23.075  1.00  0.00     0.067 C 
ATOM     15  H   UNL A   1      34.007  23.410  22.203  1.00  0.00     0.043 H 
ATOM     16  H   UNL A   1      33.072  22.262  23.175  1.00  0.00     0.043 H 
BRANCH  14  17
ATOM     17  C   UNL A   1      34.227  23.608  24.292  1.00  0.00     0.032 A 
ATOM     18  C   UNL A   1      34.583  24.847  24.811  1.00  0.00    -0.040 A 
ATOM     19  N   UNL A   1      34.644  22.648  25.211  1.00  0.00    -0.320 N 
ATOM     20  C   UNL A   1      35.115  24.651  26.101  1.00  0.00    -0.044 A 
ATOM     21  H   UNL A   1      34.475  25.756  24.333  1.00  0.00     0.064 H 
ATOM     22  C   UNL A   1      35.091  23.300  26.343  1.00  0.00     0.009 A 
ATOM     23  H   UNL A   1      35.458  25.384  26.742  1.00  0.00     0.064 H 
ATOM     24  H   UNL A   1      35.363  22.845  27.228  1.00  0.00     0.082 H 
BRANCH  19  25
ATOM     25  C   UNL A   1      34.632  21.239  25.067  1.00  0.00     0.049 A 
ATOM     26  C   UNL A   1      35.835  20.554  24.854  1.00  0.00    -0.034 A 
ATOM     27  C   UNL A   1      33.415  20.547  25.071  1.00  0.00     0.008 A 
ATOM     28  C   UNL A   1      35.822  19.168  24.688  1.00  0.00    -0.014 A 
ATOM     29  H   UNL A   1      36.728  21.072  24.821  1.00  0.00     0.065 H 
ATOM     30  C   UNL A   1      33.409  19.166  24.887  1.00  0.00     0.163 A 
ATOM     31  H   UNL A   1      32.528  21.056  25.209  1.00  0.00     0.069 H 
ATOM     32  C   UNL A   1      34.610  18.479  24.687  1.00  0.00     0.161 A 
ATOM     33  H   UNL A   1      36.708  18.654  24.565  1.00  0.00     0.066 H 
ATOM     34  O   UNL A   1      32.182  18.554  24.889  1.00  0.00    -0.486 OA
ATOM     35  O   UNL A   1      34.672  17.125  24.475  1.00  0.00    -0.486 OA
ATOM     36  C   UNL A   1      32.300  17.132  24.998  1.00  0.00     0.122 C 
ATOM     37  C   UNL A   1      33.396  16.607  24.085  1.00  0.00     0.122 C 
ATOM     38  H   UNL A   1      31.370  16.681  24.724  1.00  0.00     0.074 H 
ATOM     39  H   UNL A   1      32.552  16.888  26.009  1.00  0.00     0.074 H 
ATOM     40  H   UNL A   1      33.187  16.905  23.078  1.00  0.00     0.074 H 
ATOM     41  H   UNL A   1      33.421  15.539  24.158  1.00  0.00     0.074 H 
ENDBRANCH  19  25
ENDBRANCH  14  17
ENDBRANCH  12  14
ENDBRANCH   7  10
ENDBRANCH   4   7
ENDBRANCH   1   4
BRANCH   1  42
ATOM     42  C   UNL A   1      32.737  28.719  25.231  1.00  0.00    -0.052 C 
ATOM     43  H   UNL A   1      32.027  29.514  25.324  1.00  0.00     0.027 H 
ATOM     44  H   UNL A   1      33.572  28.963  24.607  1.00  0.00     0.027 H 
BRANCH  42  45
ATOM     45  C   UNL A   1      33.316  28.433  26.622  1.00  0.00    -0.036 C 
ATOM     46  H   UNL A   1      33.072  27.425  26.888  1.00  0.00     0.028 H 
ATOM     47  H   UNL A   1      32.886  29.150  27.291  1.00  0.00     0.028 H 
BRANCH  45  48
ATOM     48  C   UNL A   1      34.833  28.600  26.712  1.00  0.00     0.018 C 
ATOM     49  H   UNL A   1      35.272  28.308  25.781  1.00  0.00     0.049 H 
ATOM     50  H   UNL A   1      35.198  27.985  27.507  1.00  0.00     0.049 H 
BRANCH  48  51
ATOM     51  N   UNL A   1      35.190  29.980  26.992  1.00  0.00    -0.352 N 
ATOM     52  C   UNL A   1      36.229  30.489  27.728  1.00  0.00     0.251 C 
ATOM     53  H   UNL A   1      34.594  30.654  26.592  1.00  0.00     0.163 HD
ATOM     54  O   UNL A   1      36.146  31.629  28.170  1.00  0.00    -0.269 OA
BRANCH  52  55
ATOM     55  C   UNL A   1      37.443  29.693  28.005  1.00  0.00     0.039 A 
ATOM     56  C   UNL A   1      38.456  29.692  27.036  1.00  0.00    -0.049 A 
ATOM     57  C   UNL A   1      37.548  28.874  29.134  1.00  0.00    -0.049 A 
ATOM     58  C   UNL A   1      39.594  28.915  27.225  1.00  0.00    -0.053 A 
ATOM     59  H   UNL A   1      38.358  30.266  26.185  1.00  0.00     0.063 H 
ATOM     60  C   UNL A   1      38.696  28.114  29.340  1.00  0.00    -0.053 A 
ATOM     61  H   UNL A   1      36.774  28.832  29.815  1.00  0.00     0.063 H 
ATOM     62  C   UNL A   1      39.724  28.150  28.390  1.00  0.00    -0.014 A 
ATOM     63  H   UNL A   1      40.339  28.904  26.510  1.00  0.00     0.063 H 
ATOM     64  H   UNL A   1      38.788  27.530  30.184  1.00  0.00     0.063 H 
BRANCH  62  65
ATOM     65  C   UNL A   1      41.042  27.546  28.691  1.00  0.00     0.031 A 
ATOM     66  C   UNL A   1      41.105  26.079  28.187  1.00  0.00     0.074 A 
ATOM     67  C   UNL A   1      41.940  28.342  29.353  1.00  0.00     0.049 A 
ATOM     68  N   UNL A   1      41.832  25.078  28.583  1.00  0.00    -0.248 NA
ATOM     69  C   UNL A   1      40.173  25.649  27.104  1.00  0.00    -0.034 C 
ATOM     70  C   UNL A   1      41.716  29.765  29.696  1.00  0.00    -0.036 A 
ATOM     71  N   UNL A   1      43.204  28.140  29.875  1.00  0.00    -0.354 N 
ATOM     72  C   UNL A   1      41.601  23.995  27.698  1.00  0.00     0.074 A 
ATOM     73  C   UNL A   1      40.490  24.371  26.882  1.00  0.00    -0.034 C 
ATOM     74  H   UNL A   1      39.448  26.212  26.632  1.00  0.00     0.065 H 
ATOM     75  C   UNL A   1      42.743  30.261  30.422  1.00  0.00    -0.036 A 
ATOM     76  H   UNL A   1      40.885  30.308  29.417  1.00  0.00     0.065 H 
ATOM     77  C   UNL A   1      43.739  29.229  30.626  1.00  0.00     0.049 A 
ATOM     78  H   UNL A   1      43.702  27.303  29.738  1.00  0.00     0.167 HD
ATOM     79  C   UNL A   1      42.433  22.912  27.605  1.00  0.00     0.037 A 
ATOM     80  H   UNL A   1      40.004  23.748  26.219  1.00  0.00     0.065 H 
ATOM     81  H   UNL A   1      42.808  31.228  30.778  1.00  0.00     0.065 H 
ATOM     82  C   UNL A   1      44.874  29.270  31.397  1.00  0.00     0.037 A 
ATOM     83  C   UNL A   1      43.464  23.023  28.576  1.00  0.00     0.049 A 
ATOM     84  C   UNL A   1      45.531  27.984  31.146  1.00  0.00     0.074 A 
ATOM     85  C   UNL A   1      43.467  22.863  29.935  1.00  0.00    -0.036 A 
ATOM     86  N   UNL A   1      44.602  23.686  28.193  1.00  0.00    -0.354 N 
ATOM     87  N   UNL A   1      46.165  27.687  30.052  1.00  0.00    -0.248 NA
ATOM     88  C   UNL A   1      45.393  26.917  32.142  1.00  0.00    -0.034 C 
ATOM     89  C   UNL A   1      44.352  23.870  30.370  1.00  0.00    -0.036 A 
ATOM     90  H   UNL A   1      42.947  22.176  30.502  1.00  0.00     0.065 H 
ATOM     91  C   UNL A   1      45.018  24.423  29.270  1.00  0.00     0.049 A 
ATOM     92  H   UNL A   1      45.036  23.641  27.310  1.00  0.00     0.167 HD
ATOM     93  C   UNL A   1      46.194  26.316  30.105  1.00  0.00     0.074 A 
ATOM     94  C   UNL A   1      46.027  25.946  31.493  1.00  0.00    -0.034 C 
ATOM     95  H   UNL A   1      44.939  26.919  33.070  1.00  0.00     0.065 H 
ATOM     96  H   UNL A   1      44.489  24.155  31.352  1.00  0.00     0.065 H 
ATOM     97  C   UNL A   1      45.807  25.602  29.018  1.00  0.00     0.037 A 
ATOM     98  H   UNL A   1      46.352  25.062  31.915  1.00  0.00     0.065 H 
BRANCH  79  99
ATOM     99  C   UNL A   1      42.610  21.826  26.572  1.00  0.00     0.064 A 
ATOM    100  C   UNL A   1      42.150  20.520  26.895  1.00  0.00     0.173 A 
ATOM    101  C   UNL A   1      43.521  21.909  25.514  1.00  0.00     0.173 A 
ATOM    102  F   UNL A   1      41.223  20.332  27.848  1.00  0.00    -0.203 F 
ATOM    103  C   UNL A   1      42.699  19.376  26.320  1.00  0.00     0.198 A 
ATOM    104  C   UNL A   1      44.030  20.758  24.900  1.00  0.00     0.198 A 
ATOM    105  F   UNL A   1      44.017  23.088  25.117  1.00  0.00    -0.203 F 
ATOM    106  F   UNL A   1      42.351  18.164  26.776  1.00  0.00    -0.200 F 
ATOM    107  C   UNL A   1      43.658  19.496  25.336  1.00  0.00     0.200 A 
ATOM    108  F   UNL A   1      44.950  20.875  23.932  1.00  0.00    -0.200 F 
ATOM    109  F   UNL A   1      44.250  18.403  24.836  1.00  0.00    -0.200 F 
ENDBRANCH  79  99
BRANCH  82 110
ATOM    110  C   UNL A   1      45.548  30.161  32.426  1.00  0.00     0.064 A 
ATOM    111  C   UNL A   1      46.668  30.973  32.219  1.00  0.00     0.173 A 
ATOM    112  C   UNL A   1      44.981  30.289  33.733  1.00  0.00     0.173 A 
ATOM    113  F   UNL A   1      47.394  30.871  31.101  1.00  0.00    -0.203 F 
ATOM    114  C   UNL A   1      47.094  31.918  33.177  1.00  0.00     0.198 A 
ATOM    115  C   UNL A   1      45.365  31.260  34.658  1.00  0.00     0.198 A 
ATOM    116  F   UNL A   1      44.017  29.468  34.169  1.00  0.00    -0.203 F 
ATOM    117  F   UNL A   1      48.169  32.679  32.927  1.00  0.00    -0.200 F 
ATOM    118  C   UNL A   1      46.415  32.093  34.371  1.00  0.00     0.200 A 
ATOM    119  F   UNL A   1      44.689  31.384  35.810  1.00  0.00    -0.200 F 
ATOM    120  F   UNL A   1      46.776  33.044  35.243  1.00  0.00    -0.200 F 
ENDBRANCH  82 110
BRANCH  97 121
ATOM    121  C   UNL A   1      45.917  26.364  27.709  1.00  0.00     0.064 A 
ATOM    122  C   UNL A   1      44.757  26.654  26.973  1.00  0.00     0.173 A 
ATOM    123  C   UNL A   1      47.133  26.702  27.089  1.00  0.00     0.173 A 
ATOM    124  F   UNL A   1      43.551  26.386  27.497  1.00  0.00    -0.203 F 
ATOM    125  C   UNL A   1      44.815  27.220  25.695  1.00  0.00     0.198 A 
ATOM    126  C   UNL A   1      47.196  27.273  25.815  1.00  0.00     0.198 A 
ATOM    127  F   UNL A   1      48.292  26.493  27.707  1.00  0.00    -0.203 F 
ATOM    128  F   UNL A   1      43.682  27.474  25.028  1.00  0.00    -0.200 F 
ATOM    129  C   UNL A   1      46.034  27.525  25.115  1.00  0.00     0.200 A 
ATOM    130  F   UNL A   1      48.386  27.579  25.275  1.00  0.00    -0.200 F 
ATOM    131  F   UNL A   1      46.089  28.076  23.893  1.00  0.00    -0.200 F 
ENDBRANCH  97 121
ENDBRANCH  62  65
ENDBRANCH  52  55
ENDBRANCH  48  51
ENDBRANCH  45  48
ENDBRANCH  42  45
ENDBRANCH   1  42
TORSDOF 15
ENDMDL
MODEL 7
REMARK VINA RESULT:     -11.6      4.484      6.970
REMARK SMILES O=C(Cc1cccn1-c1ccc2c(c1)OCCO2)NCCCCCCNC(=O)c1ccc(-c2c3nc(c(-c4c(F)c(F)c(F)c(F)c4F)c4ccc([nH]4)c(-c4c(F)c(F)c(F)c(F)c4F)c4nc(c(-c5c(F)c(F)c(F)c(F)c5F)c5ccc2[nH]5)C=C4)C=C3)cc1
REMARK SMILES IDX 22 1 21 4 20 7 19 10 1 11 2 12 3 14 4 17 5 18 8 19 6 20 7 22
REMARK SMILES IDX 9 25 10 26 14 27 11 28 13 30 12 32 15 34 18 35 16 36 17 37
REMARK SMILES IDX 23 42 24 45 25 48 26 51 27 52 28 54 29 55 30 56 91 57 31 58
REMARK SMILES IDX 90 60 32 62 33 65 34 66 84 67 35 68 89 69 83 70 85 71 36 72
REMARK SMILES IDX 88 73 82 75 81 77 37 79 69 82 49 83 68 84 50 85 53 86 67 87
REMARK SMILES IDX 86 88 51 89 52 91 66 93 87 94 54 97 38 99 39 100 47 101
REMARK SMILES IDX 40 102 41 103 45 104 48 105 42 106 43 107 46 108 44 109
REMARK SMILES IDX 70 110 71 111 79 112 72 113 73 114 77 115 80 116 74 117
REMARK SMILES IDX 75 118 78 119 76 120 55 121 56 122 64 123 57 124 58 125
REMARK SMILES IDX 62 126 65 127 59 128 60 129 63 130 61 131
REMARK H PARENT 22 2 22 3 21 5 21 6 20 8 20 9 19 13 3 15 3 16 5 21 6 23 7 24
REMARK H PARENT 10 29 14 31 11 33 16 38 16 39 17 40 17 41 23 43 23 44 24 46
REMARK H PARENT 24 47 25 49 25 50 26 53 30 59 91 61 31 63 90 64 89 74 83 76
REMARK H PARENT 85 78 88 80 82 81 50 90 53 92 86 95 51 96 87 98
REMARK Flexibility Score: inf
ROOT
ATOM      1  C   UNL A   1      34.233  33.431  28.994  1.00  0.00    -0.052 C 
ATOM      2  H   UNL A   1      34.788  33.316  29.901  1.00  0.00     0.027 H 
ATOM      3  H   UNL A   1      33.195  33.191  29.093  1.00  0.00     0.027 H 
ENDROOT
BRANCH   1   4
ATOM      4  C   UNL A   1      34.798  32.446  27.963  1.00  0.00    -0.036 C 
ATOM      5  H   UNL A   1      34.602  32.836  26.986  1.00  0.00     0.028 H 
ATOM      6  H   UNL A   1      35.842  32.351  28.178  1.00  0.00     0.028 H 
BRANCH   4   7
ATOM      7  C   UNL A   1      34.215  31.037  28.038  1.00  0.00     0.017 C 
ATOM      8  H   UNL A   1      34.850  30.428  28.648  1.00  0.00     0.049 H 
ATOM      9  H   UNL A   1      33.233  31.100  28.458  1.00  0.00     0.049 H 
BRANCH   7  10
ATOM     10  N   UNL A   1      34.110  30.438  26.726  1.00  0.00    -0.356 N 
ATOM     11  O   UNL A   1      33.006  28.537  27.395  1.00  0.00    -0.275 OA
ATOM     12  C   UNL A   1      33.485  29.231  26.503  1.00  0.00     0.225 C 
ATOM     13  H   UNL A   1      34.503  30.915  25.959  1.00  0.00     0.163 HD
BRANCH  12  14
ATOM     14  C   UNL A   1      33.475  28.813  25.042  1.00  0.00     0.067 C 
ATOM     15  H   UNL A   1      34.218  28.056  24.897  1.00  0.00     0.043 H 
ATOM     16  H   UNL A   1      33.676  29.684  24.455  1.00  0.00     0.043 H 
BRANCH  14  17
ATOM     17  C   UNL A   1      32.139  28.266  24.601  1.00  0.00     0.032 A 
ATOM     18  C   UNL A   1      31.032  28.932  24.092  1.00  0.00    -0.040 A 
ATOM     19  N   UNL A   1      31.876  26.902  24.496  1.00  0.00    -0.320 N 
ATOM     20  C   UNL A   1      30.140  27.974  23.569  1.00  0.00    -0.044 A 
ATOM     21  H   UNL A   1      30.887  29.954  24.094  1.00  0.00     0.064 H 
ATOM     22  C   UNL A   1      30.706  26.742  23.782  1.00  0.00     0.009 A 
ATOM     23  H   UNL A   1      29.233  28.164  23.114  1.00  0.00     0.064 H 
ATOM     24  H   UNL A   1      30.320  25.841  23.459  1.00  0.00     0.082 H 
BRANCH  19  25
ATOM     25  C   UNL A   1      32.640  25.824  25.009  1.00  0.00     0.049 A 
ATOM     26  C   UNL A   1      33.893  25.537  24.454  1.00  0.00    -0.034 A 
ATOM     27  C   UNL A   1      32.112  25.014  26.021  1.00  0.00     0.008 A 
ATOM     28  C   UNL A   1      34.636  24.461  24.943  1.00  0.00    -0.014 A 
ATOM     29  H   UNL A   1      34.266  26.119  23.687  1.00  0.00     0.065 H 
ATOM     30  C   UNL A   1      32.853  23.931  26.491  1.00  0.00     0.163 A 
ATOM     31  H   UNL A   1      31.180  25.216  26.416  1.00  0.00     0.069 H 
ATOM     32  C   UNL A   1      34.109  23.650  25.946  1.00  0.00     0.161 A 
ATOM     33  H   UNL A   1      35.574  24.265  24.561  1.00  0.00     0.066 H 
ATOM     34  O   UNL A   1      32.269  23.171  27.473  1.00  0.00    -0.486 OA
ATOM     35  O   UNL A   1      34.877  22.586  26.346  1.00  0.00    -0.486 OA
ATOM     36  C   UNL A   1      33.212  22.291  28.090  1.00  0.00     0.122 C 
ATOM     37  C   UNL A   1      34.090  21.617  27.047  1.00  0.00     0.122 C 
ATOM     38  H   UNL A   1      32.684  21.540  28.639  1.00  0.00     0.074 H 
ATOM     39  H   UNL A   1      33.837  22.862  28.744  1.00  0.00     0.074 H 
ATOM     40  H   UNL A   1      33.468  21.097  26.348  1.00  0.00     0.074 H 
ATOM     41  H   UNL A   1      34.747  20.932  27.541  1.00  0.00     0.074 H 
ENDBRANCH  19  25
ENDBRANCH  14  17
ENDBRANCH  12  14
ENDBRANCH   7  10
ENDBRANCH   4   7
ENDBRANCH   1   4
BRANCH   1  42
ATOM     42  C   UNL A   1      34.288  34.908  28.590  1.00  0.00    -0.052 C 
ATOM     43  H   UNL A   1      34.429  34.957  27.530  1.00  0.00     0.027 H 
ATOM     44  H   UNL A   1      35.093  35.339  29.148  1.00  0.00     0.027 H 
BRANCH  42  45
ATOM     45  C   UNL A   1      33.040  35.729  28.941  1.00  0.00    -0.036 C 
ATOM     46  H   UNL A   1      32.259  35.053  29.218  1.00  0.00     0.028 H 
ATOM     47  H   UNL A   1      32.796  36.308  28.074  1.00  0.00     0.028 H 
BRANCH  45  48
ATOM     48  C   UNL A   1      33.248  36.718  30.088  1.00  0.00     0.018 C 
ATOM     49  H   UNL A   1      32.998  37.702  29.751  1.00  0.00     0.049 H 
ATOM     50  H   UNL A   1      34.272  36.676  30.393  1.00  0.00     0.049 H 
BRANCH  48  51
ATOM     51  N   UNL A   1      32.412  36.379  31.227  1.00  0.00    -0.352 N 
ATOM     52  C   UNL A   1      32.572  35.406  32.179  1.00  0.00     0.251 C 
ATOM     53  H   UNL A   1      31.605  36.935  31.331  1.00  0.00     0.163 HD
ATOM     54  O   UNL A   1      31.596  35.022  32.812  1.00  0.00    -0.269 OA
BRANCH  52  55
ATOM     55  C   UNL A   1      33.893  34.805  32.456  1.00  0.00     0.039 A 
ATOM     56  C   UNL A   1      33.920  33.530  33.038  1.00  0.00    -0.049 A 
ATOM     57  C   UNL A   1      35.084  35.513  32.258  1.00  0.00    -0.049 A 
ATOM     58  C   UNL A   1      35.137  32.944  33.368  1.00  0.00    -0.053 A 
ATOM     59  H   UNL A   1      33.038  33.026  33.220  1.00  0.00     0.063 H 
ATOM     60  C   UNL A   1      36.306  34.921  32.564  1.00  0.00    -0.053 A 
ATOM     61  H   UNL A   1      35.056  36.475  31.885  1.00  0.00     0.063 H 
ATOM     62  C   UNL A   1      36.329  33.630  33.104  1.00  0.00    -0.014 A 
ATOM     63  H   UNL A   1      35.161  32.009  33.805  1.00  0.00     0.063 H 
ATOM     64  H   UNL A   1      37.187  35.430  32.394  1.00  0.00     0.063 H 
BRANCH  62  65
ATOM     65  C   UNL A   1      37.605  32.890  33.218  1.00  0.00     0.031 A 
ATOM     66  C   UNL A   1      37.645  31.700  32.221  1.00  0.00     0.074 A 
ATOM     67  C   UNL A   1      38.493  33.345  34.158  1.00  0.00     0.049 A 
ATOM     68  N   UNL A   1      38.311  30.586  32.257  1.00  0.00    -0.248 NA
ATOM     69  C   UNL A   1      36.760  31.739  31.020  1.00  0.00    -0.034 C 
ATOM     70  C   UNL A   1      38.302  34.560  34.982  1.00  0.00    -0.036 A 
ATOM     71  N   UNL A   1      39.718  32.902  34.621  1.00  0.00    -0.354 N 
ATOM     72  C   UNL A   1      38.092  29.907  31.032  1.00  0.00     0.074 A 
ATOM     73  C   UNL A   1      37.043  30.610  30.364  1.00  0.00    -0.034 C 
ATOM     74  H   UNL A   1      36.083  32.471  30.756  1.00  0.00     0.065 H 
ATOM     75  C   UNL A   1      39.303  34.706  35.879  1.00  0.00    -0.036 A 
ATOM     76  H   UNL A   1      37.507  35.210  34.886  1.00  0.00     0.065 H 
ATOM     77  C   UNL A   1      40.249  33.618  35.735  1.00  0.00     0.049 A 
ATOM     78  H   UNL A   1      40.193  32.144  34.210  1.00  0.00     0.167 HD
ATOM     79  C   UNL A   1      38.889  28.886  30.587  1.00  0.00     0.037 A 
ATOM     80  H   UNL A   1      36.572  30.294  29.502  1.00  0.00     0.065 H 
ATOM     81  H   UNL A   1      39.382  35.476  36.562  1.00  0.00     0.065 H 
ATOM     82  C   UNL A   1      41.340  33.319  36.513  1.00  0.00     0.037 A 
ATOM     83  C   UNL A   1      39.867  28.586  31.572  1.00  0.00     0.049 A 
ATOM     84  C   UNL A   1      41.963  32.175  35.840  1.00  0.00     0.074 A 
ATOM     85  C   UNL A   1      39.788  27.949  32.781  1.00  0.00    -0.036 A 
ATOM     86  N   UNL A   1      41.047  29.280  31.500  1.00  0.00    -0.354 N 
ATOM     87  N   UNL A   1      42.646  32.257  34.739  1.00  0.00    -0.248 NA
ATOM     88  C   UNL A   1      41.731  30.831  36.377  1.00  0.00    -0.034 C 
ATOM     89  C   UNL A   1      40.682  28.684  33.584  1.00  0.00    -0.036 A 
ATOM     90  H   UNL A   1      39.213  27.133  33.041  1.00  0.00     0.065 H 
ATOM     91  C   UNL A   1      41.429  29.558  32.786  1.00  0.00     0.049 A 
ATOM     92  H   UNL A   1      41.529  29.532  30.678  1.00  0.00     0.167 HD
ATOM     93  C   UNL A   1      42.623  30.959  34.295  1.00  0.00     0.074 A 
ATOM     94  C   UNL A   1      42.366  30.125  35.447  1.00  0.00    -0.034 C 
ATOM     95  H   UNL A   1      41.226  30.524  37.224  1.00  0.00     0.065 H 
ATOM     96  H   UNL A   1      40.774  28.589  34.608  1.00  0.00     0.065 H 
ATOM     97  C   UNL A   1      42.273  30.704  33.008  1.00  0.00     0.037 A 
ATOM     98  H   UNL A   1      42.635  29.132  35.533  1.00  0.00     0.065 H 
BRANCH  79  99
ATOM     99  C   UNL A   1      39.084  28.236  29.240  1.00  0.00     0.064 A 
ATOM    100  C   UNL A   1      39.182  26.819  29.193  1.00  0.00     0.173 A 
ATOM    101  C   UNL A   1      39.560  28.918  28.115  1.00  0.00     0.173 A 
ATOM    102  F   UNL A   1      38.693  26.062  30.188  1.00  0.00    -0.203 F 
ATOM    103  C   UNL A   1      39.867  26.153  28.179  1.00  0.00     0.198 A 
ATOM    104  C   UNL A   1      40.200  28.241  27.070  1.00  0.00     0.198 A 
ATOM    105  F   UNL A   1      39.514  30.255  28.044  1.00  0.00    -0.203 F 
ATOM    106  F   UNL A   1      40.076  24.832  28.266  1.00  0.00    -0.200 F 
ATOM    107  C   UNL A   1      40.398  26.870  27.127  1.00  0.00     0.200 A 
ATOM    108  F   UNL A   1      40.702  28.937  26.039  1.00  0.00    -0.200 F 
ATOM    109  F   UNL A   1      41.128  26.251  26.189  1.00  0.00    -0.200 F 
ENDBRANCH  79  99
BRANCH  82 110
ATOM    110  C   UNL A   1      41.986  33.743  37.820  1.00  0.00     0.064 A 
ATOM    111  C   UNL A   1      43.222  34.381  37.969  1.00  0.00     0.173 A 
ATOM    112  C   UNL A   1      41.276  33.574  39.050  1.00  0.00     0.173 A 
ATOM    113  F   UNL A   1      44.067  34.493  36.939  1.00  0.00    -0.203 F 
ATOM    114  C   UNL A   1      43.642  34.919  39.205  1.00  0.00     0.198 A 
ATOM    115  C   UNL A   1      41.662  34.153  40.259  1.00  0.00     0.198 A 
ATOM    116  F   UNL A   1      40.162  32.834  39.128  1.00  0.00    -0.203 F 
ATOM    117  F   UNL A   1      44.832  35.530  39.294  1.00  0.00    -0.200 F 
ATOM    118  C   UNL A   1      42.842  34.847  40.333  1.00  0.00     0.200 A 
ATOM    119  F   UNL A   1      40.864  34.045  41.332  1.00  0.00    -0.200 F 
ATOM    120  F   UNL A   1      43.209  35.425  41.484  1.00  0.00    -0.200 F 
ENDBRANCH  82 110
BRANCH  97 121
ATOM    121  C   UNL A   1      42.483  31.878  32.068  1.00  0.00     0.064 A 
ATOM    122  C   UNL A   1      43.784  32.340  31.811  1.00  0.00     0.173 A 
ATOM    123  C   UNL A   1      41.442  32.646  31.515  1.00  0.00     0.173 A 
ATOM    124  F   UNL A   1      44.838  31.657  32.281  1.00  0.00    -0.203 F 
ATOM    125  C   UNL A   1      44.022  33.505  31.074  1.00  0.00     0.198 A 
ATOM    126  C   UNL A   1      41.675  33.807  30.772  1.00  0.00     0.198 A 
ATOM    127  F   UNL A   1      40.173  32.285  31.676  1.00  0.00    -0.203 F 
ATOM    128  F   UNL A   1      45.280  33.911  30.858  1.00  0.00    -0.200 F 
ATOM    129  C   UNL A   1      42.967  34.240  30.558  1.00  0.00     0.200 A 
ATOM    130  F   UNL A   1      40.642  34.497  30.265  1.00  0.00    -0.200 F 
ATOM    131  F   UNL A   1      43.196  35.352  29.843  1.00  0.00    -0.200 F 
ENDBRANCH  97 121
ENDBRANCH  62  65
ENDBRANCH  52  55
ENDBRANCH  48  51
ENDBRANCH  45  48
ENDBRANCH  42  45
ENDBRANCH   1  42
TORSDOF 15
ENDMDL
MODEL 8
REMARK VINA RESULT:     -11.6      3.073      8.328
REMARK SMILES O=C(Cc1cccn1-c1ccc2c(c1)OCCO2)NCCCCCCNC(=O)c1ccc(-c2c3nc(c(-c4c(F)c(F)c(F)c(F)c4F)c4ccc([nH]4)c(-c4c(F)c(F)c(F)c(F)c4F)c4nc(c(-c5c(F)c(F)c(F)c(F)c5F)c5ccc2[nH]5)C=C4)C=C3)cc1
REMARK SMILES IDX 22 1 21 4 20 7 19 10 1 11 2 12 3 14 4 17 5 18 8 19 6 20 7 22
REMARK SMILES IDX 9 25 10 26 14 27 11 28 13 30 12 32 15 34 18 35 16 36 17 37
REMARK SMILES IDX 23 42 24 45 25 48 26 51 27 52 28 54 29 55 30 56 91 57 31 58
REMARK SMILES IDX 90 60 32 62 33 65 34 66 84 67 35 68 89 69 83 70 85 71 36 72
REMARK SMILES IDX 88 73 82 75 81 77 37 79 69 82 49 83 68 84 50 85 53 86 67 87
REMARK SMILES IDX 86 88 51 89 52 91 66 93 87 94 54 97 38 99 39 100 47 101
REMARK SMILES IDX 40 102 41 103 45 104 48 105 42 106 43 107 46 108 44 109
REMARK SMILES IDX 70 110 71 111 79 112 72 113 73 114 77 115 80 116 74 117
REMARK SMILES IDX 75 118 78 119 76 120 55 121 56 122 64 123 57 124 58 125
REMARK SMILES IDX 62 126 65 127 59 128 60 129 63 130 61 131
REMARK H PARENT 22 2 22 3 21 5 21 6 20 8 20 9 19 13 3 15 3 16 5 21 6 23 7 24
REMARK H PARENT 10 29 14 31 11 33 16 38 16 39 17 40 17 41 23 43 23 44 24 46
REMARK H PARENT 24 47 25 49 25 50 26 53 30 59 91 61 31 63 90 64 89 74 83 76
REMARK H PARENT 85 78 88 80 82 81 50 90 53 92 86 95 51 96 87 98
REMARK Flexibility Score: inf
ROOT
ATOM      1  C   UNL A   1      40.735  19.832  26.469  1.00  0.00    -0.052 C 
ATOM      2  H   UNL A   1      40.463  19.304  25.579  1.00  0.00     0.027 H 
ATOM      3  H   UNL A   1      40.030  19.721  27.266  1.00  0.00     0.027 H 
ENDROOT
BRANCH   1   4
ATOM      4  C   UNL A   1      40.769  21.330  26.140  1.00  0.00    -0.036 C 
ATOM      5  H   UNL A   1      41.583  21.771  26.677  1.00  0.00     0.028 H 
ATOM      6  H   UNL A   1      40.875  21.403  25.078  1.00  0.00     0.028 H 
BRANCH   4   7
ATOM      7  C   UNL A   1      39.495  22.092  26.497  1.00  0.00     0.017 C 
ATOM      8  H   UNL A   1      39.059  21.652  27.370  1.00  0.00     0.049 H 
ATOM      9  H   UNL A   1      39.752  23.115  26.675  1.00  0.00     0.049 H 
BRANCH   7  10
ATOM     10  N   UNL A   1      38.533  22.047  25.419  1.00  0.00    -0.356 N 
ATOM     11  O   UNL A   1      37.115  23.643  26.268  1.00  0.00    -0.275 OA
ATOM     12  C   UNL A   1      37.416  22.853  25.378  1.00  0.00     0.225 C 
ATOM     13  H   UNL A   1      38.682  21.411  24.681  1.00  0.00     0.163 HD
BRANCH  12  14
ATOM     14  C   UNL A   1      36.563  22.648  24.138  1.00  0.00     0.067 C 
ATOM     15  H   UNL A   1      37.062  21.958  23.489  1.00  0.00     0.043 H 
ATOM     16  H   UNL A   1      36.432  23.604  23.674  1.00  0.00     0.043 H 
BRANCH  14  17
ATOM     17  C   UNL A   1      35.192  22.105  24.457  1.00  0.00     0.032 A 
ATOM     18  C   UNL A   1      34.774  20.790  24.620  1.00  0.00    -0.040 A 
ATOM     19  N   UNL A   1      34.117  22.919  24.807  1.00  0.00    -0.320 N 
ATOM     20  C   UNL A   1      33.481  20.802  25.179  1.00  0.00    -0.044 A 
ATOM     21  H   UNL A   1      35.319  19.948  24.373  1.00  0.00     0.064 H 
ATOM     22  C   UNL A   1      33.124  22.119  25.335  1.00  0.00     0.009 A 
ATOM     23  H   UNL A   1      32.912  19.977  25.426  1.00  0.00     0.064 H 
ATOM     24  H   UNL A   1      32.254  22.456  25.774  1.00  0.00     0.082 H 
BRANCH  19  25
ATOM     25  C   UNL A   1      34.008  24.325  24.673  1.00  0.00     0.049 A 
ATOM     26  C   UNL A   1      33.895  25.124  25.818  1.00  0.00    -0.034 A 
ATOM     27  C   UNL A   1      33.947  24.902  23.399  1.00  0.00     0.008 A 
ATOM     28  C   UNL A   1      33.763  26.507  25.685  1.00  0.00    -0.014 A 
ATOM     29  H   UNL A   1      33.909  24.692  26.755  1.00  0.00     0.065 H 
ATOM     30  C   UNL A   1      33.798  26.282  23.276  1.00  0.00     0.163 A 
ATOM     31  H   UNL A   1      34.012  24.309  22.557  1.00  0.00     0.069 H 
ATOM     32  C   UNL A   1      33.696  27.082  24.417  1.00  0.00     0.161 A 
ATOM     33  H   UNL A   1      33.713  27.104  26.526  1.00  0.00     0.066 H 
ATOM     34  O   UNL A   1      33.732  26.778  21.999  1.00  0.00    -0.486 OA
ATOM     35  O   UNL A   1      33.524  28.442  24.365  1.00  0.00    -0.486 OA
ATOM     36  C   UNL A   1      33.885  28.200  21.976  1.00  0.00     0.122 C 
ATOM     37  C   UNL A   1      33.061  28.853  23.074  1.00  0.00     0.122 C 
ATOM     38  H   UNL A   1      33.560  28.573  21.027  1.00  0.00     0.074 H 
ATOM     39  H   UNL A   1      34.916  28.435  22.137  1.00  0.00     0.074 H 
ATOM     40  H   UNL A   1      32.035  28.568  22.960  1.00  0.00     0.074 H 
ATOM     41  H   UNL A   1      33.162  29.915  22.994  1.00  0.00     0.074 H 
ENDBRANCH  19  25
ENDBRANCH  14  17
ENDBRANCH  12  14
ENDBRANCH   7  10
ENDBRANCH   4   7
ENDBRANCH   1   4
BRANCH   1  42
ATOM     42  C   UNL A   1      42.053  19.243  26.984  1.00  0.00    -0.052 C 
ATOM     43  H   UNL A   1      41.849  18.728  27.900  1.00  0.00     0.027 H 
ATOM     44  H   UNL A   1      42.723  20.069  27.099  1.00  0.00     0.027 H 
BRANCH  42  45
ATOM     45  C   UNL A   1      42.747  18.261  26.032  1.00  0.00    -0.036 C 
ATOM     46  H   UNL A   1      42.377  18.433  25.042  1.00  0.00     0.028 H 
ATOM     47  H   UNL A   1      42.528  17.275  26.388  1.00  0.00     0.028 H 
BRANCH  45  48
ATOM     48  C   UNL A   1      44.270  18.392  26.005  1.00  0.00     0.018 C 
ATOM     49  H   UNL A   1      44.705  17.503  26.412  1.00  0.00     0.049 H 
ATOM     50  H   UNL A   1      44.550  19.245  26.586  1.00  0.00     0.049 H 
BRANCH  48  51
ATOM     51  N   UNL A   1      44.754  18.577  24.647  1.00  0.00    -0.352 N 
ATOM     52  C   UNL A   1      44.778  19.704  23.868  1.00  0.00     0.251 C 
ATOM     53  H   UNL A   1      45.120  17.769  24.222  1.00  0.00     0.163 HD
ATOM     54  O   UNL A   1      44.853  19.587  22.650  1.00  0.00    -0.269 OA
BRANCH  52  55
ATOM     55  C   UNL A   1      44.709  21.056  24.460  1.00  0.00     0.039 A 
ATOM     56  C   UNL A   1      44.739  21.158  25.858  1.00  0.00    -0.049 A 
ATOM     57  C   UNL A   1      44.505  22.197  23.676  1.00  0.00    -0.049 A 
ATOM     58  C   UNL A   1      44.622  22.403  26.465  1.00  0.00    -0.053 A 
ATOM     59  H   UNL A   1      44.850  20.310  26.435  1.00  0.00     0.063 H 
ATOM     60  C   UNL A   1      44.411  23.449  24.278  1.00  0.00    -0.053 A 
ATOM     61  H   UNL A   1      44.422  22.111  22.651  1.00  0.00     0.063 H 
ATOM     62  C   UNL A   1      44.486  23.549  25.672  1.00  0.00    -0.014 A 
ATOM     63  H   UNL A   1      44.635  22.481  27.494  1.00  0.00     0.063 H 
ATOM     64  H   UNL A   1      44.287  24.295  23.702  1.00  0.00     0.063 H 
BRANCH  62  65
ATOM     65  C   UNL A   1      44.627  24.872  26.320  1.00  0.00     0.031 A 
ATOM     66  C   UNL A   1      43.240  25.539  26.524  1.00  0.00     0.074 A 
ATOM     67  C   UNL A   1      45.905  25.280  26.603  1.00  0.00     0.049 A 
ATOM     68  N   UNL A   1      42.909  26.790  26.635  1.00  0.00    -0.248 NA
ATOM     69  C   UNL A   1      42.024  24.673  26.557  1.00  0.00    -0.034 C 
ATOM     70  C   UNL A   1      47.120  24.460  26.391  1.00  0.00    -0.036 A 
ATOM     71  N   UNL A   1      46.456  26.441  27.111  1.00  0.00    -0.354 N 
ATOM     72  C   UNL A   1      41.526  26.849  26.944  1.00  0.00     0.074 A 
ATOM     73  C   UNL A   1      41.018  25.525  26.770  1.00  0.00    -0.034 C 
ATOM     74  H   UNL A   1      41.973  23.649  26.442  1.00  0.00     0.065 H 
ATOM     75  C   UNL A   1      48.239  25.160  26.680  1.00  0.00    -0.036 A 
ATOM     76  H   UNL A   1      47.113  23.481  26.064  1.00  0.00     0.065 H 
ATOM     77  C   UNL A   1      47.881  26.496  27.113  1.00  0.00     0.049 A 
ATOM     78  H   UNL A   1      45.902  27.180  27.451  1.00  0.00     0.167 HD
ATOM     79  C   UNL A   1      40.920  27.963  27.459  1.00  0.00     0.037 A 
ATOM     80  H   UNL A   1      40.020  25.264  26.803  1.00  0.00     0.065 H 
ATOM     81  H   UNL A   1      49.204  24.798  26.606  1.00  0.00     0.065 H 
ATOM     82  C   UNL A   1      48.705  27.559  27.389  1.00  0.00     0.037 A 
ATOM     83  C   UNL A   1      41.863  29.023  27.532  1.00  0.00     0.049 A 
ATOM     84  C   UNL A   1      47.796  28.608  27.863  1.00  0.00     0.074 A 
ATOM     85  C   UNL A   1      42.428  29.818  26.572  1.00  0.00    -0.036 A 
ATOM     86  N   UNL A   1      42.590  29.122  28.691  1.00  0.00    -0.354 N 
ATOM     87  N   UNL A   1      47.230  28.614  29.031  1.00  0.00    -0.248 NA
ATOM     88  C   UNL A   1      47.414  29.678  26.936  1.00  0.00    -0.034 C 
ATOM     89  C   UNL A   1      43.751  29.973  27.029  1.00  0.00    -0.036 A 
ATOM     90  H   UNL A   1      41.992  30.207  25.721  1.00  0.00     0.065 H 
ATOM     91  C   UNL A   1      43.863  29.483  28.336  1.00  0.00     0.049 A 
ATOM     92  H   UNL A   1      42.259  28.961  29.604  1.00  0.00     0.167 HD
ATOM     93  C   UNL A   1      46.189  29.486  28.836  1.00  0.00     0.074 A 
ATOM     94  C   UNL A   1      46.544  30.319  27.710  1.00  0.00    -0.034 C 
ATOM     95  H   UNL A   1      47.727  29.875  25.971  1.00  0.00     0.065 H 
ATOM     96  H   UNL A   1      44.523  30.388  26.483  1.00  0.00     0.065 H 
ATOM     97  C   UNL A   1      44.939  29.124  29.223  1.00  0.00     0.037 A 
ATOM     98  H   UNL A   1      46.177  31.267  27.533  1.00  0.00     0.065 H 
BRANCH  79  99
ATOM     99  C   UNL A   1      39.603  28.198  28.158  1.00  0.00     0.064 A 
ATOM    100  C   UNL A   1      38.791  29.272  27.704  1.00  0.00     0.173 A 
ATOM    101  C   UNL A   1      39.311  27.707  29.435  1.00  0.00     0.173 A 
ATOM    102  F   UNL A   1      38.940  29.774  26.468  1.00  0.00    -0.203 F 
ATOM    103  C   UNL A   1      37.880  29.918  28.537  1.00  0.00     0.198 A 
ATOM    104  C   UNL A   1      38.355  28.324  30.250  1.00  0.00     0.198 A 
ATOM    105  F   UNL A   1      40.006  26.692  29.964  1.00  0.00    -0.203 F 
ATOM    106  F   UNL A   1      37.259  31.029  28.117  1.00  0.00    -0.200 F 
ATOM    107  C   UNL A   1      37.679  29.456  29.821  1.00  0.00     0.200 A 
ATOM    108  F   UNL A   1      38.147  27.865  31.492  1.00  0.00    -0.200 F 
ATOM    109  F   UNL A   1      36.867  30.119  30.656  1.00  0.00    -0.200 F 
ENDBRANCH  79  99
BRANCH  82 110
ATOM    110  C   UNL A   1      50.164  27.960  27.270  1.00  0.00     0.064 A 
ATOM    111  C   UNL A   1      51.044  28.222  28.325  1.00  0.00     0.173 A 
ATOM    112  C   UNL A   1      50.783  28.014  25.981  1.00  0.00     0.173 A 
ATOM    113  F   UNL A   1      50.598  28.345  29.579  1.00  0.00    -0.203 F 
ATOM    114  C   UNL A   1      52.431  28.386  28.119  1.00  0.00     0.198 A 
ATOM    115  C   UNL A   1      52.158  28.119  25.780  1.00  0.00     0.198 A 
ATOM    116  F   UNL A   1      50.066  27.962  24.851  1.00  0.00    -0.203 F 
ATOM    117  F   UNL A   1      53.235  28.627  29.165  1.00  0.00    -0.200 F 
ATOM    118  C   UNL A   1      52.991  28.286  26.856  1.00  0.00     0.200 A 
ATOM    119  F   UNL A   1      52.656  28.033  24.538  1.00  0.00    -0.200 F 
ATOM    120  F   UNL A   1      54.316  28.365  26.675  1.00  0.00    -0.200 F 
ENDBRANCH  82 110
BRANCH  97 121
ATOM    121  C   UNL A   1      44.913  28.060  30.306  1.00  0.00     0.064 A 
ATOM    122  C   UNL A   1      45.421  28.353  31.582  1.00  0.00     0.173 A 
ATOM    123  C   UNL A   1      44.524  26.725  30.096  1.00  0.00     0.173 A 
ATOM    124  F   UNL A   1      45.795  29.607  31.879  1.00  0.00    -0.203 F 
ATOM    125  C   UNL A   1      45.556  27.369  32.567  1.00  0.00     0.198 A 
ATOM    126  C   UNL A   1      44.651  25.739  31.078  1.00  0.00     0.198 A 
ATOM    127  F   UNL A   1      44.006  26.344  28.932  1.00  0.00    -0.203 F 
ATOM    128  F   UNL A   1      46.052  27.692  33.768  1.00  0.00    -0.200 F 
ATOM    129  C   UNL A   1      45.174  26.062  32.313  1.00  0.00     0.200 A 
ATOM    130  F   UNL A   1      44.259  24.482  30.822  1.00  0.00    -0.200 F 
ATOM    131  F   UNL A   1      45.295  25.120  33.262  1.00  0.00    -0.200 F 
ENDBRANCH  97 121
ENDBRANCH  62  65
ENDBRANCH  52  55
ENDBRANCH  48  51
ENDBRANCH  45  48
ENDBRANCH  42  45
ENDBRANCH   1  42
TORSDOF 15
ENDMDL
MODEL 9
REMARK VINA RESULT:     -11.6      9.328     14.267
REMARK SMILES O=C(Cc1cccn1-c1ccc2c(c1)OCCO2)NCCCCCCNC(=O)c1ccc(-c2c3nc(c(-c4c(F)c(F)c(F)c(F)c4F)c4ccc([nH]4)c(-c4c(F)c(F)c(F)c(F)c4F)c4nc(c(-c5c(F)c(F)c(F)c(F)c5F)c5ccc2[nH]5)C=C4)C=C3)cc1
REMARK SMILES IDX 22 1 21 4 20 7 19 10 1 11 2 12 3 14 4 17 5 18 8 19 6 20 7 22
REMARK SMILES IDX 9 25 10 26 14 27 11 28 13 30 12 32 15 34 18 35 16 36 17 37
REMARK SMILES IDX 23 42 24 45 25 48 26 51 27 52 28 54 29 55 30 56 91 57 31 58
REMARK SMILES IDX 90 60 32 62 33 65 34 66 84 67 35 68 89 69 83 70 85 71 36 72
REMARK SMILES IDX 88 73 82 75 81 77 37 79 69 82 49 83 68 84 50 85 53 86 67 87
REMARK SMILES IDX 86 88 51 89 52 91 66 93 87 94 54 97 38 99 39 100 47 101
REMARK SMILES IDX 40 102 41 103 45 104 48 105 42 106 43 107 46 108 44 109
REMARK SMILES IDX 70 110 71 111 79 112 72 113 73 114 77 115 80 116 74 117
REMARK SMILES IDX 75 118 78 119 76 120 55 121 56 122 64 123 57 124 58 125
REMARK SMILES IDX 62 126 65 127 59 128 60 129 63 130 61 131
REMARK H PARENT 22 2 22 3 21 5 21 6 20 8 20 9 19 13 3 15 3 16 5 21 6 23 7 24
REMARK H PARENT 10 29 14 31 11 33 16 38 16 39 17 40 17 41 23 43 23 44 24 46
REMARK H PARENT 24 47 25 49 25 50 26 53 30 59 91 61 31 63 90 64 89 74 83 76
REMARK H PARENT 85 78 88 80 82 81 50 90 53 92 86 95 51 96 87 98
REMARK Flexibility Score: inf
ROOT
ATOM      1  C   UNL A   1      42.065  41.369  25.174  1.00  0.00    -0.052 C 
ATOM      2  H   UNL A   1      41.850  40.824  24.279  1.00  0.00     0.027 H 
ATOM      3  H   UNL A   1      41.757  42.393  25.136  1.00  0.00     0.027 H 
ENDROOT
BRANCH   1   4
ATOM      4  C   UNL A   1      43.587  41.392  25.361  1.00  0.00    -0.036 C 
ATOM      5  H   UNL A   1      43.842  40.666  26.105  1.00  0.00     0.028 H 
ATOM      6  H   UNL A   1      44.012  41.181  24.402  1.00  0.00     0.028 H 
BRANCH   4   7
ATOM      7  C   UNL A   1      44.158  42.740  25.797  1.00  0.00     0.017 C 
ATOM      8  H   UNL A   1      43.353  43.432  25.932  1.00  0.00     0.049 H 
ATOM      9  H   UNL A   1      44.694  42.599  26.712  1.00  0.00     0.049 H 
BRANCH   7  10
ATOM     10  N   UNL A   1      45.073  43.269  24.811  1.00  0.00    -0.356 N 
ATOM     11  O   UNL A   1      43.624  44.811  23.913  1.00  0.00    -0.275 OA
ATOM     12  C   UNL A   1      44.736  44.292  23.951  1.00  0.00     0.225 C 
ATOM     13  H   UNL A   1      45.976  42.881  24.751  1.00  0.00     0.163 HD
BRANCH  12  14
ATOM     14  C   UNL A   1      45.864  44.700  23.020  1.00  0.00     0.067 C 
ATOM     15  H   UNL A   1      46.659  45.115  23.605  1.00  0.00     0.043 H 
ATOM     16  H   UNL A   1      45.470  45.412  22.326  1.00  0.00     0.043 H 
BRANCH  14  17
ATOM     17  C   UNL A   1      46.409  43.540  22.222  1.00  0.00     0.032 A 
ATOM     18  C   UNL A   1      47.651  42.922  22.290  1.00  0.00    -0.040 A 
ATOM     19  N   UNL A   1      45.625  42.783  21.354  1.00  0.00    -0.320 N 
ATOM     20  C   UNL A   1      47.590  41.722  21.553  1.00  0.00    -0.044 A 
ATOM     21  H   UNL A   1      48.478  43.280  22.795  1.00  0.00     0.064 H 
ATOM     22  C   UNL A   1      46.322  41.635  21.035  1.00  0.00     0.009 A 
ATOM     23  H   UNL A   1      48.354  41.040  21.428  1.00  0.00     0.064 H 
ATOM     24  H   UNL A   1      45.949  40.839  20.495  1.00  0.00     0.082 H 
BRANCH  19  25
ATOM     25  C   UNL A   1      44.334  43.086  20.855  1.00  0.00     0.049 A 
ATOM     26  C   UNL A   1      43.212  42.459  21.413  1.00  0.00    -0.034 A 
ATOM     27  C   UNL A   1      44.193  43.957  19.769  1.00  0.00     0.008 A 
ATOM     28  C   UNL A   1      41.942  42.739  20.906  1.00  0.00    -0.014 A 
ATOM     29  H   UNL A   1      43.324  41.794  22.194  1.00  0.00     0.065 H 
ATOM     30  C   UNL A   1      42.922  44.217  19.259  1.00  0.00     0.163 A 
ATOM     31  H   UNL A   1      45.022  44.403  19.349  1.00  0.00     0.069 H 
ATOM     32  C   UNL A   1      41.800  43.602  19.820  1.00  0.00     0.161 A 
ATOM     33  H   UNL A   1      41.109  42.306  21.334  1.00  0.00     0.066 H 
ATOM     34  O   UNL A   1      42.857  45.069  18.185  1.00  0.00    -0.486 OA
ATOM     35  O   UNL A   1      40.526  43.795  19.350  1.00  0.00    -0.486 OA
ATOM     36  C   UNL A   1      41.517  45.503  17.936  1.00  0.00     0.122 C 
ATOM     37  C   UNL A   1      40.543  44.339  18.026  1.00  0.00     0.122 C 
ATOM     38  H   UNL A   1      41.463  45.929  16.956  1.00  0.00     0.074 H 
ATOM     39  H   UNL A   1      41.250  46.229  18.675  1.00  0.00     0.074 H 
ATOM     40  H   UNL A   1      40.842  43.577  17.336  1.00  0.00     0.074 H 
ATOM     41  H   UNL A   1      39.562  44.693  17.786  1.00  0.00     0.074 H 
ENDBRANCH  19  25
ENDBRANCH  14  17
ENDBRANCH  12  14
ENDBRANCH   7  10
ENDBRANCH   4   7
ENDBRANCH   1   4
BRANCH   1  42
ATOM     42  C   UNL A   1      41.271  40.731  26.319  1.00  0.00    -0.052 C 
ATOM     43  H   UNL A   1      40.230  40.812  26.085  1.00  0.00     0.027 H 
ATOM     44  H   UNL A   1      41.552  41.259  27.206  1.00  0.00     0.027 H 
BRANCH  42  45
ATOM     45  C   UNL A   1      41.584  39.253  26.587  1.00  0.00    -0.036 C 
ATOM     46  H   UNL A   1      42.036  38.840  25.709  1.00  0.00     0.028 H 
ATOM     47  H   UNL A   1      40.657  38.780  26.835  1.00  0.00     0.028 H 
BRANCH  45  48
ATOM     48  C   UNL A   1      42.528  39.021  27.767  1.00  0.00     0.018 C 
ATOM     49  H   UNL A   1      42.060  38.358  28.464  1.00  0.00     0.049 H 
ATOM     50  H   UNL A   1      42.736  39.963  28.228  1.00  0.00     0.049 H 
BRANCH  48  51
ATOM     51  N   UNL A   1      43.782  38.435  27.325  1.00  0.00    -0.352 N 
ATOM     52  C   UNL A   1      44.462  37.345  27.804  1.00  0.00     0.251 C 
ATOM     53  H   UNL A   1      44.209  38.891  26.564  1.00  0.00     0.163 HD
ATOM     54  O   UNL A   1      45.660  37.239  27.571  1.00  0.00    -0.269 OA
BRANCH  52  55
ATOM     55  C   UNL A   1      43.786  36.299  28.599  1.00  0.00     0.039 A 
ATOM     56  C   UNL A   1      43.708  36.483  29.986  1.00  0.00    -0.049 A 
ATOM     57  C   UNL A   1      43.335  35.107  28.021  1.00  0.00    -0.049 A 
ATOM     58  C   UNL A   1      43.130  35.502  30.784  1.00  0.00    -0.053 A 
ATOM     59  H   UNL A   1      44.077  37.346  30.415  1.00  0.00     0.063 H 
ATOM     60  C   UNL A   1      42.734  34.132  28.812  1.00  0.00    -0.053 A 
ATOM     61  H   UNL A   1      43.449  34.950  27.007  1.00  0.00     0.063 H 
ATOM     62  C   UNL A   1      42.619  34.341  30.192  1.00  0.00    -0.014 A 
ATOM     63  H   UNL A   1      43.079  35.630  31.807  1.00  0.00     0.063 H 
ATOM     64  H   UNL A   1      42.376  33.265  28.386  1.00  0.00     0.063 H 
BRANCH  62  65
ATOM     65  C   UNL A   1      41.782  33.441  31.017  1.00  0.00     0.031 A 
ATOM     66  C   UNL A   1      40.298  33.895  30.998  1.00  0.00     0.074 A 
ATOM     67  C   UNL A   1      42.432  32.414  31.650  1.00  0.00     0.049 A 
ATOM     68  N   UNL A   1      39.342  33.704  31.856  1.00  0.00    -0.248 NA
ATOM     69  C   UNL A   1      39.819  34.740  29.865  1.00  0.00    -0.034 C 
ATOM     70  C   UNL A   1      43.870  32.098  31.489  1.00  0.00    -0.036 A 
ATOM     71  N   UNL A   1      42.046  31.436  32.547  1.00  0.00    -0.354 N 
ATOM     72  C   UNL A   1      38.143  34.209  31.293  1.00  0.00     0.074 A 
ATOM     73  C   UNL A   1      38.522  34.933  30.121  1.00  0.00    -0.034 C 
ATOM     74  H   UNL A   1      40.365  35.094  29.064  1.00  0.00     0.065 H 
ATOM     75  C   UNL A   1      44.243  31.086  32.304  1.00  0.00    -0.036 A 
ATOM     76  H   UNL A   1      44.506  32.586  30.840  1.00  0.00     0.065 H 
ATOM     77  C   UNL A   1      43.101  30.633  33.073  1.00  0.00     0.049 A 
ATOM     78  H   UNL A   1      41.106  31.302  32.805  1.00  0.00     0.167 HD
ATOM     79  C   UNL A   1      36.898  33.879  31.758  1.00  0.00     0.037 A 
ATOM     80  H   UNL A   1      37.889  35.519  29.556  1.00  0.00     0.065 H 
ATOM     81  H   UNL A   1      45.196  30.694  32.369  1.00  0.00     0.065 H 
ATOM     82  C   UNL A   1      43.061  29.712  34.090  1.00  0.00     0.037 A 
ATOM     83  C   UNL A   1      37.027  33.055  32.908  1.00  0.00     0.049 A 
ATOM     84  C   UNL A   1      41.637  29.597  34.419  1.00  0.00     0.074 A 
ATOM     85  C   UNL A   1      37.397  33.329  34.197  1.00  0.00    -0.036 A 
ATOM     86  N   UNL A   1      37.093  31.702  32.693  1.00  0.00    -0.354 N 
ATOM     87  N   UNL A   1      40.764  28.974  33.687  1.00  0.00    -0.248 NA
ATOM     88  C   UNL A   1      41.127  30.306  35.598  1.00  0.00    -0.034 C 
ATOM     89  C   UNL A   1      38.150  32.194  34.558  1.00  0.00    -0.036 A 
ATOM     90  H   UNL A   1      37.179  34.163  34.765  1.00  0.00     0.065 H 
ATOM     91  C   UNL A   1      38.003  31.199  33.585  1.00  0.00     0.049 A 
ATOM     92  H   UNL A   1      36.583  31.191  32.024  1.00  0.00     0.167 HD
ATOM     93  C   UNL A   1      39.583  29.508  34.139  1.00  0.00     0.074 A 
ATOM     94  C   UNL A   1      39.836  30.023  35.466  1.00  0.00    -0.034 C 
ATOM     95  H   UNL A   1      41.623  30.860  36.315  1.00  0.00     0.065 H 
ATOM     96  H   UNL A   1      38.722  32.109  35.413  1.00  0.00     0.065 H 
ATOM     97  C   UNL A   1      38.679  29.974  33.241  1.00  0.00     0.037 A 
ATOM     98  H   UNL A   1      39.121  30.151  36.199  1.00  0.00     0.065 H 
BRANCH  79  99
ATOM     99  C   UNL A   1      35.510  33.995  31.178  1.00  0.00     0.064 A 
ATOM    100  C   UNL A   1      35.263  33.386  29.918  1.00  0.00     0.173 A 
ATOM    101  C   UNL A   1      34.584  34.963  31.582  1.00  0.00     0.173 A 
ATOM    102  F   UNL A   1      36.049  32.397  29.465  1.00  0.00    -0.203 F 
ATOM    103  C   UNL A   1      34.269  33.843  29.054  1.00  0.00     0.198 A 
ATOM    104  C   UNL A   1      33.552  35.381  30.733  1.00  0.00     0.198 A 
ATOM    105  F   UNL A   1      34.712  35.599  32.754  1.00  0.00    -0.203 F 
ATOM    106  F   UNL A   1      34.183  33.348  27.812  1.00  0.00    -0.200 F 
ATOM    107  C   UNL A   1      33.427  34.858  29.455  1.00  0.00     0.200 A 
ATOM    108  F   UNL A   1      32.723  36.357  31.130  1.00  0.00    -0.200 F 
ATOM    109  F   UNL A   1      32.522  35.359  28.603  1.00  0.00    -0.200 F 
ENDBRANCH  79  99
BRANCH  82 110
ATOM    110  C   UNL A   1      44.003  28.907  34.967  1.00  0.00     0.064 A 
ATOM    111  C   UNL A   1      44.945  29.419  35.866  1.00  0.00     0.173 A 
ATOM    112  C   UNL A   1      43.913  27.480  34.983  1.00  0.00     0.173 A 
ATOM    113  F   UNL A   1      45.248  30.721  35.878  1.00  0.00    -0.203 F 
ATOM    114  C   UNL A   1      45.629  28.593  36.784  1.00  0.00     0.198 A 
ATOM    115  C   UNL A   1      44.544  26.668  35.925  1.00  0.00     0.198 A 
ATOM    116  F   UNL A   1      43.196  26.807  34.073  1.00  0.00    -0.203 F 
ATOM    117  F   UNL A   1      46.517  29.133  37.631  1.00  0.00    -0.200 F 
ATOM    118  C   UNL A   1      45.392  27.229  36.845  1.00  0.00     0.200 A 
ATOM    119  F   UNL A   1      44.299  25.350  35.937  1.00  0.00    -0.200 F 
ATOM    120  F   UNL A   1      45.985  26.461  37.768  1.00  0.00    -0.200 F 
ENDBRANCH  82 110
BRANCH  97 121
ATOM    121  C   UNL A   1      38.815  29.364  31.856  1.00  0.00     0.064 A 
ATOM    122  C   UNL A   1      38.585  27.991  31.674  1.00  0.00     0.173 A 
ATOM    123  C   UNL A   1      39.290  30.058  30.729  1.00  0.00     0.173 A 
ATOM    124  F   UNL A   1      38.109  27.255  32.690  1.00  0.00    -0.203 F 
ATOM    125  C   UNL A   1      38.839  27.355  30.455  1.00  0.00     0.198 A 
ATOM    126  C   UNL A   1      39.540  29.428  29.507  1.00  0.00     0.198 A 
ATOM    127  F   UNL A   1      39.518  31.367  30.783  1.00  0.00    -0.203 F 
ATOM    128  F   UNL A   1      38.611  26.041  30.329  1.00  0.00    -0.200 F 
ATOM    129  C   UNL A   1      39.321  28.073  29.373  1.00  0.00     0.200 A 
ATOM    130  F   UNL A   1      39.989  30.143  28.463  1.00  0.00    -0.200 F 
ATOM    131  F   UNL A   1      39.555  27.464  28.201  1.00  0.00    -0.200 F 
ENDBRANCH  97 121
ENDBRANCH  62  65
ENDBRANCH  52  55
ENDBRANCH  48  51
ENDBRANCH  45  48
ENDBRANCH  42  45
ENDBRANCH   1  42
TORSDOF 15
ENDMDL
MODEL 10
REMARK VINA RESULT:     -11.5      2.953      8.598
REMARK SMILES O=C(Cc1cccn1-c1ccc2c(c1)OCCO2)NCCCCCCNC(=O)c1ccc(-c2c3nc(c(-c4c(F)c(F)c(F)c(F)c4F)c4ccc([nH]4)c(-c4c(F)c(F)c(F)c(F)c4F)c4nc(c(-c5c(F)c(F)c(F)c(F)c5F)c5ccc2[nH]5)C=C4)C=C3)cc1
REMARK SMILES IDX 22 1 21 4 20 7 19 10 1 11 2 12 3 14 4 17 5 18 8 19 6 20 7 22
REMARK SMILES IDX 9 25 10 26 14 27 11 28 13 30 12 32 15 34 18 35 16 36 17 37
REMARK SMILES IDX 23 42 24 45 25 48 26 51 27 52 28 54 29 55 30 56 91 57 31 58
REMARK SMILES IDX 90 60 32 62 33 65 34 66 84 67 35 68 89 69 83 70 85 71 36 72
REMARK SMILES IDX 88 73 82 75 81 77 37 79 69 82 49 83 68 84 50 85 53 86 67 87
REMARK SMILES IDX 86 88 51 89 52 91 66 93 87 94 54 97 38 99 39 100 47 101
REMARK SMILES IDX 40 102 41 103 45 104 48 105 42 106 43 107 46 108 44 109
REMARK SMILES IDX 70 110 71 111 79 112 72 113 73 114 77 115 80 116 74 117
REMARK SMILES IDX 75 118 78 119 76 120 55 121 56 122 64 123 57 124 58 125
REMARK SMILES IDX 62 126 65 127 59 128 60 129 63 130 61 131
REMARK H PARENT 22 2 22 3 21 5 21 6 20 8 20 9 19 13 3 15 3 16 5 21 6 23 7 24
REMARK H PARENT 10 29 14 31 11 33 16 38 16 39 17 40 17 41 23 43 23 44 24 46
REMARK H PARENT 24 47 25 49 25 50 26 53 30 59 91 61 31 63 90 64 89 74 83 76
REMARK H PARENT 85 78 88 80 82 81 50 90 53 92 86 95 51 96 87 98
REMARK Flexibility Score: inf
ROOT
ATOM      1  C   UNL A   1      35.590  30.710  28.509  1.00  0.00    -0.052 C 
ATOM      2  H   UNL A   1      36.578  31.111  28.422  1.00  0.00     0.027 H 
ATOM      3  H   UNL A   1      35.308  30.478  29.514  1.00  0.00     0.027 H 
ENDROOT
BRANCH   1   4
ATOM      4  C   UNL A   1      35.548  29.382  27.740  1.00  0.00    -0.036 C 
ATOM      5  H   UNL A   1      36.467  29.281  27.201  1.00  0.00     0.028 H 
ATOM      6  H   UNL A   1      35.401  28.616  28.472  1.00  0.00     0.028 H 
BRANCH   4   7
ATOM      7  C   UNL A   1      34.396  29.255  26.746  1.00  0.00     0.017 C 
ATOM      8  H   UNL A   1      33.544  29.776  27.132  1.00  0.00     0.049 H 
ATOM      9  H   UNL A   1      34.708  29.676  25.813  1.00  0.00     0.049 H 
BRANCH   7  10
ATOM     10  N   UNL A   1      34.040  27.872  26.525  1.00  0.00    -0.356 N 
ATOM     11  O   UNL A   1      31.764  28.189  26.503  1.00  0.00    -0.275 OA
ATOM     12  C   UNL A   1      32.736  27.447  26.396  1.00  0.00     0.225 C 
ATOM     13  H   UNL A   1      34.762  27.204  26.464  1.00  0.00     0.163 HD
BRANCH  12  14
ATOM     14  C   UNL A   1      32.605  25.954  26.145  1.00  0.00     0.067 C 
ATOM     15  H   UNL A   1      31.574  25.680  26.235  1.00  0.00     0.043 H 
ATOM     16  H   UNL A   1      33.213  25.450  26.866  1.00  0.00     0.043 H 
BRANCH  14  17
ATOM     17  C   UNL A   1      33.093  25.549  24.775  1.00  0.00     0.032 A 
ATOM     18  C   UNL A   1      34.203  24.795  24.416  1.00  0.00    -0.040 A 
ATOM     19  N   UNL A   1      32.354  25.763  23.614  1.00  0.00    -0.320 N 
ATOM     20  C   UNL A   1      34.084  24.452  23.055  1.00  0.00    -0.044 A 
ATOM     21  H   UNL A   1      34.982  24.531  25.040  1.00  0.00     0.064 H 
ATOM     22  C   UNL A   1      32.915  25.012  22.601  1.00  0.00     0.009 A 
ATOM     23  H   UNL A   1      34.749  23.887  22.504  1.00  0.00     0.064 H 
ATOM     24  H   UNL A   1      32.520  24.890  21.656  1.00  0.00     0.082 H 
BRANCH  19  25
ATOM     25  C   UNL A   1      31.218  26.592  23.443  1.00  0.00     0.049 A 
ATOM     26  C   UNL A   1      29.979  26.183  23.955  1.00  0.00    -0.034 A 
ATOM     27  C   UNL A   1      31.324  27.779  22.710  1.00  0.00     0.008 A 
ATOM     28  C   UNL A   1      28.854  26.988  23.767  1.00  0.00    -0.014 A 
ATOM     29  H   UNL A   1      29.899  25.292  24.469  1.00  0.00     0.065 H 
ATOM     30  C   UNL A   1      30.192  28.568  22.512  1.00  0.00     0.163 A 
ATOM     31  H   UNL A   1      32.233  28.069  22.319  1.00  0.00     0.069 H 
ATOM     32  C   UNL A   1      28.957  28.168  23.032  1.00  0.00     0.161 A 
ATOM     33  H   UNL A   1      27.947  26.709  24.170  1.00  0.00     0.066 H 
ATOM     34  O   UNL A   1      30.364  29.710  21.773  1.00  0.00    -0.486 OA
ATOM     35  O   UNL A   1      27.802  28.884  22.852  1.00  0.00    -0.486 OA
ATOM     36  C   UNL A   1      29.239  30.586  21.884  1.00  0.00     0.122 C 
ATOM     37  C   UNL A   1      27.935  29.813  21.770  1.00  0.00     0.122 C 
ATOM     38  H   UNL A   1      29.283  31.315  21.101  1.00  0.00     0.074 H 
ATOM     39  H   UNL A   1      29.271  31.063  22.841  1.00  0.00     0.074 H 
ATOM     40  H   UNL A   1      27.924  29.278  20.843  1.00  0.00     0.074 H 
ATOM     41  H   UNL A   1      27.120  30.506  21.809  1.00  0.00     0.074 H 
ENDBRANCH  19  25
ENDBRANCH  14  17
ENDBRANCH  12  14
ENDBRANCH   7  10
ENDBRANCH   4   7
ENDBRANCH   1   4
BRANCH   1  42
ATOM     42  C   UNL A   1      34.602  31.778  28.028  1.00  0.00    -0.052 C 
ATOM     43  H   UNL A   1      33.650  31.310  27.889  1.00  0.00     0.027 H 
ATOM     44  H   UNL A   1      35.015  32.181  27.127  1.00  0.00     0.027 H 
BRANCH  42  45
ATOM     45  C   UNL A   1      34.412  32.968  28.978  1.00  0.00    -0.036 C 
ATOM     46  H   UNL A   1      33.395  33.295  28.909  1.00  0.00     0.028 H 
ATOM     47  H   UNL A   1      35.109  33.722  28.674  1.00  0.00     0.028 H 
BRANCH  45  48
ATOM     48  C   UNL A   1      34.717  32.650  30.443  1.00  0.00     0.018 C 
ATOM     49  H   UNL A   1      35.261  31.731  30.495  1.00  0.00     0.049 H 
ATOM     50  H   UNL A   1      33.792  32.569  30.973  1.00  0.00     0.049 H 
BRANCH  48  51
ATOM     51  N   UNL A   1      35.509  33.706  31.052  1.00  0.00    -0.352 N 
ATOM     52  C   UNL A   1      36.792  33.678  31.532  1.00  0.00     0.251 C 
ATOM     53  H   UNL A   1      35.052  34.574  31.131  1.00  0.00     0.163 HD
ATOM     54  O   UNL A   1      37.145  34.525  32.344  1.00  0.00    -0.269 OA
BRANCH  52  55
ATOM     55  C   UNL A   1      37.758  32.647  31.098  1.00  0.00     0.039 A 
ATOM     56  C   UNL A   1      38.155  32.651  29.753  1.00  0.00    -0.049 A 
ATOM     57  C   UNL A   1      38.185  31.627  31.954  1.00  0.00    -0.049 A 
ATOM     58  C   UNL A   1      39.019  31.669  29.283  1.00  0.00    -0.053 A 
ATOM     59  H   UNL A   1      37.806  33.382  29.114  1.00  0.00     0.063 H 
ATOM     60  C   UNL A   1      39.070  30.655  31.495  1.00  0.00    -0.053 A 
ATOM     61  H   UNL A   1      37.843  31.593  32.927  1.00  0.00     0.063 H 
ATOM     62  C   UNL A   1      39.497  30.689  30.162  1.00  0.00    -0.014 A 
ATOM     63  H   UNL A   1      39.306  31.663  28.291  1.00  0.00     0.063 H 
ATOM     64  H   UNL A   1      39.407  29.918  32.131  1.00  0.00     0.063 H 
BRANCH  62  65
ATOM     65  C   UNL A   1      40.608  29.822  29.711  1.00  0.00     0.031 A 
ATOM     66  C   UNL A   1      41.934  30.625  29.621  1.00  0.00     0.074 A 
ATOM     67  C   UNL A   1      40.292  28.517  29.439  1.00  0.00     0.049 A 
ATOM     68  N   UNL A   1      42.999  30.425  28.904  1.00  0.00    -0.248 NA
ATOM     69  C   UNL A   1      42.072  31.879  30.419  1.00  0.00    -0.034 C 
ATOM     70  C   UNL A   1      38.959  27.908  29.654  1.00  0.00    -0.036 A 
ATOM     71  N   UNL A   1      40.995  27.440  28.933  1.00  0.00    -0.354 N 
ATOM     72  C   UNL A   1      43.976  31.374  29.301  1.00  0.00     0.074 A 
ATOM     73  C   UNL A   1      43.307  32.308  30.151  1.00  0.00    -0.034 C 
ATOM     74  H   UNL A   1      41.371  32.315  31.039  1.00  0.00     0.065 H 
ATOM     75  C   UNL A   1      38.928  26.630  29.215  1.00  0.00    -0.036 A 
ATOM     76  H   UNL A   1      38.157  28.396  30.083  1.00  0.00     0.065 H 
ATOM     77  C   UNL A   1      40.223  26.268  28.676  1.00  0.00     0.049 A 
ATOM     78  H   UNL A   1      41.964  27.478  28.763  1.00  0.00     0.167 HD
ATOM     79  C   UNL A   1      45.307  31.246  29.010  1.00  0.00     0.037 A 
ATOM     80  H   UNL A   1      43.719  33.185  30.507  1.00  0.00     0.065 H 
ATOM     81  H   UNL A   1      38.106  26.006  29.256  1.00  0.00     0.065 H 
ATOM     82  C   UNL A   1      40.592  25.116  28.027  1.00  0.00     0.037 A 
ATOM     83  C   UNL A   1      45.506  30.096  28.199  1.00  0.00     0.049 A 
ATOM     84  C   UNL A   1      42.031  25.274  27.798  1.00  0.00     0.074 A 
ATOM     85  C   UNL A   1      45.230  29.843  26.882  1.00  0.00    -0.036 A 
ATOM     86  N   UNL A   1      45.733  28.913  28.852  1.00  0.00    -0.354 N 
ATOM     87  N   UNL A   1      42.937  25.162  28.722  1.00  0.00    -0.248 NA
ATOM     88  C   UNL A   1      42.491  25.679  26.465  1.00  0.00    -0.034 C 
ATOM     89  C   UNL A   1      44.809  28.499  26.900  1.00  0.00    -0.036 A 
ATOM     90  H   UNL A   1      45.310  30.481  26.075  1.00  0.00     0.065 H 
ATOM     91  C   UNL A   1      45.072  27.936  28.155  1.00  0.00     0.049 A 
ATOM     92  H   UNL A   1      46.269  28.789  29.669  1.00  0.00     0.167 HD
ATOM     93  C   UNL A   1      44.004  25.810  28.152  1.00  0.00     0.074 A 
ATOM     94  C   UNL A   1      43.790  25.795  26.723  1.00  0.00    -0.034 C 
ATOM     95  H   UNL A   1      41.964  25.830  25.590  1.00  0.00     0.065 H 
ATOM     96  H   UNL A   1      44.372  28.004  26.107  1.00  0.00     0.065 H 
ATOM     97  C   UNL A   1      44.666  26.752  28.869  1.00  0.00     0.037 A 
ATOM     98  H   UNL A   1      44.534  25.864  26.010  1.00  0.00     0.065 H 
BRANCH  79  99
ATOM     99  C   UNL A   1      46.555  31.893  29.559  1.00  0.00     0.064 A 
ATOM    100  C   UNL A   1      46.847  31.712  30.938  1.00  0.00     0.173 A 
ATOM    101  C   UNL A   1      47.215  32.953  28.928  1.00  0.00     0.173 A 
ATOM    102  F   UNL A   1      46.323  30.684  31.624  1.00  0.00    -0.203 F 
ATOM    103  C   UNL A   1      47.600  32.632  31.665  1.00  0.00     0.198 A 
ATOM    104  C   UNL A   1      48.016  33.845  29.651  1.00  0.00     0.198 A 
ATOM    105  F   UNL A   1      47.022  33.215  27.629  1.00  0.00    -0.203 F 
ATOM    106  F   UNL A   1      47.708  32.507  32.995  1.00  0.00    -0.200 F 
ATOM    107  C   UNL A   1      48.166  33.714  31.023  1.00  0.00     0.200 A 
ATOM    108  F   UNL A   1      48.580  34.887  29.024  1.00  0.00    -0.200 F 
ATOM    109  F   UNL A   1      48.822  34.647  31.726  1.00  0.00    -0.200 F 
ENDBRANCH  79  99
BRANCH  82 110
ATOM    110  C   UNL A   1      39.969  23.860  27.443  1.00  0.00     0.064 A 
ATOM    111  C   UNL A   1      38.815  23.793  26.654  1.00  0.00     0.173 A 
ATOM    112  C   UNL A   1      40.622  22.599  27.610  1.00  0.00     0.173 A 
ATOM    113  F   UNL A   1      38.015  24.855  26.514  1.00  0.00    -0.203 F 
ATOM    114  C   UNL A   1      38.431  22.609  25.990  1.00  0.00     0.198 A 
ATOM    115  C   UNL A   1      40.279  21.444  26.911  1.00  0.00     0.198 A 
ATOM    116  F   UNL A   1      41.637  22.438  28.470  1.00  0.00    -0.203 F 
ATOM    117  F   UNL A   1      37.321  22.598  25.238  1.00  0.00    -0.200 F 
ATOM    118  C   UNL A   1      39.189  21.452  26.079  1.00  0.00     0.200 A 
ATOM    119  F   UNL A   1      41.031  20.340  27.039  1.00  0.00    -0.200 F 
ATOM    120  F   UNL A   1      38.864  20.353  25.385  1.00  0.00    -0.200 F 
ENDBRANCH  82 110
BRANCH  97 121
ATOM    121  C   UNL A   1      44.521  26.599  30.373  1.00  0.00     0.064 A 
ATOM    122  C   UNL A   1      45.041  25.461  31.010  1.00  0.00     0.173 A 
ATOM    123  C   UNL A   1      43.775  27.469  31.188  1.00  0.00     0.173 A 
ATOM    124  F   UNL A   1      45.784  24.589  30.314  1.00  0.00    -0.203 F 
ATOM    125  C   UNL A   1      44.805  25.201  32.364  1.00  0.00     0.198 A 
ATOM    126  C   UNL A   1      43.541  27.216  32.543  1.00  0.00     0.198 A 
ATOM    127  F   UNL A   1      43.258  28.589  30.693  1.00  0.00    -0.203 F 
ATOM    128  F   UNL A   1      45.316  24.099  32.929  1.00  0.00    -0.200 F 
ATOM    129  C   UNL A   1      44.052  26.076  33.129  1.00  0.00     0.200 A 
ATOM    130  F   UNL A   1      42.825  28.084  33.274  1.00  0.00    -0.200 F 
ATOM    131  F   UNL A   1      43.834  25.831  34.430  1.00  0.00    -0.200 F 
ENDBRANCH  97 121
ENDBRANCH  62  65
ENDBRANCH  52  55
ENDBRANCH  48  51
ENDBRANCH  45  48
ENDBRANCH  42  45
ENDBRANCH   1  42
TORSDOF 15
ENDMDL
