MODEL 1
REMARK VINA RESULT:     -13.2      0.000      0.000
REMARK SMILES Nn1c(S[C@@H](C(=O)NCCCCCCNC(=O)c2ccc(-c3c4nc(c(-c5c(F)c(F)c(F)c(F)c5F)c5ccc([nH]5)c(-c5c(F)c(F)c(F)c(F)c5F)c5nc(c(-c6c(F)c(F)c(F)c(F)c6F)c6ccc3[nH]6)C=C5)C=C4)cc2)c2ccccc2)nc2ccc(Br)cc2c1=O
REMARK SMILES IDX 11 1 10 4 9 7 8 10 6 11 7 12 5 14 4 16 3 17 2 18 95 19 87 20
REMARK SMILES IDX 94 21 96 22 88 23 93 24 89 25 91 26 90 28 92 30 1 32 81 35
REMARK SMILES IDX 82 36 86 37 83 38 85 40 84 42 12 46 13 49 14 52 15 55 16 56
REMARK SMILES IDX 17 58 18 59 19 60 80 61 20 62 79 64 21 66 22 69 23 70 73 71
REMARK SMILES IDX 24 72 78 73 72 74 74 75 25 76 77 77 71 79 70 81 26 83 58 86
REMARK SMILES IDX 38 87 57 88 39 89 42 90 56 91 75 92 40 93 41 95 55 97 76 98
REMARK SMILES IDX 43 101 27 103 28 104 36 105 29 106 30 107 34 108 37 109
REMARK SMILES IDX 31 110 32 111 35 112 33 113 59 114 60 115 68 116 61 117
REMARK SMILES IDX 62 118 66 119 69 120 63 121 64 122 67 123 65 124 44 125
REMARK SMILES IDX 45 126 53 127 46 128 47 129 51 130 54 131 48 132 49 133
REMARK SMILES IDX 52 134 50 135
REMARK H PARENT 11 2 11 3 10 5 10 6 9 8 9 9 8 13 5 15 93 27 89 29 90 31 1 33
REMARK H PARENT 1 34 82 39 86 41 83 43 85 44 84 45 12 47 12 48 13 50 13 51
REMARK H PARENT 14 53 14 54 15 57 19 63 80 65 20 67 79 68 78 78 72 80 74 82
REMARK H PARENT 77 84 71 85 39 94 42 96 75 99 40 100 76 102
REMARK Flexibility Score: inf
ROOT
ATOM      1  C   UNL A   1      33.307  30.015  27.435  1.00  0.00    -0.052 C 
ATOM      2  H   UNL A   1      33.872  30.890  27.678  1.00  0.00     0.027 H 
ATOM      3  H   UNL A   1      33.080  29.396  28.277  1.00  0.00     0.027 H 
ENDROOT
BRANCH   1   4
ATOM      4  C   UNL A   1      34.162  29.149  26.500  1.00  0.00    -0.036 C 
ATOM      5  H   UNL A   1      34.691  29.801  25.837  1.00  0.00     0.028 H 
ATOM      6  H   UNL A   1      34.801  28.572  27.135  1.00  0.00     0.028 H 
BRANCH   4   7
ATOM      7  C   UNL A   1      33.384  28.139  25.648  1.00  0.00     0.017 C 
ATOM      8  H   UNL A   1      33.874  27.190  25.710  1.00  0.00     0.049 H 
ATOM      9  H   UNL A   1      32.385  28.092  26.031  1.00  0.00     0.049 H 
BRANCH   7  10
ATOM     10  N   UNL A   1      33.303  28.533  24.252  1.00  0.00    -0.355 N 
ATOM     11  C   UNL A   1      32.232  28.612  23.399  1.00  0.00     0.238 C 
ATOM     12  O   UNL A   1      32.492  28.954  22.239  1.00  0.00    -0.273 OA
ATOM     13  H   UNL A   1      34.165  28.788  23.850  1.00  0.00     0.163 HD
BRANCH  11  14
ATOM     14  C   UNL A   1      30.796  28.339  23.883  1.00  0.00     0.116 C 
ATOM     15  H   UNL A   1      30.918  28.442  24.940  1.00  0.00     0.057 H 
BRANCH  14  16
ATOM     16  S   UNL A   1      30.235  26.651  23.601  1.00  0.00    -0.068 SA
BRANCH  16  17
ATOM     17  C   UNL A   1      31.554  25.541  23.385  1.00  0.00     0.191 A 
ATOM     18  N   UNL A   1      32.102  25.179  22.157  1.00  0.00    -0.202 N 
ATOM     19  C   UNL A   1      33.075  24.175  22.068  1.00  0.00     0.280 A 
ATOM     20  N   UNL A   1      32.062  25.147  24.512  1.00  0.00    -0.222 NA
ATOM     21  C   UNL A   1      33.724  23.799  23.334  1.00  0.00     0.069 A 
ATOM     22  O   UNL A   1      33.459  23.695  21.002  1.00  0.00    -0.267 OA
ATOM     23  C   UNL A   1      33.229  24.380  24.498  1.00  0.00     0.079 A 
ATOM     24  C   UNL A   1      34.894  23.034  23.343  1.00  0.00    -0.033 A 
ATOM     25  C   UNL A   1      33.956  24.244  25.682  1.00  0.00    -0.034 A 
ATOM     26  C   UNL A   1      35.603  22.901  24.535  1.00  0.00     0.018 A 
ATOM     27  H   UNL A   1      35.228  22.574  22.481  1.00  0.00     0.064 H 
ATOM     28  C   UNL A   1      35.150  23.517  25.701  1.00  0.00    -0.046 A 
ATOM     29  H   UNL A   1      33.610  24.682  26.549  1.00  0.00     0.065 H 
ATOM     30  Br  UNL A   1      37.219  21.922  24.562  1.00  0.00    -0.051 Br
ATOM     31  H   UNL A   1      35.694  23.438  26.574  1.00  0.00     0.064 H 
BRANCH  18  32
ATOM     32  N   UNL A   1      31.918  25.943  20.972  1.00  0.00    -0.334 N 
ATOM     33  H   UNL A   1      32.510  25.801  20.198  1.00  0.00     0.178 HD
ATOM     34  H   UNL A   1      31.199  26.614  20.926  1.00  0.00     0.178 HD
ENDBRANCH  18  32
ENDBRANCH  16  17
ENDBRANCH  14  16
BRANCH  14  35
ATOM     35  C   UNL A   1      29.732  29.406  23.621  1.00  0.00    -0.025 A 
ATOM     36  C   UNL A   1      28.540  29.026  22.970  1.00  0.00    -0.057 A 
ATOM     37  C   UNL A   1      29.861  30.755  23.986  1.00  0.00    -0.057 A 
ATOM     38  C   UNL A   1      27.523  29.951  22.713  1.00  0.00    -0.062 A 
ATOM     39  H   UNL A   1      28.416  28.044  22.680  1.00  0.00     0.063 H 
ATOM     40  C   UNL A   1      28.848  31.682  23.722  1.00  0.00    -0.062 A 
ATOM     41  H   UNL A   1      30.721  31.070  24.461  1.00  0.00     0.063 H 
ATOM     42  C   UNL A   1      27.679  31.281  23.086  1.00  0.00    -0.062 A 
ATOM     43  H   UNL A   1      26.656  29.644  22.245  1.00  0.00     0.062 H 
ATOM     44  H   UNL A   1      28.969  32.669  23.999  1.00  0.00     0.062 H 
ATOM     45  H   UNL A   1      26.931  31.964  22.894  1.00  0.00     0.062 H 
ENDBRANCH  14  35
ENDBRANCH  11  14
ENDBRANCH   7  10
ENDBRANCH   4   7
ENDBRANCH   1   4
BRANCH   1  46
ATOM     46  C   UNL A   1      31.957  30.467  26.873  1.00  0.00    -0.052 C 
ATOM     47  H   UNL A   1      31.187  29.990  27.439  1.00  0.00     0.027 H 
ATOM     48  H   UNL A   1      31.963  30.195  25.838  1.00  0.00     0.027 H 
BRANCH  46  49
ATOM     49  C   UNL A   1      31.707  31.974  26.910  1.00  0.00    -0.036 C 
ATOM     50  H   UNL A   1      30.900  32.160  27.590  1.00  0.00     0.028 H 
ATOM     51  H   UNL A   1      31.487  32.268  25.904  1.00  0.00     0.028 H 
BRANCH  49  52
ATOM     52  C   UNL A   1      32.900  32.812  27.350  1.00  0.00     0.018 C 
ATOM     53  H   UNL A   1      33.620  32.825  26.559  1.00  0.00     0.049 H 
ATOM     54  H   UNL A   1      33.297  32.368  28.239  1.00  0.00     0.049 H 
BRANCH  52  55
ATOM     55  N   UNL A   1      32.536  34.184  27.670  1.00  0.00    -0.352 N 
ATOM     56  C   UNL A   1      33.041  35.010  28.651  1.00  0.00     0.251 C 
ATOM     57  H   UNL A   1      31.830  34.577  27.108  1.00  0.00     0.163 HD
ATOM     58  O   UNL A   1      32.527  36.089  28.890  1.00  0.00    -0.269 OA
BRANCH  56  59
ATOM     59  C   UNL A   1      34.202  34.549  29.446  1.00  0.00     0.039 A 
ATOM     60  C   UNL A   1      35.496  34.647  28.930  1.00  0.00    -0.049 A 
ATOM     61  C   UNL A   1      33.981  33.967  30.695  1.00  0.00    -0.049 A 
ATOM     62  C   UNL A   1      36.546  34.014  29.586  1.00  0.00    -0.053 A 
ATOM     63  H   UNL A   1      35.673  35.187  28.068  1.00  0.00     0.063 H 
ATOM     64  C   UNL A   1      35.052  33.397  31.390  1.00  0.00    -0.053 A 
ATOM     65  H   UNL A   1      33.033  33.955  31.103  1.00  0.00     0.063 H 
ATOM     66  C   UNL A   1      36.334  33.375  30.819  1.00  0.00    -0.014 A 
ATOM     67  H   UNL A   1      37.488  34.014  29.164  1.00  0.00     0.063 H 
ATOM     68  H   UNL A   1      34.899  32.993  32.327  1.00  0.00     0.063 H 
BRANCH  66  69
ATOM     69  C   UNL A   1      37.462  32.685  31.496  1.00  0.00     0.031 A 
ATOM     70  C   UNL A   1      38.199  31.565  30.812  1.00  0.00     0.074 A 
ATOM     71  C   UNL A   1      37.842  33.093  32.721  1.00  0.00     0.049 A 
ATOM     72  N   UNL A   1      39.169  30.814  31.272  1.00  0.00    -0.248 NA
ATOM     73  C   UNL A   1      37.798  31.244  29.433  1.00  0.00    -0.034 C 
ATOM     74  C   UNL A   1      37.218  34.181  33.476  1.00  0.00    -0.036 A 
ATOM     75  N   UNL A   1      38.848  32.652  33.542  1.00  0.00    -0.354 N 
ATOM     76  C   UNL A   1      39.476  29.921  30.253  1.00  0.00     0.074 A 
ATOM     77  C   UNL A   1      38.584  30.212  29.152  1.00  0.00    -0.034 C 
ATOM     78  H   UNL A   1      37.090  31.702  28.839  1.00  0.00     0.065 H 
ATOM     79  C   UNL A   1      37.872  34.343  34.635  1.00  0.00    -0.036 A 
ATOM     80  H   UNL A   1      36.404  34.735  33.166  1.00  0.00     0.065 H 
ATOM     81  C   UNL A   1      38.920  33.331  34.733  1.00  0.00     0.049 A 
ATOM     82  H   UNL A   1      39.459  31.919  33.301  1.00  0.00     0.167 HD
ATOM     83  C   UNL A   1      40.422  28.952  30.241  1.00  0.00     0.037 A 
ATOM     84  H   UNL A   1      38.561  29.685  28.264  1.00  0.00     0.065 H 
ATOM     85  H   UNL A   1      37.669  35.066  35.343  1.00  0.00     0.065 H 
ATOM     86  C   UNL A   1      39.721  33.145  35.799  1.00  0.00     0.037 A 
ATOM     87  C   UNL A   1      41.327  28.682  31.329  1.00  0.00     0.049 A 
ATOM     88  C   UNL A   1      40.746  32.048  35.761  1.00  0.00     0.074 A 
ATOM     89  C   UNL A   1      42.320  27.720  31.406  1.00  0.00    -0.036 A 
ATOM     90  N   UNL A   1      41.357  29.383  32.524  1.00  0.00    -0.354 N 
ATOM     91  N   UNL A   1      41.011  31.198  34.801  1.00  0.00    -0.248 NA
ATOM     92  C   UNL A   1      41.582  31.883  36.959  1.00  0.00    -0.034 C 
ATOM     93  C   UNL A   1      42.930  27.818  32.659  1.00  0.00    -0.036 A 
ATOM     94  H   UNL A   1      42.567  27.045  30.665  1.00  0.00     0.065 H 
ATOM     95  C   UNL A   1      42.347  28.870  33.346  1.00  0.00     0.049 A 
ATOM     96  H   UNL A   1      40.762  30.133  32.755  1.00  0.00     0.167 HD
ATOM     97  C   UNL A   1      42.051  30.408  35.268  1.00  0.00     0.074 A 
ATOM     98  C   UNL A   1      42.383  30.892  36.592  1.00  0.00    -0.034 C 
ATOM     99  H   UNL A   1      41.552  32.400  37.852  1.00  0.00     0.065 H 
ATOM    100  H   UNL A   1      43.685  27.211  33.013  1.00  0.00     0.065 H 
ATOM    101  C   UNL A   1      42.672  29.372  34.656  1.00  0.00     0.037 A 
ATOM    102  H   UNL A   1      43.146  30.515  37.175  1.00  0.00     0.065 H 
BRANCH  83 103
ATOM    103  C   UNL A   1      40.540  28.092  29.018  1.00  0.00     0.064 A 
ATOM    104  C   UNL A   1      39.780  26.924  28.867  1.00  0.00     0.173 A 
ATOM    105  C   UNL A   1      41.341  28.499  27.940  1.00  0.00     0.173 A 
ATOM    106  F   UNL A   1      39.007  26.487  29.872  1.00  0.00    -0.203 F 
ATOM    107  C   UNL A   1      39.815  26.196  27.679  1.00  0.00     0.198 A 
ATOM    108  C   UNL A   1      41.358  27.782  26.747  1.00  0.00     0.198 A 
ATOM    109  F   UNL A   1      42.084  29.613  28.033  1.00  0.00    -0.203 F 
ATOM    110  F   UNL A   1      39.089  25.076  27.560  1.00  0.00    -0.200 F 
ATOM    111  C   UNL A   1      40.593  26.631  26.617  1.00  0.00     0.200 A 
ATOM    112  F   UNL A   1      42.101  28.211  25.718  1.00  0.00    -0.200 F 
ATOM    113  F   UNL A   1      40.606  25.944  25.467  1.00  0.00    -0.200 F 
ENDBRANCH  83 103
BRANCH  86 114
ATOM    114  C   UNL A   1      39.571  34.017  36.990  1.00  0.00     0.064 A 
ATOM    115  C   UNL A   1      40.188  35.273  37.048  1.00  0.00     0.173 A 
ATOM    116  C   UNL A   1      38.792  33.619  38.088  1.00  0.00     0.173 A 
ATOM    117  F   UNL A   1      40.959  35.688  36.032  1.00  0.00    -0.203 F 
ATOM    118  C   UNL A   1      40.041  36.096  38.163  1.00  0.00     0.198 A 
ATOM    119  C   UNL A   1      38.621  34.454  39.188  1.00  0.00     0.198 A 
ATOM    120  F   UNL A   1      38.179  32.427  38.078  1.00  0.00    -0.203 F 
ATOM    121  F   UNL A   1      40.670  37.277  38.209  1.00  0.00    -0.200 F 
ATOM    122  C   UNL A   1      39.250  35.689  39.228  1.00  0.00     0.200 A 
ATOM    123  F   UNL A   1      37.844  34.064  40.207  1.00  0.00    -0.200 F 
ATOM    124  F   UNL A   1      39.099  36.485  40.295  1.00  0.00    -0.200 F 
ENDBRANCH  86 114
BRANCH 101 125
ATOM    125  C   UNL A   1      43.798  28.712  35.396  1.00  0.00     0.064 A 
ATOM    126  C   UNL A   1      45.129  29.108  35.211  1.00  0.00     0.173 A 
ATOM    127  C   UNL A   1      43.533  27.701  36.331  1.00  0.00     0.173 A 
ATOM    128  F   UNL A   1      45.432  30.063  34.317  1.00  0.00    -0.203 F 
ATOM    129  C   UNL A   1      46.160  28.499  35.919  1.00  0.00     0.198 A 
ATOM    130  C   UNL A   1      44.565  27.111  37.056  1.00  0.00     0.198 A 
ATOM    131  F   UNL A   1      42.274  27.292  36.549  1.00  0.00    -0.203 F 
ATOM    132  F   UNL A   1      47.430  28.864  35.697  1.00  0.00    -0.200 F 
ATOM    133  C   UNL A   1      45.877  27.506  36.846  1.00  0.00     0.200 A 
ATOM    134  F   UNL A   1      44.287  26.160  37.960  1.00  0.00    -0.200 F 
ATOM    135  F   UNL A   1      46.870  26.925  37.532  1.00  0.00    -0.200 F 
ENDBRANCH 101 125
ENDBRANCH  66  69
ENDBRANCH  56  59
ENDBRANCH  52  55
ENDBRANCH  49  52
ENDBRANCH  46  49
ENDBRANCH   1  46
TORSDOF 17
ENDMDL
MODEL 2
REMARK VINA RESULT:     -13.2      0.488      7.146
REMARK SMILES Nn1c(S[C@@H](C(=O)NCCCCCCNC(=O)c2ccc(-c3c4nc(c(-c5c(F)c(F)c(F)c(F)c5F)c5ccc([nH]5)c(-c5c(F)c(F)c(F)c(F)c5F)c5nc(c(-c6c(F)c(F)c(F)c(F)c6F)c6ccc3[nH]6)C=C5)C=C4)cc2)c2ccccc2)nc2ccc(Br)cc2c1=O
REMARK SMILES IDX 11 1 10 4 9 7 8 10 6 11 7 12 5 14 4 16 3 17 2 18 95 19 87 20
REMARK SMILES IDX 94 21 96 22 88 23 93 24 89 25 91 26 90 28 92 30 1 32 81 35
REMARK SMILES IDX 82 36 86 37 83 38 85 40 84 42 12 46 13 49 14 52 15 55 16 56
REMARK SMILES IDX 17 58 18 59 19 60 80 61 20 62 79 64 21 66 22 69 23 70 73 71
REMARK SMILES IDX 24 72 78 73 72 74 74 75 25 76 77 77 71 79 70 81 26 83 58 86
REMARK SMILES IDX 38 87 57 88 39 89 42 90 56 91 75 92 40 93 41 95 55 97 76 98
REMARK SMILES IDX 43 101 27 103 28 104 36 105 29 106 30 107 34 108 37 109
REMARK SMILES IDX 31 110 32 111 35 112 33 113 59 114 60 115 68 116 61 117
REMARK SMILES IDX 62 118 66 119 69 120 63 121 64 122 67 123 65 124 44 125
REMARK SMILES IDX 45 126 53 127 46 128 47 129 51 130 54 131 48 132 49 133
REMARK SMILES IDX 52 134 50 135
REMARK H PARENT 11 2 11 3 10 5 10 6 9 8 9 9 8 13 5 15 93 27 89 29 90 31 1 33
REMARK H PARENT 1 34 82 39 86 41 83 43 85 44 84 45 12 47 12 48 13 50 13 51
REMARK H PARENT 14 53 14 54 15 57 19 63 80 65 20 67 79 68 78 78 72 80 74 82
REMARK H PARENT 77 84 71 85 39 94 42 96 75 99 40 100 76 102
REMARK Flexibility Score: inf
ROOT
ATOM      1  C   UNL A   1      33.326  30.142  27.441  1.00  0.00    -0.052 C 
ATOM      2  H   UNL A   1      33.930  31.022  27.513  1.00  0.00     0.027 H 
ATOM      3  H   UNL A   1      33.141  29.663  28.380  1.00  0.00     0.027 H 
ENDROOT
BRANCH   1   4
ATOM      4  C   UNL A   1      34.088  29.117  26.592  1.00  0.00    -0.036 C 
ATOM      5  H   UNL A   1      34.739  29.652  25.933  1.00  0.00     0.028 H 
ATOM      6  H   UNL A   1      34.603  28.486  27.285  1.00  0.00     0.028 H 
BRANCH   4   7
ATOM      7  C   UNL A   1      33.212  28.189  25.742  1.00  0.00     0.017 C 
ATOM      8  H   UNL A   1      33.587  27.191  25.827  1.00  0.00     0.049 H 
ATOM      9  H   UNL A   1      32.208  28.265  26.106  1.00  0.00     0.049 H 
BRANCH   7  10
ATOM     10  N   UNL A   1      33.202  28.566  24.339  1.00  0.00    -0.355 N 
ATOM     11  C   UNL A   1      32.175  28.632  23.431  1.00  0.00     0.238 C 
ATOM     12  O   UNL A   1      32.493  28.960  22.281  1.00  0.00    -0.273 OA
ATOM     13  H   UNL A   1      34.082  28.818  23.977  1.00  0.00     0.163 HD
BRANCH  11  14
ATOM     14  C   UNL A   1      30.717  28.362  23.845  1.00  0.00     0.116 C 
ATOM     15  H   UNL A   1      30.782  28.494  24.904  1.00  0.00     0.057 H 
BRANCH  14  16
ATOM     16  S   UNL A   1      30.181  26.663  23.580  1.00  0.00    -0.068 SA
BRANCH  16  17
ATOM     17  C   UNL A   1      31.517  25.571  23.374  1.00  0.00     0.191 A 
ATOM     18  N   UNL A   1      32.066  25.201  22.150  1.00  0.00    -0.202 N 
ATOM     19  C   UNL A   1      33.055  24.211  22.071  1.00  0.00     0.280 A 
ATOM     20  N   UNL A   1      32.034  25.200  24.505  1.00  0.00    -0.222 NA
ATOM     21  C   UNL A   1      33.714  23.863  23.340  1.00  0.00     0.069 A 
ATOM     22  O   UNL A   1      33.443  23.723  21.011  1.00  0.00    -0.267 OA
ATOM     23  C   UNL A   1      33.213  24.451  24.497  1.00  0.00     0.079 A 
ATOM     24  C   UNL A   1      34.895  23.116  23.356  1.00  0.00    -0.033 A 
ATOM     25  C   UNL A   1      33.945  24.342  25.681  1.00  0.00    -0.034 A 
ATOM     26  C   UNL A   1      35.610  23.009  24.547  1.00  0.00     0.018 A 
ATOM     27  H   UNL A   1      35.233  22.649  22.499  1.00  0.00     0.064 H 
ATOM     28  C   UNL A   1      35.150  23.634  25.706  1.00  0.00    -0.046 A 
ATOM     29  H   UNL A   1      33.595  24.786  26.543  1.00  0.00     0.065 H 
ATOM     30  Br  UNL A   1      37.240  22.056  24.583  1.00  0.00    -0.051 Br
ATOM     31  H   UNL A   1      35.698  23.575  26.579  1.00  0.00     0.064 H 
BRANCH  18  32
ATOM     32  N   UNL A   1      31.867  25.946  20.955  1.00  0.00    -0.334 N 
ATOM     33  H   UNL A   1      32.160  26.885  20.906  1.00  0.00     0.178 HD
ATOM     34  H   UNL A   1      31.436  25.523  20.177  1.00  0.00     0.178 HD
ENDBRANCH  18  32
ENDBRANCH  16  17
ENDBRANCH  14  16
BRANCH  14  35
ATOM     35  C   UNL A   1      29.663  29.414  23.498  1.00  0.00    -0.025 A 
ATOM     36  C   UNL A   1      29.799  30.710  24.038  1.00  0.00    -0.057 A 
ATOM     37  C   UNL A   1      28.555  29.178  22.669  1.00  0.00    -0.057 A 
ATOM     38  C   UNL A   1      28.877  31.721  23.749  1.00  0.00    -0.062 A 
ATOM     39  H   UNL A   1      30.596  30.916  24.659  1.00  0.00     0.063 H 
ATOM     40  C   UNL A   1      27.628  30.186  22.385  1.00  0.00    -0.062 A 
ATOM     41  H   UNL A   1      28.422  28.241  22.258  1.00  0.00     0.063 H 
ATOM     42  C   UNL A   1      27.789  31.457  22.924  1.00  0.00    -0.062 A 
ATOM     43  H   UNL A   1      29.005  32.663  24.149  1.00  0.00     0.062 H 
ATOM     44  H   UNL A   1      26.821  29.986  21.774  1.00  0.00     0.062 H 
ATOM     45  H   UNL A   1      27.106  32.202  22.714  1.00  0.00     0.062 H 
ENDBRANCH  14  35
ENDBRANCH  11  14
ENDBRANCH   7  10
ENDBRANCH   4   7
ENDBRANCH   1   4
BRANCH   1  46
ATOM     46  C   UNL A   1      31.953  30.558  26.908  1.00  0.00    -0.052 C 
ATOM     47  H   UNL A   1      31.207  30.090  27.515  1.00  0.00     0.027 H 
ATOM     48  H   UNL A   1      31.929  30.250  25.883  1.00  0.00     0.027 H 
BRANCH  46  49
ATOM     49  C   UNL A   1      31.682  32.062  26.903  1.00  0.00    -0.036 C 
ATOM     50  H   UNL A   1      30.933  32.268  27.640  1.00  0.00     0.028 H 
ATOM     51  H   UNL A   1      31.373  32.309  25.908  1.00  0.00     0.028 H 
BRANCH  49  52
ATOM     52  C   UNL A   1      32.895  32.933  27.203  1.00  0.00     0.018 C 
ATOM     53  H   UNL A   1      33.490  33.008  26.318  1.00  0.00     0.049 H 
ATOM     54  H   UNL A   1      33.434  32.472  28.004  1.00  0.00     0.049 H 
BRANCH  52  55
ATOM     55  N   UNL A   1      32.531  34.274  27.634  1.00  0.00    -0.352 N 
ATOM     56  C   UNL A   1      33.042  35.021  28.673  1.00  0.00     0.251 C 
ATOM     57  H   UNL A   1      31.820  34.709  27.110  1.00  0.00     0.163 HD
ATOM     58  O   UNL A   1      32.527  36.077  29.001  1.00  0.00    -0.269 OA
BRANCH  56  59
ATOM     59  C   UNL A   1      34.209  34.502  29.421  1.00  0.00     0.039 A 
ATOM     60  C   UNL A   1      35.503  34.690  28.931  1.00  0.00    -0.049 A 
ATOM     61  C   UNL A   1      33.995  33.775  30.593  1.00  0.00    -0.049 A 
ATOM     62  C   UNL A   1      36.565  34.013  29.520  1.00  0.00    -0.053 A 
ATOM     63  H   UNL A   1      35.671  35.330  28.138  1.00  0.00     0.063 H 
ATOM     64  C   UNL A   1      35.076  33.156  31.228  1.00  0.00    -0.053 A 
ATOM     65  H   UNL A   1      33.045  33.693  30.988  1.00  0.00     0.063 H 
ATOM     66  C   UNL A   1      36.362  33.231  30.669  1.00  0.00    -0.014 A 
ATOM     67  H   UNL A   1      37.510  34.085  29.109  1.00  0.00     0.063 H 
ATOM     68  H   UNL A   1      34.929  32.644  32.111  1.00  0.00     0.063 H 
BRANCH  66  69
ATOM     69  C   UNL A   1      37.503  32.497  31.273  1.00  0.00     0.031 A 
ATOM     70  C   UNL A   1      37.990  32.837  32.657  1.00  0.00     0.074 A 
ATOM     71  C   UNL A   1      38.082  31.498  30.582  1.00  0.00     0.049 A 
ATOM     72  N   UNL A   1      39.005  32.341  33.320  1.00  0.00    -0.248 NA
ATOM     73  C   UNL A   1      37.241  33.868  33.394  1.00  0.00    -0.034 C 
ATOM     74  C   UNL A   1      37.685  31.062  29.242  1.00  0.00    -0.036 A 
ATOM     75  N   UNL A   1      39.117  30.660  30.912  1.00  0.00    -0.354 N 
ATOM     76  C   UNL A   1      39.032  33.012  34.536  1.00  0.00     0.074 A 
ATOM     77  C   UNL A   1      37.939  33.961  34.519  1.00  0.00    -0.034 C 
ATOM     78  H   UNL A   1      36.395  34.384  33.111  1.00  0.00     0.065 H 
ATOM     79  C   UNL A   1      38.446  30.020  28.876  1.00  0.00    -0.036 A 
ATOM     80  H   UNL A   1      36.939  31.489  28.670  1.00  0.00     0.065 H 
ATOM     81  C   UNL A   1      39.424  29.755  29.926  1.00  0.00     0.049 A 
ATOM     82  H   UNL A   1      39.594  30.704  31.773  1.00  0.00     0.167 HD
ATOM     83  C   UNL A   1      39.888  32.844  35.570  1.00  0.00     0.037 A 
ATOM     84  H   UNL A   1      37.731  34.624  35.283  1.00  0.00     0.065 H 
ATOM     85  H   UNL A   1      38.354  29.491  27.994  1.00  0.00     0.065 H 
ATOM     86  C   UNL A   1      40.401  28.831  29.861  1.00  0.00     0.037 A 
ATOM     87  C   UNL A   1      40.958  31.880  35.594  1.00  0.00     0.049 A 
ATOM     88  C   UNL A   1      41.347  28.683  31.018  1.00  0.00     0.074 A 
ATOM     89  C   UNL A   1      41.877  31.636  36.602  1.00  0.00    -0.036 A 
ATOM     90  N   UNL A   1      41.245  30.991  34.569  1.00  0.00    -0.354 N 
ATOM     91  N   UNL A   1      41.375  29.339  32.151  1.00  0.00    -0.248 NA
ATOM     92  C   UNL A   1      42.403  27.669  30.883  1.00  0.00    -0.034 C 
ATOM     93  C   UNL A   1      42.739  30.623  36.174  1.00  0.00    -0.036 A 
ATOM     94  H   UNL A   1      41.919  32.121  37.512  1.00  0.00     0.065 H 
ATOM     95  C   UNL A   1      42.330  30.204  34.919  1.00  0.00     0.049 A 
ATOM     96  H   UNL A   1      40.752  30.931  33.720  1.00  0.00     0.167 HD
ATOM     97  C   UNL A   1      42.435  28.809  32.872  1.00  0.00     0.074 A 
ATOM     98  C   UNL A   1      43.015  27.764  32.056  1.00  0.00    -0.034 C 
ATOM     99  H   UNL A   1      42.613  27.048  30.086  1.00  0.00     0.065 H 
ATOM    100  H   UNL A   1      43.544  30.251  36.702  1.00  0.00     0.065 H 
ATOM    101  C   UNL A   1      42.888  29.160  34.099  1.00  0.00     0.037 A 
ATOM    102  H   UNL A   1      43.805  27.168  32.349  1.00  0.00     0.065 H 
BRANCH  83 103
ATOM    103  C   UNL A   1      39.724  33.720  36.777  1.00  0.00     0.064 A 
ATOM    104  C   UNL A   1      40.305  34.993  36.843  1.00  0.00     0.173 A 
ATOM    105  C   UNL A   1      38.885  33.324  37.831  1.00  0.00     0.173 A 
ATOM    106  F   UNL A   1      41.123  35.413  35.866  1.00  0.00    -0.203 F 
ATOM    107  C   UNL A   1      40.052  35.840  37.920  1.00  0.00     0.198 A 
ATOM    108  C   UNL A   1      38.617  34.181  38.895  1.00  0.00     0.198 A 
ATOM    109  F   UNL A   1      38.301  32.116  37.812  1.00  0.00    -0.203 F 
ATOM    110  F   UNL A   1      40.628  37.050  37.969  1.00  0.00    -0.200 F 
ATOM    111  C   UNL A   1      39.199  35.440  38.937  1.00  0.00     0.200 A 
ATOM    112  F   UNL A   1      37.783  33.796  39.871  1.00  0.00    -0.200 F 
ATOM    113  F   UNL A   1      38.937  36.265  39.959  1.00  0.00    -0.200 F 
ENDBRANCH  83 103
BRANCH  86 114
ATOM    114  C   UNL A   1      40.530  27.985  28.648  1.00  0.00     0.064 A 
ATOM    115  C   UNL A   1      39.892  26.741  28.565  1.00  0.00     0.173 A 
ATOM    116  C   UNL A   1      41.280  28.412  27.542  1.00  0.00     0.173 A 
ATOM    117  F   UNL A   1      39.182  26.281  29.605  1.00  0.00    -0.203 F 
ATOM    118  C   UNL A   1      40.006  25.951  27.423  1.00  0.00     0.198 A 
ATOM    119  C   UNL A   1      41.370  27.636  26.391  1.00  0.00     0.198 A 
ATOM    120  F   UNL A   1      41.907  29.597  27.574  1.00  0.00    -0.203 F 
ATOM    121  F   UNL A   1      39.416  24.749  27.381  1.00  0.00    -0.200 F 
ATOM    122  C   UNL A   1      40.738  26.402  26.334  1.00  0.00     0.200 A 
ATOM    123  F   UNL A   1      42.064  28.083  25.336  1.00  0.00    -0.200 F 
ATOM    124  F   UNL A   1      40.839  25.647  25.232  1.00  0.00    -0.200 F 
ENDBRANCH  86 114
BRANCH 101 125
ATOM    125  C   UNL A   1      44.049  28.386  34.650  1.00  0.00     0.064 A 
ATOM    126  C   UNL A   1      45.370  28.815  34.466  1.00  0.00     0.173 A 
ATOM    127  C   UNL A   1      43.830  27.225  35.406  1.00  0.00     0.173 A 
ATOM    128  F   UNL A   1      45.629  29.914  33.739  1.00  0.00    -0.203 F 
ATOM    129  C   UNL A   1      46.435  28.097  35.000  1.00  0.00     0.198 A 
ATOM    130  C   UNL A   1      44.896  26.523  35.960  1.00  0.00     0.198 A 
ATOM    131  F   UNL A   1      42.583  26.779  35.616  1.00  0.00    -0.203 F 
ATOM    132  F   UNL A   1      47.693  28.501  34.778  1.00  0.00    -0.200 F 
ATOM    133  C   UNL A   1      46.197  26.955  35.752  1.00  0.00     0.200 A 
ATOM    134  F   UNL A   1      44.664  25.426  36.696  1.00  0.00    -0.200 F 
ATOM    135  F   UNL A   1      47.223  26.267  36.272  1.00  0.00    -0.200 F 
ENDBRANCH 101 125
ENDBRANCH  66  69
ENDBRANCH  56  59
ENDBRANCH  52  55
ENDBRANCH  49  52
ENDBRANCH  46  49
ENDBRANCH   1  46
TORSDOF 17
ENDMDL
MODEL 3
REMARK VINA RESULT:     -13.2      0.511      7.048
REMARK SMILES Nn1c(S[C@@H](C(=O)NCCCCCCNC(=O)c2ccc(-c3c4nc(c(-c5c(F)c(F)c(F)c(F)c5F)c5ccc([nH]5)c(-c5c(F)c(F)c(F)c(F)c5F)c5nc(c(-c6c(F)c(F)c(F)c(F)c6F)c6ccc3[nH]6)C=C5)C=C4)cc2)c2ccccc2)nc2ccc(Br)cc2c1=O
REMARK SMILES IDX 11 1 10 4 9 7 8 10 6 11 7 12 5 14 4 16 3 17 2 18 95 19 87 20
REMARK SMILES IDX 94 21 96 22 88 23 93 24 89 25 91 26 90 28 92 30 1 32 81 35
REMARK SMILES IDX 82 36 86 37 83 38 85 40 84 42 12 46 13 49 14 52 15 55 16 56
REMARK SMILES IDX 17 58 18 59 19 60 80 61 20 62 79 64 21 66 22 69 23 70 73 71
REMARK SMILES IDX 24 72 78 73 72 74 74 75 25 76 77 77 71 79 70 81 26 83 58 86
REMARK SMILES IDX 38 87 57 88 39 89 42 90 56 91 75 92 40 93 41 95 55 97 76 98
REMARK SMILES IDX 43 101 27 103 28 104 36 105 29 106 30 107 34 108 37 109
REMARK SMILES IDX 31 110 32 111 35 112 33 113 59 114 60 115 68 116 61 117
REMARK SMILES IDX 62 118 66 119 69 120 63 121 64 122 67 123 65 124 44 125
REMARK SMILES IDX 45 126 53 127 46 128 47 129 51 130 54 131 48 132 49 133
REMARK SMILES IDX 52 134 50 135
REMARK H PARENT 11 2 11 3 10 5 10 6 9 8 9 9 8 13 5 15 93 27 89 29 90 31 1 33
REMARK H PARENT 1 34 82 39 86 41 83 43 85 44 84 45 12 47 12 48 13 50 13 51
REMARK H PARENT 14 53 14 54 15 57 19 63 80 65 20 67 79 68 78 78 72 80 74 82
REMARK H PARENT 77 84 71 85 39 94 42 96 75 99 40 100 76 102
REMARK Flexibility Score: inf
ROOT
ATOM      1  C   UNL A   1      33.275  30.226  27.469  1.00  0.00    -0.052 C 
ATOM      2  H   UNL A   1      33.898  31.094  27.533  1.00  0.00     0.027 H 
ATOM      3  H   UNL A   1      33.025  29.800  28.418  1.00  0.00     0.027 H 
ENDROOT
BRANCH   1   4
ATOM      4  C   UNL A   1      34.057  29.142  26.718  1.00  0.00    -0.036 C 
ATOM      5  H   UNL A   1      34.781  29.626  26.096  1.00  0.00     0.028 H 
ATOM      6  H   UNL A   1      34.489  28.515  27.469  1.00  0.00     0.028 H 
BRANCH   4   7
ATOM      7  C   UNL A   1      33.212  28.220  25.830  1.00  0.00     0.017 C 
ATOM      8  H   UNL A   1      33.570  27.218  25.938  1.00  0.00     0.049 H 
ATOM      9  H   UNL A   1      32.193  28.311  26.145  1.00  0.00     0.049 H 
BRANCH   7  10
ATOM     10  N   UNL A   1      33.274  28.589  24.426  1.00  0.00    -0.355 N 
ATOM     11  C   UNL A   1      32.289  28.696  23.478  1.00  0.00     0.238 C 
ATOM     12  O   UNL A   1      32.667  29.004  22.341  1.00  0.00    -0.273 OA
ATOM     13  H   UNL A   1      34.179  28.800  24.099  1.00  0.00     0.163 HD
BRANCH  11  14
ATOM     14  C   UNL A   1      30.805  28.494  23.834  1.00  0.00     0.116 C 
ATOM     15  H   UNL A   1      30.824  28.682  24.887  1.00  0.00     0.057 H 
BRANCH  14  16
ATOM     16  S   UNL A   1      30.226  26.800  23.635  1.00  0.00    -0.068 SA
BRANCH  16  17
ATOM     17  C   UNL A   1      31.532  25.674  23.418  1.00  0.00     0.191 A 
ATOM     18  N   UNL A   1      32.043  25.269  22.188  1.00  0.00    -0.202 N 
ATOM     19  C   UNL A   1      33.007  24.257  22.105  1.00  0.00     0.280 A 
ATOM     20  N   UNL A   1      32.069  25.313  24.543  1.00  0.00    -0.222 NA
ATOM     21  C   UNL A   1      33.690  23.917  23.364  1.00  0.00     0.069 A 
ATOM     22  O   UNL A   1      33.359  23.740  21.045  1.00  0.00    -0.267 OA
ATOM     23  C   UNL A   1      33.230  24.538  24.522  1.00  0.00     0.079 A 
ATOM     24  C   UNL A   1      34.854  23.144  23.366  1.00  0.00    -0.033 A 
ATOM     25  C   UNL A   1      33.989  24.435  25.689  1.00  0.00    -0.034 A 
ATOM     26  C   UNL A   1      35.596  23.044  24.541  1.00  0.00     0.018 A 
ATOM     27  H   UNL A   1      35.161  22.654  22.510  1.00  0.00     0.064 H 
ATOM     28  C   UNL A   1      35.179  23.701  25.698  1.00  0.00    -0.046 A 
ATOM     29  H   UNL A   1      33.670  24.903  26.551  1.00  0.00     0.065 H 
ATOM     30  Br  UNL A   1      37.205  22.055  24.556  1.00  0.00    -0.051 Br
ATOM     31  H   UNL A   1      35.746  23.646  26.559  1.00  0.00     0.064 H 
BRANCH  18  32
ATOM     32  N   UNL A   1      31.831  25.996  20.984  1.00  0.00    -0.334 N 
ATOM     33  H   UNL A   1      32.557  26.076  20.323  1.00  0.00     0.178 HD
ATOM     34  H   UNL A   1      30.960  26.421  20.813  1.00  0.00     0.178 HD
ENDBRANCH  18  32
ENDBRANCH  16  17
ENDBRANCH  14  16
BRANCH  14  35
ATOM     35  C   UNL A   1      29.803  29.557  23.379  1.00  0.00    -0.025 A 
ATOM     36  C   UNL A   1      28.990  29.283  22.261  1.00  0.00    -0.057 A 
ATOM     37  C   UNL A   1      29.635  30.801  24.005  1.00  0.00    -0.057 A 
ATOM     38  C   UNL A   1      28.045  30.207  21.803  1.00  0.00    -0.062 A 
ATOM     39  H   UNL A   1      29.093  28.381  21.771  1.00  0.00     0.063 H 
ATOM     40  C   UNL A   1      28.697  31.729  23.543  1.00  0.00    -0.062 A 
ATOM     41  H   UNL A   1      30.216  31.037  24.825  1.00  0.00     0.063 H 
ATOM     42  C   UNL A   1      27.902  31.433  22.443  1.00  0.00    -0.062 A 
ATOM     43  H   UNL A   1      27.456  29.978  20.987  1.00  0.00     0.062 H 
ATOM     44  H   UNL A   1      28.595  32.639  24.021  1.00  0.00     0.062 H 
ATOM     45  H   UNL A   1      27.208  32.117  22.103  1.00  0.00     0.062 H 
ENDBRANCH  14  35
ENDBRANCH  11  14
ENDBRANCH   7  10
ENDBRANCH   4   7
ENDBRANCH   1   4
BRANCH   1  46
ATOM     46  C   UNL A   1      31.946  30.647  26.837  1.00  0.00    -0.052 C 
ATOM     47  H   UNL A   1      31.157  30.170  27.380  1.00  0.00     0.027 H 
ATOM     48  H   UNL A   1      32.002  30.351  25.810  1.00  0.00     0.027 H 
BRANCH  46  49
ATOM     49  C   UNL A   1      31.673  32.150  26.829  1.00  0.00    -0.036 C 
ATOM     50  H   UNL A   1      30.896  32.351  27.537  1.00  0.00     0.028 H 
ATOM     51  H   UNL A   1      31.404  32.401  25.824  1.00  0.00     0.028 H 
BRANCH  49  52
ATOM     52  C   UNL A   1      32.872  33.021  27.181  1.00  0.00     0.018 C 
ATOM     53  H   UNL A   1      33.484  33.130  26.311  1.00  0.00     0.049 H 
ATOM     54  H   UNL A   1      33.399  32.539  27.978  1.00  0.00     0.049 H 
BRANCH  52  55
ATOM     55  N   UNL A   1      32.487  34.345  27.647  1.00  0.00    -0.352 N 
ATOM     56  C   UNL A   1      32.986  35.071  28.706  1.00  0.00     0.251 C 
ATOM     57  H   UNL A   1      31.770  34.782  27.134  1.00  0.00     0.163 HD
ATOM     58  O   UNL A   1      32.455  36.110  29.061  1.00  0.00    -0.269 OA
BRANCH  56  59
ATOM     59  C   UNL A   1      34.161  34.551  29.440  1.00  0.00     0.039 A 
ATOM     60  C   UNL A   1      35.445  34.680  28.904  1.00  0.00    -0.049 A 
ATOM     61  C   UNL A   1      33.964  33.881  30.649  1.00  0.00    -0.049 A 
ATOM     62  C   UNL A   1      36.505  33.998  29.490  1.00  0.00    -0.053 A 
ATOM     63  H   UNL A   1      35.605  35.280  28.080  1.00  0.00     0.063 H 
ATOM     64  C   UNL A   1      35.047  33.259  31.277  1.00  0.00    -0.053 A 
ATOM     65  H   UNL A   1      33.025  33.844  31.075  1.00  0.00     0.063 H 
ATOM     66  C   UNL A   1      36.316  33.273  30.678  1.00  0.00    -0.014 A 
ATOM     67  H   UNL A   1      37.438  34.024  29.049  1.00  0.00     0.063 H 
ATOM     68  H   UNL A   1      34.913  32.789  32.186  1.00  0.00     0.063 H 
BRANCH  66  69
ATOM     69  C   UNL A   1      37.455  32.532  31.279  1.00  0.00     0.031 A 
ATOM     70  C   UNL A   1      37.946  32.868  32.662  1.00  0.00     0.074 A 
ATOM     71  C   UNL A   1      38.026  31.529  30.586  1.00  0.00     0.049 A 
ATOM     72  N   UNL A   1      38.960  32.366  33.322  1.00  0.00    -0.248 NA
ATOM     73  C   UNL A   1      37.205  33.902  33.401  1.00  0.00    -0.034 C 
ATOM     74  C   UNL A   1      37.624  31.097  29.246  1.00  0.00    -0.036 A 
ATOM     75  N   UNL A   1      39.057  30.686  30.913  1.00  0.00    -0.354 N 
ATOM     76  C   UNL A   1      38.993  33.036  34.538  1.00  0.00     0.074 A 
ATOM     77  C   UNL A   1      37.906  33.990  34.525  1.00  0.00    -0.034 C 
ATOM     78  H   UNL A   1      36.360  34.423  33.120  1.00  0.00     0.065 H 
ATOM     79  C   UNL A   1      38.378  30.051  28.878  1.00  0.00    -0.036 A 
ATOM     80  H   UNL A   1      36.880  31.528  28.677  1.00  0.00     0.065 H 
ATOM     81  C   UNL A   1      39.358  29.780  29.926  1.00  0.00     0.049 A 
ATOM     82  H   UNL A   1      39.536  30.727  31.772  1.00  0.00     0.167 HD
ATOM     83  C   UNL A   1      39.851  32.862  35.571  1.00  0.00     0.037 A 
ATOM     84  H   UNL A   1      37.702  34.654  35.289  1.00  0.00     0.065 H 
ATOM     85  H   UNL A   1      38.282  29.523  27.996  1.00  0.00     0.065 H 
ATOM     86  C   UNL A   1      40.329  28.851  29.858  1.00  0.00     0.037 A 
ATOM     87  C   UNL A   1      40.915  31.892  35.592  1.00  0.00     0.049 A 
ATOM     88  C   UNL A   1      41.277  28.697  31.012  1.00  0.00     0.074 A 
ATOM     89  C   UNL A   1      41.835  31.643  36.597  1.00  0.00    -0.036 A 
ATOM     90  N   UNL A   1      41.195  31.003  34.566  1.00  0.00    -0.354 N 
ATOM     91  N   UNL A   1      41.311  29.351  32.146  1.00  0.00    -0.248 NA
ATOM     92  C   UNL A   1      42.327  27.677  30.875  1.00  0.00    -0.034 C 
ATOM     93  C   UNL A   1      42.691  30.625  36.167  1.00  0.00    -0.036 A 
ATOM     94  H   UNL A   1      41.882  32.126  37.508  1.00  0.00     0.065 H 
ATOM     95  C   UNL A   1      42.277  30.210  34.912  1.00  0.00     0.049 A 
ATOM     96  H   UNL A   1      40.700  30.946  33.717  1.00  0.00     0.167 HD
ATOM     97  C   UNL A   1      42.369  28.815  32.864  1.00  0.00     0.074 A 
ATOM     98  C   UNL A   1      42.942  27.767  32.046  1.00  0.00    -0.034 C 
ATOM     99  H   UNL A   1      42.532  27.056  30.077  1.00  0.00     0.065 H 
ATOM    100  H   UNL A   1      43.495  30.248  36.693  1.00  0.00     0.065 H 
ATOM    101  C   UNL A   1      42.828  29.163  34.090  1.00  0.00     0.037 A 
ATOM    102  H   UNL A   1      43.730  27.167  32.337  1.00  0.00     0.065 H 
BRANCH  83 103
ATOM    103  C   UNL A   1      39.694  33.738  36.779  1.00  0.00     0.064 A 
ATOM    104  C   UNL A   1      40.279  35.010  36.843  1.00  0.00     0.173 A 
ATOM    105  C   UNL A   1      38.859  33.344  37.836  1.00  0.00     0.173 A 
ATOM    106  F   UNL A   1      41.093  35.429  35.862  1.00  0.00    -0.203 F 
ATOM    107  C   UNL A   1      40.032  35.858  37.921  1.00  0.00     0.198 A 
ATOM    108  C   UNL A   1      38.597  34.201  38.902  1.00  0.00     0.198 A 
ATOM    109  F   UNL A   1      38.272  32.137  37.820  1.00  0.00    -0.203 F 
ATOM    110  F   UNL A   1      40.610  37.066  37.967  1.00  0.00    -0.200 F 
ATOM    111  C   UNL A   1      39.183  35.459  38.941  1.00  0.00     0.200 A 
ATOM    112  F   UNL A   1      37.767  33.818  39.881  1.00  0.00    -0.200 F 
ATOM    113  F   UNL A   1      38.927  36.285  39.965  1.00  0.00    -0.200 F 
ENDBRANCH  83 103
BRANCH  86 114
ATOM    114  C   UNL A   1      40.451  28.005  28.644  1.00  0.00     0.064 A 
ATOM    115  C   UNL A   1      41.216  28.423  27.548  1.00  0.00     0.173 A 
ATOM    116  C   UNL A   1      39.818  26.755  28.564  1.00  0.00     0.173 A 
ATOM    117  F   UNL A   1      41.822  29.618  27.570  1.00  0.00    -0.203 F 
ATOM    118  C   UNL A   1      41.337  27.626  26.411  1.00  0.00     0.198 A 
ATOM    119  C   UNL A   1      39.964  25.947  27.440  1.00  0.00     0.198 A 
ATOM    120  F   UNL A   1      39.077  26.311  29.589  1.00  0.00    -0.203 F 
ATOM    121  F   UNL A   1      42.046  28.062  25.361  1.00  0.00    -0.200 F 
ATOM    122  C   UNL A   1      40.718  26.385  26.362  1.00  0.00     0.200 A 
ATOM    123  F   UNL A   1      39.378  24.743  27.404  1.00  0.00    -0.200 F 
ATOM    124  F   UNL A   1      40.844  25.613  25.274  1.00  0.00    -0.200 F 
ENDBRANCH  86 114
BRANCH 101 125
ATOM    125  C   UNL A   1      43.985  28.383  34.638  1.00  0.00     0.064 A 
ATOM    126  C   UNL A   1      45.308  28.806  34.453  1.00  0.00     0.173 A 
ATOM    127  C   UNL A   1      43.761  27.221  35.392  1.00  0.00     0.173 A 
ATOM    128  F   UNL A   1      45.571  29.904  33.728  1.00  0.00    -0.203 F 
ATOM    129  C   UNL A   1      46.370  28.081  34.985  1.00  0.00     0.198 A 
ATOM    130  C   UNL A   1      44.825  26.513  35.944  1.00  0.00     0.198 A 
ATOM    131  F   UNL A   1      42.512  26.781  35.603  1.00  0.00    -0.203 F 
ATOM    132  F   UNL A   1      47.630  28.480  34.762  1.00  0.00    -0.200 F 
ATOM    133  C   UNL A   1      46.127  26.939  35.735  1.00  0.00     0.200 A 
ATOM    134  F   UNL A   1      44.588  25.416  36.678  1.00  0.00    -0.200 F 
ATOM    135  F   UNL A   1      47.151  26.245  36.252  1.00  0.00    -0.200 F 
ENDBRANCH 101 125
ENDBRANCH  66  69
ENDBRANCH  56  59
ENDBRANCH  52  55
ENDBRANCH  49  52
ENDBRANCH  46  49
ENDBRANCH   1  46
TORSDOF 17
ENDMDL
MODEL 4
REMARK VINA RESULT:     -13.0      1.868      8.099
REMARK SMILES Nn1c(S[C@@H](C(=O)NCCCCCCNC(=O)c2ccc(-c3c4nc(c(-c5c(F)c(F)c(F)c(F)c5F)c5ccc([nH]5)c(-c5c(F)c(F)c(F)c(F)c5F)c5nc(c(-c6c(F)c(F)c(F)c(F)c6F)c6ccc3[nH]6)C=C5)C=C4)cc2)c2ccccc2)nc2ccc(Br)cc2c1=O
REMARK SMILES IDX 11 1 10 4 9 7 8 10 6 11 7 12 5 14 4 16 3 17 2 18 95 19 87 20
REMARK SMILES IDX 94 21 96 22 88 23 93 24 89 25 91 26 90 28 92 30 1 32 81 35
REMARK SMILES IDX 82 36 86 37 83 38 85 40 84 42 12 46 13 49 14 52 15 55 16 56
REMARK SMILES IDX 17 58 18 59 19 60 80 61 20 62 79 64 21 66 22 69 23 70 73 71
REMARK SMILES IDX 24 72 78 73 72 74 74 75 25 76 77 77 71 79 70 81 26 83 58 86
REMARK SMILES IDX 38 87 57 88 39 89 42 90 56 91 75 92 40 93 41 95 55 97 76 98
REMARK SMILES IDX 43 101 27 103 28 104 36 105 29 106 30 107 34 108 37 109
REMARK SMILES IDX 31 110 32 111 35 112 33 113 59 114 60 115 68 116 61 117
REMARK SMILES IDX 62 118 66 119 69 120 63 121 64 122 67 123 65 124 44 125
REMARK SMILES IDX 45 126 53 127 46 128 47 129 51 130 54 131 48 132 49 133
REMARK SMILES IDX 52 134 50 135
REMARK H PARENT 11 2 11 3 10 5 10 6 9 8 9 9 8 13 5 15 93 27 89 29 90 31 1 33
REMARK H PARENT 1 34 82 39 86 41 83 43 85 44 84 45 12 47 12 48 13 50 13 51
REMARK H PARENT 14 53 14 54 15 57 19 63 80 65 20 67 79 68 78 78 72 80 74 82
REMARK H PARENT 77 84 71 85 39 94 42 96 75 99 40 100 76 102
REMARK Flexibility Score: inf
ROOT
ATOM      1  C   UNL A   1      32.527  29.796  27.137  1.00  0.00    -0.052 C 
ATOM      2  H   UNL A   1      32.702  30.374  28.020  1.00  0.00     0.027 H 
ATOM      3  H   UNL A   1      31.943  28.915  27.303  1.00  0.00     0.027 H 
ENDROOT
BRANCH   1   4
ATOM      4  C   UNL A   1      33.886  29.305  26.622  1.00  0.00    -0.036 C 
ATOM      5  H   UNL A   1      34.348  30.110  26.090  1.00  0.00     0.028 H 
ATOM      6  H   UNL A   1      34.433  28.992  27.485  1.00  0.00     0.028 H 
BRANCH   4   7
ATOM      7  C   UNL A   1      33.833  28.090  25.688  1.00  0.00     0.017 C 
ATOM      8  H   UNL A   1      33.219  28.331  24.846  1.00  0.00     0.049 H 
ATOM      9  H   UNL A   1      34.836  27.864  25.392  1.00  0.00     0.049 H 
BRANCH   7  10
ATOM     10  N   UNL A   1      33.289  26.911  26.340  1.00  0.00    -0.355 N 
ATOM     11  C   UNL A   1      33.209  25.607  25.923  1.00  0.00     0.238 C 
ATOM     12  O   UNL A   1      32.650  24.825  26.702  1.00  0.00    -0.273 OA
ATOM     13  H   UNL A   1      32.914  27.076  27.236  1.00  0.00     0.163 HD
BRANCH  11  14
ATOM     14  C   UNL A   1      33.828  25.149  24.589  1.00  0.00     0.116 C 
ATOM     15  H   UNL A   1      34.294  26.056  24.264  1.00  0.00     0.057 H 
BRANCH  14  16
ATOM     16  S   UNL A   1      32.617  24.723  23.326  1.00  0.00    -0.068 SA
BRANCH  16  17
ATOM     17  C   UNL A   1      31.275  25.828  23.294  1.00  0.00     0.191 A 
ATOM     18  N   UNL A   1      30.083  25.659  23.992  1.00  0.00    -0.202 N 
ATOM     19  C   UNL A   1      29.005  26.532  23.801  1.00  0.00     0.280 A 
ATOM     20  N   UNL A   1      31.535  26.905  22.618  1.00  0.00    -0.222 NA
ATOM     21  C   UNL A   1      29.320  27.801  23.125  1.00  0.00     0.069 A 
ATOM     22  O   UNL A   1      27.878  26.328  24.252  1.00  0.00    -0.267 OA
ATOM     23  C   UNL A   1      30.614  27.954  22.637  1.00  0.00     0.079 A 
ATOM     24  C   UNL A   1      28.414  28.865  23.132  1.00  0.00    -0.033 A 
ATOM     25  C   UNL A   1      31.027  29.217  22.207  1.00  0.00    -0.034 A 
ATOM     26  C   UNL A   1      28.839  30.116  22.692  1.00  0.00     0.018 A 
ATOM     27  H   UNL A   1      27.443  28.727  23.458  1.00  0.00     0.064 H 
ATOM     28  C   UNL A   1      30.147  30.302  22.246  1.00  0.00    -0.046 A 
ATOM     29  H   UNL A   1      31.989  29.350  21.857  1.00  0.00     0.065 H 
ATOM     30  Br  UNL A   1      27.653  31.585  22.747  1.00  0.00    -0.051 Br
ATOM     31  H   UNL A   1      30.465  31.237  21.947  1.00  0.00     0.064 H 
BRANCH  18  32
ATOM     32  N   UNL A   1      29.953  24.779  25.102  1.00  0.00    -0.334 N 
ATOM     33  H   UNL A   1      30.388  23.896  25.083  1.00  0.00     0.178 HD
ATOM     34  H   UNL A   1      29.428  25.054  25.888  1.00  0.00     0.178 HD
ENDBRANCH  18  32
ENDBRANCH  16  17
ENDBRANCH  14  16
BRANCH  14  35
ATOM     35  C   UNL A   1      35.038  24.216  24.638  1.00  0.00    -0.025 A 
ATOM     36  C   UNL A   1      35.340  23.440  23.499  1.00  0.00    -0.057 A 
ATOM     37  C   UNL A   1      35.881  24.075  25.751  1.00  0.00    -0.057 A 
ATOM     38  C   UNL A   1      36.440  22.578  23.476  1.00  0.00    -0.062 A 
ATOM     39  H   UNL A   1      34.735  23.512  22.667  1.00  0.00     0.063 H 
ATOM     40  C   UNL A   1      36.977  23.207  25.731  1.00  0.00    -0.062 A 
ATOM     41  H   UNL A   1      35.689  24.626  26.603  1.00  0.00     0.063 H 
ATOM     42  C   UNL A   1      37.258  22.459  24.594  1.00  0.00    -0.062 A 
ATOM     43  H   UNL A   1      36.644  22.028  22.626  1.00  0.00     0.062 H 
ATOM     44  H   UNL A   1      37.580  23.121  26.564  1.00  0.00     0.062 H 
ATOM     45  H   UNL A   1      38.068  21.820  24.578  1.00  0.00     0.062 H 
ENDBRANCH  14  35
ENDBRANCH  11  14
ENDBRANCH   7  10
ENDBRANCH   4   7
ENDBRANCH   1   4
BRANCH   1  46
ATOM     46  C   UNL A   1      31.717  30.656  26.164  1.00  0.00    -0.052 C 
ATOM     47  H   UNL A   1      30.782  30.168  25.992  1.00  0.00     0.027 H 
ATOM     48  H   UNL A   1      32.320  30.752  25.285  1.00  0.00     0.027 H 
BRANCH  46  49
ATOM     49  C   UNL A   1      31.429  32.080  26.636  1.00  0.00    -0.036 C 
ATOM     50  H   UNL A   1      30.645  32.037  27.364  1.00  0.00     0.028 H 
ATOM     51  H   UNL A   1      31.163  32.639  25.762  1.00  0.00     0.028 H 
BRANCH  49  52
ATOM     52  C   UNL A   1      32.616  32.802  27.261  1.00  0.00     0.018 C 
ATOM     53  H   UNL A   1      33.438  32.765  26.577  1.00  0.00     0.049 H 
ATOM     54  H   UNL A   1      32.845  32.309  28.182  1.00  0.00     0.049 H 
BRANCH  52  55
ATOM     55  N   UNL A   1      32.329  34.194  27.568  1.00  0.00    -0.352 N 
ATOM     56  C   UNL A   1      32.904  35.010  28.517  1.00  0.00     0.251 C 
ATOM     57  H   UNL A   1      31.625  34.612  27.021  1.00  0.00     0.163 HD
ATOM     58  O   UNL A   1      32.450  36.117  28.754  1.00  0.00    -0.269 OA
BRANCH  56  59
ATOM     59  C   UNL A   1      34.065  34.507  29.285  1.00  0.00     0.039 A 
ATOM     60  C   UNL A   1      35.353  34.582  28.749  1.00  0.00    -0.049 A 
ATOM     61  C   UNL A   1      33.850  33.907  30.527  1.00  0.00    -0.049 A 
ATOM     62  C   UNL A   1      36.397  33.911  29.375  1.00  0.00    -0.053 A 
ATOM     63  H   UNL A   1      35.529  35.134  27.894  1.00  0.00     0.063 H 
ATOM     64  C   UNL A   1      34.918  33.298  31.193  1.00  0.00    -0.053 A 
ATOM     65  H   UNL A   1      32.909  33.911  30.950  1.00  0.00     0.063 H 
ATOM     66  C   UNL A   1      36.189  33.255  30.600  1.00  0.00    -0.014 A 
ATOM     67  H   UNL A   1      37.332  33.895  28.938  1.00  0.00     0.063 H 
ATOM     68  H   UNL A   1      34.771  32.881  32.125  1.00  0.00     0.063 H 
BRANCH  66  69
ATOM     69  C   UNL A   1      37.310  32.525  31.246  1.00  0.00     0.031 A 
ATOM     70  C   UNL A   1      37.760  32.883  32.637  1.00  0.00     0.074 A 
ATOM     71  C   UNL A   1      37.904  31.513  30.585  1.00  0.00     0.049 A 
ATOM     72  N   UNL A   1      38.754  32.392  33.334  1.00  0.00    -0.248 NA
ATOM     73  C   UNL A   1      36.996  33.926  33.339  1.00  0.00    -0.034 C 
ATOM     74  C   UNL A   1      37.542  31.060  29.240  1.00  0.00    -0.036 A 
ATOM     75  N   UNL A   1      38.926  30.677  30.955  1.00  0.00    -0.354 N 
ATOM     76  C   UNL A   1      38.751  33.080  34.541  1.00  0.00     0.074 A 
ATOM     77  C   UNL A   1      37.663  34.033  34.481  1.00  0.00    -0.034 C 
ATOM     78  H   UNL A   1      36.159  34.442  33.025  1.00  0.00     0.065 H 
ATOM     79  C   UNL A   1      38.308  30.011  28.910  1.00  0.00    -0.036 A 
ATOM     80  H   UNL A   1      36.814  31.482  28.642  1.00  0.00     0.065 H 
ATOM     81  C   UNL A   1      39.257  29.757  29.991  1.00  0.00     0.049 A 
ATOM     82  H   UNL A   1      39.379  30.731  31.827  1.00  0.00     0.167 HD
ATOM     83  C   UNL A   1      39.578  32.923  35.601  1.00  0.00     0.037 A 
ATOM     84  H   UNL A   1      37.436  34.707  35.229  1.00  0.00     0.065 H 
ATOM     85  H   UNL A   1      38.239  29.470  28.034  1.00  0.00     0.065 H 
ATOM     86  C   UNL A   1      40.231  28.828  29.966  1.00  0.00     0.037 A 
ATOM     87  C   UNL A   1      40.642  31.956  35.669  1.00  0.00     0.049 A 
ATOM     88  C   UNL A   1      41.145  28.694  31.149  1.00  0.00     0.074 A 
ATOM     89  C   UNL A   1      41.532  31.723  36.704  1.00  0.00    -0.036 A 
ATOM     90  N   UNL A   1      40.954  31.052  34.664  1.00  0.00    -0.354 N 
ATOM     91  N   UNL A   1      41.143  29.365  32.274  1.00  0.00    -0.248 NA
ATOM     92  C   UNL A   1      42.199  27.674  31.059  1.00  0.00    -0.034 C 
ATOM     93  C   UNL A   1      42.402  30.700  36.314  1.00  0.00    -0.036 A 
ATOM     94  H   UNL A   1      41.551  32.220  37.608  1.00  0.00     0.065 H 
ATOM     95  C   UNL A   1      42.026  30.266  35.054  1.00  0.00     0.049 A 
ATOM     96  H   UNL A   1      40.484  30.981  33.802  1.00  0.00     0.167 HD
ATOM     97  C   UNL A   1      42.181  28.841  33.031  1.00  0.00     0.074 A 
ATOM     98  C   UNL A   1      42.779  27.782  32.246  1.00  0.00    -0.034 C 
ATOM     99  H   UNL A   1      42.428  27.041  30.276  1.00  0.00     0.065 H 
ATOM    100  H   UNL A   1      43.190  30.333  36.870  1.00  0.00     0.065 H 
ATOM    101  C   UNL A   1      42.602  29.208  34.265  1.00  0.00     0.037 A 
ATOM    102  H   UNL A   1      43.558  27.188  32.569  1.00  0.00     0.065 H 
BRANCH  83 103
ATOM    103  C   UNL A   1      39.384  33.817  36.791  1.00  0.00     0.064 A 
ATOM    104  C   UNL A   1      38.626  33.410  37.897  1.00  0.00     0.173 A 
ATOM    105  C   UNL A   1      40.053  35.048  36.869  1.00  0.00     0.173 A 
ATOM    106  F   UNL A   1      37.958  32.246  37.867  1.00  0.00    -0.203 F 
ATOM    107  C   UNL A   1      38.547  34.202  39.041  1.00  0.00     0.198 A 
ATOM    108  C   UNL A   1      39.990  35.827  38.022  1.00  0.00     0.198 A 
ATOM    109  F   UNL A   1      40.796  35.480  35.838  1.00  0.00    -0.203 F 
ATOM    110  F   UNL A   1      37.807  33.799  40.083  1.00  0.00    -0.200 F 
ATOM    111  C   UNL A   1      39.238  35.402  39.107  1.00  0.00     0.200 A 
ATOM    112  F   UNL A   1      40.668  36.981  38.088  1.00  0.00    -0.200 F 
ATOM    113  F   UNL A   1      39.182  36.150  40.217  1.00  0.00    -0.200 F 
ENDBRANCH  83 103
BRANCH  86 114
ATOM    114  C   UNL A   1      40.390  27.965  28.769  1.00  0.00     0.064 A 
ATOM    115  C   UNL A   1      39.742  26.726  28.681  1.00  0.00     0.173 A 
ATOM    116  C   UNL A   1      41.179  28.370  27.681  1.00  0.00     0.173 A 
ATOM    117  F   UNL A   1      38.995  26.287  29.704  1.00  0.00    -0.203 F 
ATOM    118  C   UNL A   1      39.885  25.919  27.554  1.00  0.00     0.198 A 
ATOM    119  C   UNL A   1      41.298  27.577  26.544  1.00  0.00     0.198 A 
ATOM    120  F   UNL A   1      41.816  29.549  27.717  1.00  0.00    -0.203 F 
ATOM    121  F   UNL A   1      39.284  24.722  27.509  1.00  0.00    -0.200 F 
ATOM    122  C   UNL A   1      40.655  26.349  26.483  1.00  0.00     0.200 A 
ATOM    123  F   UNL A   1      42.029  28.003  25.506  1.00  0.00    -0.200 F 
ATOM    124  F   UNL A   1      40.783  25.578  25.395  1.00  0.00    -0.200 F 
ENDBRANCH  86 114
BRANCH 101 125
ATOM    125  C   UNL A   1      43.743  28.438  34.859  1.00  0.00     0.064 A 
ATOM    126  C   UNL A   1      43.532  27.266  35.597  1.00  0.00     0.173 A 
ATOM    127  C   UNL A   1      45.065  28.857  34.649  1.00  0.00     0.173 A 
ATOM    128  F   UNL A   1      42.284  26.832  35.834  1.00  0.00    -0.203 F 
ATOM    129  C   UNL A   1      44.603  26.551  36.125  1.00  0.00     0.198 A 
ATOM    130  C   UNL A   1      46.135  28.126  35.157  1.00  0.00     0.198 A 
ATOM    131  F   UNL A   1      45.319  29.969  33.942  1.00  0.00    -0.203 F 
ATOM    132  F   UNL A   1      44.377  25.455  36.862  1.00  0.00    -0.200 F 
ATOM    133  C   UNL A   1      45.904  26.978  35.898  1.00  0.00     0.200 A 
ATOM    134  F   UNL A   1      47.392  28.534  34.928  1.00  0.00    -0.200 F 
ATOM    135  F   UNL A   1      46.935  26.286  36.402  1.00  0.00    -0.200 F 
ENDBRANCH 101 125
ENDBRANCH  66  69
ENDBRANCH  56  59
ENDBRANCH  52  55
ENDBRANCH  49  52
ENDBRANCH  46  49
ENDBRANCH   1  46
TORSDOF 17
ENDMDL
MODEL 5
REMARK VINA RESULT:     -13.0      5.768     10.376
REMARK SMILES Nn1c(S[C@@H](C(=O)NCCCCCCNC(=O)c2ccc(-c3c4nc(c(-c5c(F)c(F)c(F)c(F)c5F)c5ccc([nH]5)c(-c5c(F)c(F)c(F)c(F)c5F)c5nc(c(-c6c(F)c(F)c(F)c(F)c6F)c6ccc3[nH]6)C=C5)C=C4)cc2)c2ccccc2)nc2ccc(Br)cc2c1=O
REMARK SMILES IDX 11 1 10 4 9 7 8 10 6 11 7 12 5 14 4 16 3 17 2 18 95 19 87 20
REMARK SMILES IDX 94 21 96 22 88 23 93 24 89 25 91 26 90 28 92 30 1 32 81 35
REMARK SMILES IDX 82 36 86 37 83 38 85 40 84 42 12 46 13 49 14 52 15 55 16 56
REMARK SMILES IDX 17 58 18 59 19 60 80 61 20 62 79 64 21 66 22 69 23 70 73 71
REMARK SMILES IDX 24 72 78 73 72 74 74 75 25 76 77 77 71 79 70 81 26 83 58 86
REMARK SMILES IDX 38 87 57 88 39 89 42 90 56 91 75 92 40 93 41 95 55 97 76 98
REMARK SMILES IDX 43 101 27 103 28 104 36 105 29 106 30 107 34 108 37 109
REMARK SMILES IDX 31 110 32 111 35 112 33 113 59 114 60 115 68 116 61 117
REMARK SMILES IDX 62 118 66 119 69 120 63 121 64 122 67 123 65 124 44 125
REMARK SMILES IDX 45 126 53 127 46 128 47 129 51 130 54 131 48 132 49 133
REMARK SMILES IDX 52 134 50 135
REMARK H PARENT 11 2 11 3 10 5 10 6 9 8 9 9 8 13 5 15 93 27 89 29 90 31 1 33
REMARK H PARENT 1 34 82 39 86 41 83 43 85 44 84 45 12 47 12 48 13 50 13 51
REMARK H PARENT 14 53 14 54 15 57 19 63 80 65 20 67 79 68 78 78 72 80 74 82
REMARK H PARENT 77 84 71 85 39 94 42 96 75 99 40 100 76 102
REMARK Flexibility Score: inf
ROOT
ATOM      1  C   UNL A   1      38.181  22.402  25.744  1.00  0.00    -0.052 C 
ATOM      2  H   UNL A   1      38.241  22.027  26.744  1.00  0.00     0.027 H 
ATOM      3  H   UNL A   1      39.113  22.757  25.355  1.00  0.00     0.027 H 
ENDROOT
BRANCH   1   4
ATOM      4  C   UNL A   1      37.245  23.617  25.754  1.00  0.00    -0.036 C 
ATOM      5  H   UNL A   1      37.218  24.005  26.751  1.00  0.00     0.028 H 
ATOM      6  H   UNL A   1      37.644  24.304  25.038  1.00  0.00     0.028 H 
BRANCH   4   7
ATOM      7  C   UNL A   1      35.802  23.336  25.316  1.00  0.00     0.017 C 
ATOM      8  H   UNL A   1      35.316  24.269  25.119  1.00  0.00     0.049 H 
ATOM      9  H   UNL A   1      35.842  22.721  24.441  1.00  0.00     0.049 H 
BRANCH   7  10
ATOM     10  N   UNL A   1      35.043  22.619  26.326  1.00  0.00    -0.355 N 
ATOM     11  C   UNL A   1      34.136  21.596  26.214  1.00  0.00     0.238 C 
ATOM     12  O   UNL A   1      33.624  21.212  27.273  1.00  0.00    -0.273 OA
ATOM     13  H   UNL A   1      35.209  22.918  27.250  1.00  0.00     0.163 HD
BRANCH  11  14
ATOM     14  C   UNL A   1      33.825  20.942  24.855  1.00  0.00     0.116 C 
ATOM     15  H   UNL A   1      34.735  21.134  24.328  1.00  0.00     0.057 H 
BRANCH  14  16
ATOM     16  S   UNL A   1      32.520  21.764  23.926  1.00  0.00    -0.068 SA
BRANCH  16  17
ATOM     17  C   UNL A   1      32.007  23.247  24.674  1.00  0.00     0.191 A 
ATOM     18  N   UNL A   1      31.014  23.353  25.643  1.00  0.00    -0.202 N 
ATOM     19  C   UNL A   1      30.573  24.605  26.092  1.00  0.00     0.280 A 
ATOM     20  N   UNL A   1      32.727  24.263  24.307  1.00  0.00    -0.222 NA
ATOM     21  C   UNL A   1      31.443  25.745  25.764  1.00  0.00     0.069 A 
ATOM     22  O   UNL A   1      29.584  24.760  26.807  1.00  0.00    -0.267 OA
ATOM     23  C   UNL A   1      32.539  25.491  24.944  1.00  0.00     0.079 A 
ATOM     24  C   UNL A   1      31.274  26.984  26.390  1.00  0.00    -0.033 A 
ATOM     25  C   UNL A   1      33.517  26.478  24.801  1.00  0.00    -0.034 A 
ATOM     26  C   UNL A   1      32.255  27.960  26.231  1.00  0.00     0.018 A 
ATOM     27  H   UNL A   1      30.435  27.173  26.962  1.00  0.00     0.064 H 
ATOM     28  C   UNL A   1      33.385  27.707  25.454  1.00  0.00    -0.046 A 
ATOM     29  H   UNL A   1      34.343  26.298  24.210  1.00  0.00     0.065 H 
ATOM     30  Br  UNL A   1      32.081  29.620  27.114  1.00  0.00    -0.051 Br
ATOM     31  H   UNL A   1      34.122  28.423  25.361  1.00  0.00     0.064 H 
BRANCH  18  32
ATOM     32  N   UNL A   1      30.564  22.246  26.415  1.00  0.00    -0.334 N 
ATOM     33  H   UNL A   1      29.678  22.273  26.843  1.00  0.00     0.178 HD
ATOM     34  H   UNL A   1      31.140  21.455  26.521  1.00  0.00     0.178 HD
ENDBRANCH  18  32
ENDBRANCH  16  17
ENDBRANCH  14  16
BRANCH  14  35
ATOM     35  C   UNL A   1      33.779  19.415  24.784  1.00  0.00    -0.025 A 
ATOM     36  C   UNL A   1      32.541  18.767  24.976  1.00  0.00    -0.057 A 
ATOM     37  C   UNL A   1      34.897  18.602  24.539  1.00  0.00    -0.057 A 
ATOM     38  C   UNL A   1      32.430  17.374  24.910  1.00  0.00    -0.062 A 
ATOM     39  H   UNL A   1      31.701  19.333  25.167  1.00  0.00     0.063 H 
ATOM     40  C   UNL A   1      34.788  17.210  24.481  1.00  0.00    -0.062 A 
ATOM     41  H   UNL A   1      35.819  19.042  24.397  1.00  0.00     0.063 H 
ATOM     42  C   UNL A   1      33.555  16.595  24.666  1.00  0.00    -0.062 A 
ATOM     43  H   UNL A   1      31.510  16.926  25.045  1.00  0.00     0.062 H 
ATOM     44  H   UNL A   1      35.626  16.635  24.301  1.00  0.00     0.062 H 
ATOM     45  H   UNL A   1      33.474  15.567  24.622  1.00  0.00     0.062 H 
ENDBRANCH  14  35
ENDBRANCH  11  14
ENDBRANCH   7  10
ENDBRANCH   4   7
ENDBRANCH   1   4
BRANCH   1  46
ATOM     46  C   UNL A   1      37.761  21.246  24.832  1.00  0.00    -0.052 C 
ATOM     47  H   UNL A   1      37.910  21.554  23.819  1.00  0.00     0.027 H 
ATOM     48  H   UNL A   1      36.740  21.038  25.073  1.00  0.00     0.027 H 
BRANCH  46  49
ATOM     49  C   UNL A   1      38.521  19.937  25.046  1.00  0.00    -0.036 C 
ATOM     50  H   UNL A   1      39.040  19.703  24.139  1.00  0.00     0.028 H 
ATOM     51  H   UNL A   1      37.788  19.205  25.315  1.00  0.00     0.028 H 
BRANCH  49  52
ATOM     52  C   UNL A   1      39.537  19.963  26.180  1.00  0.00     0.018 C 
ATOM     53  H   UNL A   1      39.023  19.800  27.104  1.00  0.00     0.049 H 
ATOM     54  H   UNL A   1      40.020  20.917  26.160  1.00  0.00     0.049 H 
BRANCH  52  55
ATOM     55  N   UNL A   1      40.566  18.946  26.035  1.00  0.00    -0.352 N 
ATOM     56  C   UNL A   1      41.937  19.091  26.038  1.00  0.00     0.251 C 
ATOM     57  H   UNL A   1      40.238  18.025  25.918  1.00  0.00     0.163 HD
ATOM     58  O   UNL A   1      42.668  18.157  25.755  1.00  0.00    -0.269 OA
BRANCH  56  59
ATOM     59  C   UNL A   1      42.515  20.417  26.350  1.00  0.00     0.039 A 
ATOM     60  C   UNL A   1      42.515  20.898  27.662  1.00  0.00    -0.049 A 
ATOM     61  C   UNL A   1      43.011  21.204  25.309  1.00  0.00    -0.049 A 
ATOM     62  C   UNL A   1      42.854  22.224  27.906  1.00  0.00    -0.053 A 
ATOM     63  H   UNL A   1      42.266  20.272  28.444  1.00  0.00     0.063 H 
ATOM     64  C   UNL A   1      43.424  22.513  25.570  1.00  0.00    -0.053 A 
ATOM     65  H   UNL A   1      43.070  20.822  24.352  1.00  0.00     0.063 H 
ATOM     66  C   UNL A   1      43.305  23.049  26.862  1.00  0.00    -0.014 A 
ATOM     67  H   UNL A   1      42.776  22.605  28.862  1.00  0.00     0.063 H 
ATOM     68  H   UNL A   1      43.820  23.088  24.810  1.00  0.00     0.063 H 
BRANCH  66  69
ATOM     69  C   UNL A   1      43.643  24.469  27.137  1.00  0.00     0.031 A 
ATOM     70  C   UNL A   1      45.027  24.995  26.866  1.00  0.00     0.074 A 
ATOM     71  C   UNL A   1      42.688  25.294  27.604  1.00  0.00     0.049 A 
ATOM     72  N   UNL A   1      45.516  26.188  27.096  1.00  0.00    -0.248 NA
ATOM     73  C   UNL A   1      45.989  24.063  26.256  1.00  0.00    -0.034 C 
ATOM     74  C   UNL A   1      41.305  24.905  27.885  1.00  0.00    -0.036 A 
ATOM     75  N   UNL A   1      42.728  26.630  27.912  1.00  0.00    -0.354 N 
ATOM     76  C   UNL A   1      46.842  26.143  26.685  1.00  0.00     0.074 A 
ATOM     77  C   UNL A   1      47.090  24.803  26.200  1.00  0.00    -0.034 C 
ATOM     78  H   UNL A   1      45.846  23.088  25.952  1.00  0.00     0.065 H 
ATOM     79  C   UNL A   1      40.621  25.983  28.296  1.00  0.00    -0.036 A 
ATOM     80  H   UNL A   1      40.918  23.954  27.784  1.00  0.00     0.065 H 
ATOM     81  C   UNL A   1      41.530  27.123  28.368  1.00  0.00     0.049 A 
ATOM     82  H   UNL A   1      43.538  27.182  27.816  1.00  0.00     0.167 HD
ATOM     83  C   UNL A   1      47.763  27.135  26.707  1.00  0.00     0.037 A 
ATOM     84  H   UNL A   1      48.003  24.466  25.856  1.00  0.00     0.065 H 
ATOM     85  H   UNL A   1      39.614  26.003  28.525  1.00  0.00     0.065 H 
ATOM     86  C   UNL A   1      41.204  28.348  28.819  1.00  0.00     0.037 A 
ATOM     87  C   UNL A   1      47.506  28.476  27.165  1.00  0.00     0.049 A 
ATOM     88  C   UNL A   1      42.254  29.421  28.849  1.00  0.00     0.074 A 
ATOM     89  C   UNL A   1      48.380  29.550  27.223  1.00  0.00    -0.036 A 
ATOM     90  N   UNL A   1      46.283  28.931  27.633  1.00  0.00    -0.354 N 
ATOM     91  N   UNL A   1      43.509  29.359  28.478  1.00  0.00    -0.248 NA
ATOM     92  C   UNL A   1      41.844  30.734  29.366  1.00  0.00    -0.034 C 
ATOM     93  C   UNL A   1      47.694  30.645  27.755  1.00  0.00    -0.036 A 
ATOM     94  H   UNL A   1      49.368  29.543  26.926  1.00  0.00     0.065 H 
ATOM     95  C   UNL A   1      46.382  30.267  27.987  1.00  0.00     0.049 A 
ATOM     96  H   UNL A   1      45.467  28.385  27.705  1.00  0.00     0.167 HD
ATOM     97  C   UNL A   1      44.034  30.624  28.699  1.00  0.00     0.074 A 
ATOM     98  C   UNL A   1      42.957  31.439  29.220  1.00  0.00    -0.034 C 
ATOM     99  H   UNL A   1      40.930  31.030  29.745  1.00  0.00     0.065 H 
ATOM    100  H   UNL A   1      48.096  31.577  27.944  1.00  0.00     0.065 H 
ATOM    101  C   UNL A   1      45.297  31.067  28.493  1.00  0.00     0.037 A 
ATOM    102  H   UNL A   1      43.045  32.442  29.448  1.00  0.00     0.065 H 
BRANCH  83 103
ATOM    103  C   UNL A   1      49.151  26.825  26.228  1.00  0.00     0.064 A 
ATOM    104  C   UNL A   1      50.090  26.198  27.058  1.00  0.00     0.173 A 
ATOM    105  C   UNL A   1      49.508  27.060  24.891  1.00  0.00     0.173 A 
ATOM    106  F   UNL A   1      49.801  25.963  28.347  1.00  0.00    -0.203 F 
ATOM    107  C   UNL A   1      51.336  25.815  26.566  1.00  0.00     0.198 A 
ATOM    108  C   UNL A   1      50.745  26.656  24.397  1.00  0.00     0.198 A 
ATOM    109  F   UNL A   1      48.642  27.653  24.054  1.00  0.00    -0.203 F 
ATOM    110  F   UNL A   1      52.224  25.227  27.381  1.00  0.00    -0.200 F 
ATOM    111  C   UNL A   1      51.657  26.032  25.235  1.00  0.00     0.200 A 
ATOM    112  F   UNL A   1      51.049  26.856  23.107  1.00  0.00    -0.200 F 
ATOM    113  F   UNL A   1      52.846  25.639  24.758  1.00  0.00    -0.200 F 
ENDBRANCH  83 103
BRANCH  86 114
ATOM    114  C   UNL A   1      39.820  28.613  29.285  1.00  0.00     0.064 A 
ATOM    115  C   UNL A   1      39.449  28.377  30.615  1.00  0.00     0.173 A 
ATOM    116  C   UNL A   1      38.845  29.124  28.414  1.00  0.00     0.173 A 
ATOM    117  F   UNL A   1      40.339  27.869  31.479  1.00  0.00    -0.203 F 
ATOM    118  C   UNL A   1      38.151  28.632  31.055  1.00  0.00     0.198 A 
ATOM    119  C   UNL A   1      37.558  29.407  28.861  1.00  0.00     0.198 A 
ATOM    120  F   UNL A   1      39.154  29.369  27.133  1.00  0.00    -0.203 F 
ATOM    121  F   UNL A   1      37.811  28.365  32.323  1.00  0.00    -0.200 F 
ATOM    122  C   UNL A   1      37.210  29.156  30.180  1.00  0.00     0.200 A 
ATOM    123  F   UNL A   1      36.658  29.927  28.017  1.00  0.00    -0.200 F 
ATOM    124  F   UNL A   1      35.966  29.412  30.606  1.00  0.00    -0.200 F 
ENDBRANCH  86 114
BRANCH 101 125
ATOM    125  C   UNL A   1      45.577  32.509  28.798  1.00  0.00     0.064 A 
ATOM    126  C   UNL A   1      45.375  33.513  27.841  1.00  0.00     0.173 A 
ATOM    127  C   UNL A   1      46.012  32.890  30.075  1.00  0.00     0.173 A 
ATOM    128  F   UNL A   1      44.972  33.194  26.601  1.00  0.00    -0.203 F 
ATOM    129  C   UNL A   1      45.621  34.848  28.146  1.00  0.00     0.198 A 
ATOM    130  C   UNL A   1      46.232  34.230  30.384  1.00  0.00     0.198 A 
ATOM    131  F   UNL A   1      46.212  31.966  31.027  1.00  0.00    -0.203 F 
ATOM    132  F   UNL A   1      45.461  35.789  27.205  1.00  0.00    -0.200 F 
ATOM    133  C   UNL A   1      46.043  35.206  29.418  1.00  0.00     0.200 A 
ATOM    134  F   UNL A   1      46.629  34.575  31.617  1.00  0.00    -0.200 F 
ATOM    135  F   UNL A   1      46.273  36.493  29.712  1.00  0.00    -0.200 F 
ENDBRANCH 101 125
ENDBRANCH  66  69
ENDBRANCH  56  59
ENDBRANCH  52  55
ENDBRANCH  49  52
ENDBRANCH  46  49
ENDBRANCH   1  46
TORSDOF 17
ENDMDL
MODEL 6
REMARK VINA RESULT:     -13.0      1.837      4.180
REMARK SMILES Nn1c(S[C@@H](C(=O)NCCCCCCNC(=O)c2ccc(-c3c4nc(c(-c5c(F)c(F)c(F)c(F)c5F)c5ccc([nH]5)c(-c5c(F)c(F)c(F)c(F)c5F)c5nc(c(-c6c(F)c(F)c(F)c(F)c6F)c6ccc3[nH]6)C=C5)C=C4)cc2)c2ccccc2)nc2ccc(Br)cc2c1=O
REMARK SMILES IDX 11 1 10 4 9 7 8 10 6 11 7 12 5 14 4 16 3 17 2 18 95 19 87 20
REMARK SMILES IDX 94 21 96 22 88 23 93 24 89 25 91 26 90 28 92 30 1 32 81 35
REMARK SMILES IDX 82 36 86 37 83 38 85 40 84 42 12 46 13 49 14 52 15 55 16 56
REMARK SMILES IDX 17 58 18 59 19 60 80 61 20 62 79 64 21 66 22 69 23 70 73 71
REMARK SMILES IDX 24 72 78 73 72 74 74 75 25 76 77 77 71 79 70 81 26 83 58 86
REMARK SMILES IDX 38 87 57 88 39 89 42 90 56 91 75 92 40 93 41 95 55 97 76 98
REMARK SMILES IDX 43 101 27 103 28 104 36 105 29 106 30 107 34 108 37 109
REMARK SMILES IDX 31 110 32 111 35 112 33 113 59 114 60 115 68 116 61 117
REMARK SMILES IDX 62 118 66 119 69 120 63 121 64 122 67 123 65 124 44 125
REMARK SMILES IDX 45 126 53 127 46 128 47 129 51 130 54 131 48 132 49 133
REMARK SMILES IDX 52 134 50 135
REMARK H PARENT 11 2 11 3 10 5 10 6 9 8 9 9 8 13 5 15 93 27 89 29 90 31 1 33
REMARK H PARENT 1 34 82 39 86 41 83 43 85 44 84 45 12 47 12 48 13 50 13 51
REMARK H PARENT 14 53 14 54 15 57 19 63 80 65 20 67 79 68 78 78 72 80 74 82
REMARK H PARENT 77 84 71 85 39 94 42 96 75 99 40 100 76 102
REMARK Flexibility Score: inf
ROOT
ATOM      1  C   UNL A   1      32.612  29.797  27.115  1.00  0.00    -0.052 C 
ATOM      2  H   UNL A   1      32.853  30.419  27.952  1.00  0.00     0.027 H 
ATOM      3  H   UNL A   1      32.001  28.954  27.361  1.00  0.00     0.027 H 
ENDROOT
BRANCH   1   4
ATOM      4  C   UNL A   1      33.923  29.216  26.570  1.00  0.00    -0.036 C 
ATOM      5  H   UNL A   1      34.451  30.002  26.071  1.00  0.00     0.028 H 
ATOM      6  H   UNL A   1      34.445  28.820  27.415  1.00  0.00     0.028 H 
BRANCH   4   7
ATOM      7  C   UNL A   1      33.765  28.052  25.584  1.00  0.00     0.017 C 
ATOM      8  H   UNL A   1      33.051  28.330  24.838  1.00  0.00     0.049 H 
ATOM      9  H   UNL A   1      34.727  27.856  25.156  1.00  0.00     0.049 H 
BRANCH   7  10
ATOM     10  N   UNL A   1      33.313  26.833  26.231  1.00  0.00    -0.355 N 
ATOM     11  C   UNL A   1      33.323  25.529  25.804  1.00  0.00     0.238 C 
ATOM     12  O   UNL A   1      32.829  24.704  26.582  1.00  0.00    -0.273 OA
ATOM     13  H   UNL A   1      32.936  26.964  27.131  1.00  0.00     0.163 HD
BRANCH  11  14
ATOM     14  C   UNL A   1      33.960  25.127  24.461  1.00  0.00     0.116 C 
ATOM     15  H   UNL A   1      34.458  26.036  24.196  1.00  0.00     0.057 H 
BRANCH  14  16
ATOM     16  S   UNL A   1      32.769  24.803  23.151  1.00  0.00    -0.068 SA
BRANCH  16  17
ATOM     17  C   UNL A   1      31.404  25.877  23.215  1.00  0.00     0.191 A 
ATOM     18  N   UNL A   1      30.226  25.634  23.915  1.00  0.00    -0.202 N 
ATOM     19  C   UNL A   1      29.127  26.494  23.802  1.00  0.00     0.280 A 
ATOM     20  N   UNL A   1      31.631  27.005  22.614  1.00  0.00    -0.222 NA
ATOM     21  C   UNL A   1      29.405  27.814  23.213  1.00  0.00     0.069 A 
ATOM     22  O   UNL A   1      28.012  26.234  24.252  1.00  0.00    -0.267 OA
ATOM     23  C   UNL A   1      30.689  28.030  22.719  1.00  0.00     0.079 A 
ATOM     24  C   UNL A   1      28.477  28.855  23.308  1.00  0.00    -0.033 A 
ATOM     25  C   UNL A   1      31.068  29.328  22.374  1.00  0.00    -0.034 A 
ATOM     26  C   UNL A   1      28.869  30.143  22.951  1.00  0.00     0.018 A 
ATOM     27  H   UNL A   1      27.515  28.672  23.636  1.00  0.00     0.064 H 
ATOM     28  C   UNL A   1      30.166  30.389  22.502  1.00  0.00    -0.046 A 
ATOM     29  H   UNL A   1      32.021  29.507  22.022  1.00  0.00     0.065 H 
ATOM     30  Br  UNL A   1      27.653  31.578  23.126  1.00  0.00    -0.051 Br
ATOM     31  H   UNL A   1      30.460  31.349  22.265  1.00  0.00     0.064 H 
BRANCH  18  32
ATOM     32  N   UNL A   1      30.132  24.675  24.962  1.00  0.00    -0.334 N 
ATOM     33  H   UNL A   1      30.788  24.682  25.696  1.00  0.00     0.178 HD
ATOM     34  H   UNL A   1      29.411  24.005  24.952  1.00  0.00     0.178 HD
ENDBRANCH  18  32
ENDBRANCH  16  17
ENDBRANCH  14  16
BRANCH  14  35
ATOM     35  C   UNL A   1      35.144  24.160  24.487  1.00  0.00    -0.025 A 
ATOM     36  C   UNL A   1      35.925  24.078  25.659  1.00  0.00    -0.057 A 
ATOM     37  C   UNL A   1      35.514  23.336  23.412  1.00  0.00    -0.057 A 
ATOM     38  C   UNL A   1      37.012  23.204  25.751  1.00  0.00    -0.062 A 
ATOM     39  H   UNL A   1      35.687  24.676  26.465  1.00  0.00     0.063 H 
ATOM     40  C   UNL A   1      36.606  22.468  23.501  1.00  0.00    -0.062 A 
ATOM     41  H   UNL A   1      34.968  23.372  22.538  1.00  0.00     0.063 H 
ATOM     42  C   UNL A   1      37.355  22.400  24.670  1.00  0.00    -0.062 A 
ATOM     43  H   UNL A   1      37.561  23.156  26.624  1.00  0.00     0.062 H 
ATOM     44  H   UNL A   1      36.858  21.875  22.695  1.00  0.00     0.062 H 
ATOM     45  H   UNL A   1      38.160  21.758  24.735  1.00  0.00     0.062 H 
ENDBRANCH  14  35
ENDBRANCH  11  14
ENDBRANCH   7  10
ENDBRANCH   4   7
ENDBRANCH   1   4
BRANCH   1  46
ATOM     46  C   UNL A   1      31.793  30.632  26.129  1.00  0.00    -0.052 C 
ATOM     47  H   UNL A   1      30.867  30.126  25.957  1.00  0.00     0.027 H 
ATOM     48  H   UNL A   1      32.399  30.729  25.252  1.00  0.00     0.027 H 
BRANCH  46  49
ATOM     49  C   UNL A   1      31.477  32.056  26.583  1.00  0.00    -0.036 C 
ATOM     50  H   UNL A   1      30.612  32.020  27.212  1.00  0.00     0.028 H 
ATOM     51  H   UNL A   1      31.329  32.630  25.692  1.00  0.00     0.028 H 
BRANCH  49  52
ATOM     52  C   UNL A   1      32.595  32.745  27.355  1.00  0.00     0.018 C 
ATOM     53  H   UNL A   1      33.496  32.685  26.781  1.00  0.00     0.049 H 
ATOM     54  H   UNL A   1      32.692  32.248  28.297  1.00  0.00     0.049 H 
BRANCH  52  55
ATOM     55  N   UNL A   1      32.310  34.146  27.626  1.00  0.00    -0.352 N 
ATOM     56  C   UNL A   1      32.903  34.992  28.537  1.00  0.00     0.251 C 
ATOM     57  H   UNL A   1      31.592  34.545  27.083  1.00  0.00     0.163 HD
ATOM     58  O   UNL A   1      32.451  36.105  28.750  1.00  0.00    -0.269 OA
BRANCH  56  59
ATOM     59  C   UNL A   1      34.084  34.516  29.292  1.00  0.00     0.039 A 
ATOM     60  C   UNL A   1      35.353  34.536  28.708  1.00  0.00    -0.049 A 
ATOM     61  C   UNL A   1      33.904  33.996  30.576  1.00  0.00    -0.049 A 
ATOM     62  C   UNL A   1      36.408  33.886  29.338  1.00  0.00    -0.053 A 
ATOM     63  H   UNL A   1      35.506  35.032  27.816  1.00  0.00     0.063 H 
ATOM     64  C   UNL A   1      34.986  33.410  31.240  1.00  0.00    -0.053 A 
ATOM     65  H   UNL A   1      32.979  34.043  31.030  1.00  0.00     0.063 H 
ATOM     66  C   UNL A   1      36.234  33.309  30.607  1.00  0.00    -0.014 A 
ATOM     67  H   UNL A   1      37.326  33.827  28.870  1.00  0.00     0.063 H 
ATOM     68  H   UNL A   1      34.866  33.053  32.201  1.00  0.00     0.063 H 
BRANCH  66  69
ATOM     69  C   UNL A   1      37.366  32.600  31.256  1.00  0.00     0.031 A 
ATOM     70  C   UNL A   1      38.094  31.494  30.539  1.00  0.00     0.074 A 
ATOM     71  C   UNL A   1      37.760  32.978  32.487  1.00  0.00     0.049 A 
ATOM     72  N   UNL A   1      39.066  30.730  30.971  1.00  0.00    -0.248 NA
ATOM     73  C   UNL A   1      37.678  31.207  29.157  1.00  0.00    -0.034 C 
ATOM     74  C   UNL A   1      37.147  34.049  33.274  1.00  0.00    -0.036 A 
ATOM     75  N   UNL A   1      38.773  32.514  33.288  1.00  0.00    -0.354 N 
ATOM     76  C   UNL A   1      39.360  29.860  29.929  1.00  0.00     0.074 A 
ATOM     77  C   UNL A   1      38.458  30.180  28.844  1.00  0.00    -0.034 C 
ATOM     78  H   UNL A   1      36.966  31.681  28.580  1.00  0.00     0.065 H 
ATOM     79  C   UNL A   1      37.813  34.182  34.430  1.00  0.00    -0.036 A 
ATOM     80  H   UNL A   1      36.332  34.613  32.985  1.00  0.00     0.065 H 
ATOM     81  C   UNL A   1      38.858  33.164  34.494  1.00  0.00     0.049 A 
ATOM     82  H   UNL A   1      39.379  31.785  33.022  1.00  0.00     0.167 HD
ATOM     83  C   UNL A   1      40.302  28.889  29.884  1.00  0.00     0.037 A 
ATOM     84  H   UNL A   1      38.424  29.674  27.944  1.00  0.00     0.065 H 
ATOM     85  H   UNL A   1      37.619  34.888  35.157  1.00  0.00     0.065 H 
ATOM     86  C   UNL A   1      39.670  32.951  35.546  1.00  0.00     0.037 A 
ATOM     87  C   UNL A   1      41.217  28.591  30.956  1.00  0.00     0.049 A 
ATOM     88  C   UNL A   1      40.691  31.852  35.473  1.00  0.00     0.074 A 
ATOM     89  C   UNL A   1      42.208  27.624  31.000  1.00  0.00    -0.036 A 
ATOM     90  N   UNL A   1      41.262  29.263  32.168  1.00  0.00    -0.354 N 
ATOM     91  N   UNL A   1      40.944  31.024  34.490  1.00  0.00    -0.248 NA
ATOM     92  C   UNL A   1      41.538  31.656  36.658  1.00  0.00    -0.034 C 
ATOM     93  C   UNL A   1      42.831  27.691  32.250  1.00  0.00    -0.036 A 
ATOM     94  H   UNL A   1      42.445  26.966  30.242  1.00  0.00     0.065 H 
ATOM     95  C   UNL A   1      42.258  28.728  32.967  1.00  0.00     0.049 A 
ATOM     96  H   UNL A   1      40.671  30.009  32.422  1.00  0.00     0.167 HD
ATOM     97  C   UNL A   1      41.986  30.220  34.928  1.00  0.00     0.074 A 
ATOM     98  C   UNL A   1      42.332  30.672  36.259  1.00  0.00    -0.034 C 
ATOM     99  H   UNL A   1      41.518  32.152  37.563  1.00  0.00     0.065 H 
ATOM    100  H   UNL A   1      43.587  27.073  32.582  1.00  0.00     0.065 H 
ATOM    101  C   UNL A   1      42.598  29.197  34.285  1.00  0.00     0.037 A 
ATOM    102  H   UNL A   1      43.100  30.279  36.826  1.00  0.00     0.065 H 
BRANCH  83 103
ATOM    103  C   UNL A   1      40.406  28.057  28.640  1.00  0.00     0.064 A 
ATOM    104  C   UNL A   1      41.210  28.450  27.561  1.00  0.00     0.173 A 
ATOM    105  C   UNL A   1      39.780  26.803  28.571  1.00  0.00     0.173 A 
ATOM    106  F   UNL A   1      41.821  29.644  27.574  1.00  0.00    -0.203 F 
ATOM    107  C   UNL A   1      41.386  27.615  26.459  1.00  0.00     0.198 A 
ATOM    108  C   UNL A   1      39.975  25.962  27.479  1.00  0.00     0.198 A 
ATOM    109  F   UNL A   1      39.004  26.379  29.581  1.00  0.00    -0.203 F 
ATOM    110  F   UNL A   1      42.151  28.015  25.433  1.00  0.00    -0.200 F 
ATOM    111  C   UNL A   1      40.780  26.369  26.425  1.00  0.00     0.200 A 
ATOM    112  F   UNL A   1      39.398  24.753  27.453  1.00  0.00    -0.200 F 
ATOM    113  F   UNL A   1      40.971  25.557  25.376  1.00  0.00    -0.200 F 
ENDBRANCH  83 103
BRANCH  86 114
ATOM    114  C   UNL A   1      39.534  33.795  36.759  1.00  0.00     0.064 A 
ATOM    115  C   UNL A   1      40.188  35.030  36.857  1.00  0.00     0.173 A 
ATOM    116  C   UNL A   1      38.733  33.392  37.839  1.00  0.00     0.173 A 
ATOM    117  F   UNL A   1      40.981  35.448  35.860  1.00  0.00    -0.203 F 
ATOM    118  C   UNL A   1      40.054  35.826  37.992  1.00  0.00     0.198 A 
ATOM    119  C   UNL A   1      38.576  34.201  38.960  1.00  0.00     0.198 A 
ATOM    120  F   UNL A   1      38.084  32.219  37.791  1.00  0.00    -0.203 F 
ATOM    121  F   UNL A   1      40.719  36.987  38.076  1.00  0.00    -0.200 F 
ATOM    122  C   UNL A   1      39.242  35.415  39.039  1.00  0.00     0.200 A 
ATOM    123  F   UNL A   1      37.778  33.807  39.961  1.00  0.00    -0.200 F 
ATOM    124  F   UNL A   1      39.104  36.186  40.126  1.00  0.00    -0.200 F 
ENDBRANCH  86 114
BRANCH 101 125
ATOM    125  C   UNL A   1      43.728  28.517  34.998  1.00  0.00     0.064 A 
ATOM    126  C   UNL A   1      43.514  27.393  35.807  1.00  0.00     0.173 A 
ATOM    127  C   UNL A   1      45.044  28.971  34.833  1.00  0.00     0.173 A 
ATOM    128  F   UNL A   1      42.270  26.929  36.005  1.00  0.00    -0.203 F 
ATOM    129  C   UNL A   1      44.576  26.760  36.446  1.00  0.00     0.198 A 
ATOM    130  C   UNL A   1      46.107  28.321  35.453  1.00  0.00     0.198 A 
ATOM    131  F   UNL A   1      45.301  30.038  34.062  1.00  0.00    -0.203 F 
ATOM    132  F   UNL A   1      44.345  25.712  37.249  1.00  0.00    -0.200 F 
ATOM    133  C   UNL A   1      45.872  27.221  36.263  1.00  0.00     0.200 A 
ATOM    134  F   UNL A   1      47.361  28.760  35.266  1.00  0.00    -0.200 F 
ATOM    135  F   UNL A   1      46.895  26.607  36.874  1.00  0.00    -0.200 F 
ENDBRANCH 101 125
ENDBRANCH  66  69
ENDBRANCH  56  59
ENDBRANCH  52  55
ENDBRANCH  49  52
ENDBRANCH  46  49
ENDBRANCH   1  46
TORSDOF 17
ENDMDL
MODEL 7
REMARK VINA RESULT:     -12.9      5.633      9.739
REMARK SMILES Nn1c(S[C@@H](C(=O)NCCCCCCNC(=O)c2ccc(-c3c4nc(c(-c5c(F)c(F)c(F)c(F)c5F)c5ccc([nH]5)c(-c5c(F)c(F)c(F)c(F)c5F)c5nc(c(-c6c(F)c(F)c(F)c(F)c6F)c6ccc3[nH]6)C=C5)C=C4)cc2)c2ccccc2)nc2ccc(Br)cc2c1=O
REMARK SMILES IDX 11 1 10 4 9 7 8 10 6 11 7 12 5 14 4 16 3 17 2 18 95 19 87 20
REMARK SMILES IDX 94 21 96 22 88 23 93 24 89 25 91 26 90 28 92 30 1 32 81 35
REMARK SMILES IDX 82 36 86 37 83 38 85 40 84 42 12 46 13 49 14 52 15 55 16 56
REMARK SMILES IDX 17 58 18 59 19 60 80 61 20 62 79 64 21 66 22 69 23 70 73 71
REMARK SMILES IDX 24 72 78 73 72 74 74 75 25 76 77 77 71 79 70 81 26 83 58 86
REMARK SMILES IDX 38 87 57 88 39 89 42 90 56 91 75 92 40 93 41 95 55 97 76 98
REMARK SMILES IDX 43 101 27 103 28 104 36 105 29 106 30 107 34 108 37 109
REMARK SMILES IDX 31 110 32 111 35 112 33 113 59 114 60 115 68 116 61 117
REMARK SMILES IDX 62 118 66 119 69 120 63 121 64 122 67 123 65 124 44 125
REMARK SMILES IDX 45 126 53 127 46 128 47 129 51 130 54 131 48 132 49 133
REMARK SMILES IDX 52 134 50 135
REMARK H PARENT 11 2 11 3 10 5 10 6 9 8 9 9 8 13 5 15 93 27 89 29 90 31 1 33
REMARK H PARENT 1 34 82 39 86 41 83 43 85 44 84 45 12 47 12 48 13 50 13 51
REMARK H PARENT 14 53 14 54 15 57 19 63 80 65 20 67 79 68 78 78 72 80 74 82
REMARK H PARENT 77 84 71 85 39 94 42 96 75 99 40 100 76 102
REMARK Flexibility Score: inf
ROOT
ATOM      1  C   UNL A   1      37.123  22.043  24.658  1.00  0.00    -0.052 C 
ATOM      2  H   UNL A   1      38.104  22.132  24.242  1.00  0.00     0.027 H 
ATOM      3  H   UNL A   1      36.338  22.310  23.982  1.00  0.00     0.027 H 
ENDROOT
BRANCH   1   4
ATOM      4  C   UNL A   1      37.018  23.030  25.828  1.00  0.00    -0.036 C 
ATOM      5  H   UNL A   1      37.233  22.496  26.731  1.00  0.00     0.028 H 
ATOM      6  H   UNL A   1      37.716  23.813  25.617  1.00  0.00     0.028 H 
BRANCH   4   7
ATOM      7  C   UNL A   1      35.653  23.709  25.993  1.00  0.00     0.017 C 
ATOM      8  H   UNL A   1      34.914  22.956  26.170  1.00  0.00     0.049 H 
ATOM      9  H   UNL A   1      35.727  24.390  26.816  1.00  0.00     0.049 H 
BRANCH   7  10
ATOM     10  N   UNL A   1      35.268  24.475  24.820  1.00  0.00    -0.355 N 
ATOM     11  C   UNL A   1      34.132  25.194  24.547  1.00  0.00     0.238 C 
ATOM     12  O   UNL A   1      34.082  25.717  23.427  1.00  0.00    -0.273 OA
ATOM     13  H   UNL A   1      35.937  24.480  24.098  1.00  0.00     0.163 HD
BRANCH  11  14
ATOM     14  C   UNL A   1      33.020  25.372  25.597  1.00  0.00     0.116 C 
ATOM     15  H   UNL A   1      33.448  24.856  26.431  1.00  0.00     0.057 H 
BRANCH  14  16
ATOM     16  S   UNL A   1      31.491  24.509  25.201  1.00  0.00    -0.068 SA
BRANCH  16  17
ATOM     17  C   UNL A   1      31.774  22.957  24.471  1.00  0.00     0.191 A 
ATOM     18  N   UNL A   1      31.850  22.719  23.102  1.00  0.00    -0.202 N 
ATOM     19  C   UNL A   1      31.948  21.415  22.600  1.00  0.00     0.280 A 
ATOM     20  N   UNL A   1      32.016  22.032  25.349  1.00  0.00    -0.222 NA
ATOM     21  C   UNL A   1      32.324  20.380  23.576  1.00  0.00     0.069 A 
ATOM     22  O   UNL A   1      31.838  21.137  21.406  1.00  0.00    -0.267 OA
ATOM     23  C   UNL A   1      32.421  20.771  24.909  1.00  0.00     0.079 A 
ATOM     24  C   UNL A   1      32.733  19.110  23.158  1.00  0.00    -0.033 A 
ATOM     25  C   UNL A   1      33.001  19.894  25.828  1.00  0.00    -0.034 A 
ATOM     26  C   UNL A   1      33.302  18.244  24.089  1.00  0.00     0.018 A 
ATOM     27  H   UNL A   1      32.616  18.818  22.174  1.00  0.00     0.064 H 
ATOM     28  C   UNL A   1      33.454  18.636  25.419  1.00  0.00    -0.046 A 
ATOM     29  H   UNL A   1      33.095  20.175  26.816  1.00  0.00     0.065 H 
ATOM     30  Br  UNL A   1      33.918  16.546  23.539  1.00  0.00    -0.051 Br
ATOM     31  H   UNL A   1      33.901  18.001  26.099  1.00  0.00     0.064 H 
BRANCH  18  32
ATOM     32  N   UNL A   1      32.086  23.748  22.149  1.00  0.00    -0.334 N 
ATOM     33  H   UNL A   1      32.998  24.091  22.011  1.00  0.00     0.178 HD
ATOM     34  H   UNL A   1      31.337  24.117  21.628  1.00  0.00     0.178 HD
ENDBRANCH  18  32
ENDBRANCH  16  17
ENDBRANCH  14  16
BRANCH  14  35
ATOM     35  C   UNL A   1      32.818  26.761  26.204  1.00  0.00    -0.025 A 
ATOM     36  C   UNL A   1      33.857  27.708  26.085  1.00  0.00    -0.057 A 
ATOM     37  C   UNL A   1      31.657  27.166  26.880  1.00  0.00    -0.057 A 
ATOM     38  C   UNL A   1      33.730  28.999  26.606  1.00  0.00    -0.062 A 
ATOM     39  H   UNL A   1      34.729  27.441  25.602  1.00  0.00     0.063 H 
ATOM     40  C   UNL A   1      31.532  28.455  27.408  1.00  0.00    -0.062 A 
ATOM     41  H   UNL A   1      30.877  26.499  26.988  1.00  0.00     0.063 H 
ATOM     42  C   UNL A   1      32.567  29.372  27.271  1.00  0.00    -0.062 A 
ATOM     43  H   UNL A   1      34.501  29.676  26.497  1.00  0.00     0.062 H 
ATOM     44  H   UNL A   1      30.668  28.726  27.902  1.00  0.00     0.062 H 
ATOM     45  H   UNL A   1      32.474  30.323  27.659  1.00  0.00     0.062 H 
ENDBRANCH  14  35
ENDBRANCH  11  14
ENDBRANCH   7  10
ENDBRANCH   4   7
ENDBRANCH   1   4
BRANCH   1  46
ATOM     46  C   UNL A   1      36.891  20.571  25.007  1.00  0.00    -0.052 C 
ATOM     47  H   UNL A   1      36.114  20.200  24.373  1.00  0.00     0.027 H 
ATOM     48  H   UNL A   1      36.645  20.551  26.048  1.00  0.00     0.027 H 
BRANCH  46  49
ATOM     49  C   UNL A   1      38.109  19.662  24.843  1.00  0.00    -0.036 C 
ATOM     50  H   UNL A   1      38.415  19.699  23.818  1.00  0.00     0.028 H 
ATOM     51  H   UNL A   1      37.800  18.686  25.157  1.00  0.00     0.028 H 
BRANCH  49  52
ATOM     52  C   UNL A   1      39.306  20.032  25.709  1.00  0.00     0.018 C 
ATOM     53  H   UNL A   1      38.955  20.294  26.685  1.00  0.00     0.049 H 
ATOM     54  H   UNL A   1      39.807  20.850  25.236  1.00  0.00     0.049 H 
BRANCH  52  55
ATOM     55  N   UNL A   1      40.264  18.945  25.836  1.00  0.00    -0.352 N 
ATOM     56  C   UNL A   1      41.621  19.007  26.067  1.00  0.00     0.251 C 
ATOM     57  H   UNL A   1      39.891  18.039  25.745  1.00  0.00     0.163 HD
ATOM     58  O   UNL A   1      42.317  18.007  26.000  1.00  0.00    -0.269 OA
BRANCH  56  59
ATOM     59  C   UNL A   1      42.238  20.320  26.358  1.00  0.00     0.039 A 
ATOM     60  C   UNL A   1      42.292  20.801  27.669  1.00  0.00    -0.049 A 
ATOM     61  C   UNL A   1      42.717  21.095  25.301  1.00  0.00    -0.049 A 
ATOM     62  C   UNL A   1      42.668  22.119  27.901  1.00  0.00    -0.053 A 
ATOM     63  H   UNL A   1      42.055  20.181  28.459  1.00  0.00     0.063 H 
ATOM     64  C   UNL A   1      43.167  22.396  25.547  1.00  0.00    -0.053 A 
ATOM     65  H   UNL A   1      42.737  20.712  24.343  1.00  0.00     0.063 H 
ATOM     66  C   UNL A   1      43.102  22.934  26.842  1.00  0.00    -0.014 A 
ATOM     67  H   UNL A   1      42.629  22.502  28.859  1.00  0.00     0.063 H 
ATOM     68  H   UNL A   1      43.551  22.961  24.774  1.00  0.00     0.063 H 
BRANCH  66  69
ATOM     69  C   UNL A   1      43.480  24.346  27.104  1.00  0.00     0.031 A 
ATOM     70  C   UNL A   1      44.876  24.833  26.819  1.00  0.00     0.074 A 
ATOM     71  C   UNL A   1      42.551  25.200  27.571  1.00  0.00     0.049 A 
ATOM     72  N   UNL A   1      45.398  26.014  27.037  1.00  0.00    -0.248 NA
ATOM     73  C   UNL A   1      45.808  23.871  26.209  1.00  0.00    -0.034 C 
ATOM     74  C   UNL A   1      41.160  24.850  27.866  1.00  0.00    -0.036 A 
ATOM     75  N   UNL A   1      42.629  26.536  27.870  1.00  0.00    -0.354 N 
ATOM     76  C   UNL A   1      46.720  25.931  26.617  1.00  0.00     0.074 A 
ATOM     77  C   UNL A   1      46.927  24.581  26.140  1.00  0.00    -0.034 C 
ATOM     78  H   UNL A   1      45.637  22.898  25.913  1.00  0.00     0.065 H 
ATOM     79  C   UNL A   1      40.508  25.949  28.274  1.00  0.00    -0.036 A 
ATOM     80  H   UNL A   1      40.747  23.909  27.774  1.00  0.00     0.065 H 
ATOM     81  C   UNL A   1      41.448  27.064  28.331  1.00  0.00     0.049 A 
ATOM     82  H   UNL A   1      43.453  27.066  27.764  1.00  0.00     0.167 HD
ATOM     83  C   UNL A   1      47.667  26.898  26.625  1.00  0.00     0.037 A 
ATOM     84  H   UNL A   1      47.829  24.217  25.791  1.00  0.00     0.065 H 
ATOM     85  H   UNL A   1      39.504  25.998  28.510  1.00  0.00     0.065 H 
ATOM     86  C   UNL A   1      41.158  28.301  28.775  1.00  0.00     0.037 A 
ATOM     87  C   UNL A   1      47.450  28.249  27.075  1.00  0.00     0.049 A 
ATOM     88  C   UNL A   1      42.237  29.346  28.790  1.00  0.00     0.074 A 
ATOM     89  C   UNL A   1      48.351  29.299  27.119  1.00  0.00    -0.036 A 
ATOM     90  N   UNL A   1      46.243  28.740  27.549  1.00  0.00    -0.354 N 
ATOM     91  N   UNL A   1      43.487  29.248  28.410  1.00  0.00    -0.248 NA
ATOM     92  C   UNL A   1      41.866  30.673  29.301  1.00  0.00    -0.034 C 
ATOM     93  C   UNL A   1      47.699  30.416  27.648  1.00  0.00    -0.036 A 
ATOM     94  H   UNL A   1      49.337  29.263  26.815  1.00  0.00     0.065 H 
ATOM     95  C   UNL A   1      46.379  30.075  27.893  1.00  0.00     0.049 A 
ATOM     96  H   UNL A   1      45.413  28.216  27.630  1.00  0.00     0.167 HD
ATOM     97  C   UNL A   1      44.047  30.499  28.619  1.00  0.00     0.074 A 
ATOM     98  C   UNL A   1      42.996  31.347  29.141  1.00  0.00    -0.034 C 
ATOM     99  H   UNL A   1      40.963  30.995  29.683  1.00  0.00     0.065 H 
ATOM    100  H   UNL A   1      48.127  31.338  27.827  1.00  0.00     0.065 H 
ATOM    101  C   UNL A   1      45.320  30.907  28.400  1.00  0.00     0.037 A 
ATOM    102  H   UNL A   1      43.112  32.348  29.362  1.00  0.00     0.065 H 
BRANCH  83 103
ATOM    103  C   UNL A   1      49.042  26.548  26.138  1.00  0.00     0.064 A 
ATOM    104  C   UNL A   1      49.448  26.828  24.826  1.00  0.00     0.173 A 
ATOM    105  C   UNL A   1      49.997  26.028  27.026  1.00  0.00     0.173 A 
ATOM    106  F   UNL A   1      48.570  27.315  23.937  1.00  0.00    -0.203 F 
ATOM    107  C   UNL A   1      50.762  26.601  24.420  1.00  0.00     0.198 A 
ATOM    108  C   UNL A   1      51.314  25.823  26.623  1.00  0.00     0.198 A 
ATOM    109  F   UNL A   1      49.660  25.748  28.294  1.00  0.00    -0.203 F 
ATOM    110  F   UNL A   1      51.126  26.865  23.158  1.00  0.00    -0.200 F 
ATOM    111  C   UNL A   1      51.696  26.112  25.321  1.00  0.00     0.200 A 
ATOM    112  F   UNL A   1      52.218  25.361  27.498  1.00  0.00    -0.200 F 
ATOM    113  F   UNL A   1      52.964  25.919  24.936  1.00  0.00    -0.200 F 
ENDBRANCH  83 103
BRANCH  86 114
ATOM    114  C   UNL A   1      39.785  28.606  29.250  1.00  0.00     0.064 A 
ATOM    115  C   UNL A   1      38.819  29.125  28.378  1.00  0.00     0.173 A 
ATOM    116  C   UNL A   1      39.407  28.369  30.580  1.00  0.00     0.173 A 
ATOM    117  F   UNL A   1      39.139  29.389  27.103  1.00  0.00    -0.203 F 
ATOM    118  C   UNL A   1      37.528  29.404  28.821  1.00  0.00     0.198 A 
ATOM    119  C   UNL A   1      38.109  28.620  31.015  1.00  0.00     0.198 A 
ATOM    120  F   UNL A   1      40.296  27.870  31.451  1.00  0.00    -0.203 F 
ATOM    121  F   UNL A   1      36.632  29.933  27.978  1.00  0.00    -0.200 F 
ATOM    122  C   UNL A   1      37.172  29.143  30.137  1.00  0.00     0.200 A 
ATOM    123  F   UNL A   1      37.766  28.351  32.281  1.00  0.00    -0.200 F 
ATOM    124  F   UNL A   1      35.927  29.401  30.560  1.00  0.00    -0.200 F 
ENDBRANCH  86 114
BRANCH 101 125
ATOM    125  C   UNL A   1      45.641  32.343  28.692  1.00  0.00     0.064 A 
ATOM    126  C   UNL A   1      45.460  33.345  27.730  1.00  0.00     0.173 A 
ATOM    127  C   UNL A   1      46.094  32.722  29.964  1.00  0.00     0.173 A 
ATOM    128  F   UNL A   1      45.040  33.028  26.495  1.00  0.00    -0.203 F 
ATOM    129  C   UNL A   1      45.743  34.676  28.023  1.00  0.00     0.198 A 
ATOM    130  C   UNL A   1      46.352  34.057  30.262  1.00  0.00     0.198 A 
ATOM    131  F   UNL A   1      46.275  31.800  30.921  1.00  0.00    -0.203 F 
ATOM    132  F   UNL A   1      45.603  35.613  27.076  1.00  0.00    -0.200 F 
ATOM    133  C   UNL A   1      46.183  35.031  29.290  1.00  0.00     0.200 A 
ATOM    134  F   UNL A   1      46.766  34.400  31.490  1.00  0.00    -0.200 F 
ATOM    135  F   UNL A   1      46.450  36.313  29.573  1.00  0.00    -0.200 F 
ENDBRANCH 101 125
ENDBRANCH  66  69
ENDBRANCH  56  59
ENDBRANCH  52  55
ENDBRANCH  49  52
ENDBRANCH  46  49
ENDBRANCH   1  46
TORSDOF 17
ENDMDL
MODEL 8
REMARK VINA RESULT:     -12.9      1.982      8.065
REMARK SMILES Nn1c(S[C@@H](C(=O)NCCCCCCNC(=O)c2ccc(-c3c4nc(c(-c5c(F)c(F)c(F)c(F)c5F)c5ccc([nH]5)c(-c5c(F)c(F)c(F)c(F)c5F)c5nc(c(-c6c(F)c(F)c(F)c(F)c6F)c6ccc3[nH]6)C=C5)C=C4)cc2)c2ccccc2)nc2ccc(Br)cc2c1=O
REMARK SMILES IDX 11 1 10 4 9 7 8 10 6 11 7 12 5 14 4 16 3 17 2 18 95 19 87 20
REMARK SMILES IDX 94 21 96 22 88 23 93 24 89 25 91 26 90 28 92 30 1 32 81 35
REMARK SMILES IDX 82 36 86 37 83 38 85 40 84 42 12 46 13 49 14 52 15 55 16 56
REMARK SMILES IDX 17 58 18 59 19 60 80 61 20 62 79 64 21 66 22 69 23 70 73 71
REMARK SMILES IDX 24 72 78 73 72 74 74 75 25 76 77 77 71 79 70 81 26 83 58 86
REMARK SMILES IDX 38 87 57 88 39 89 42 90 56 91 75 92 40 93 41 95 55 97 76 98
REMARK SMILES IDX 43 101 27 103 28 104 36 105 29 106 30 107 34 108 37 109
REMARK SMILES IDX 31 110 32 111 35 112 33 113 59 114 60 115 68 116 61 117
REMARK SMILES IDX 62 118 66 119 69 120 63 121 64 122 67 123 65 124 44 125
REMARK SMILES IDX 45 126 53 127 46 128 47 129 51 130 54 131 48 132 49 133
REMARK SMILES IDX 52 134 50 135
REMARK H PARENT 11 2 11 3 10 5 10 6 9 8 9 9 8 13 5 15 93 27 89 29 90 31 1 33
REMARK H PARENT 1 34 82 39 86 41 83 43 85 44 84 45 12 47 12 48 13 50 13 51
REMARK H PARENT 14 53 14 54 15 57 19 63 80 65 20 67 79 68 78 78 72 80 74 82
REMARK H PARENT 77 84 71 85 39 94 42 96 75 99 40 100 76 102
REMARK Flexibility Score: inf
ROOT
ATOM      1  C   UNL A   1      32.309  29.427  26.669  1.00  0.00    -0.052 C 
ATOM      2  H   UNL A   1      33.294  29.220  26.306  1.00  0.00     0.027 H 
ATOM      3  H   UNL A   1      32.276  29.707  27.701  1.00  0.00     0.027 H 
ENDROOT
BRANCH   1   4
ATOM      4  C   UNL A   1      31.490  28.135  26.561  1.00  0.00    -0.036 C 
ATOM      5  H   UNL A   1      30.887  28.051  27.441  1.00  0.00     0.028 H 
ATOM      6  H   UNL A   1      30.921  28.220  25.659  1.00  0.00     0.028 H 
BRANCH   4   7
ATOM      7  C   UNL A   1      32.311  26.847  26.426  1.00  0.00     0.017 C 
ATOM      8  H   UNL A   1      32.497  26.666  25.388  1.00  0.00     0.049 H 
ATOM      9  H   UNL A   1      33.222  26.983  26.971  1.00  0.00     0.049 H 
BRANCH   7  10
ATOM     10  N   UNL A   1      31.630  25.692  26.986  1.00  0.00    -0.355 N 
ATOM     11  C   UNL A   1      31.420  24.435  26.477  1.00  0.00     0.238 C 
ATOM     12  O   UNL A   1      30.764  23.668  27.191  1.00  0.00    -0.273 OA
ATOM     13  H   UNL A   1      31.255  25.835  27.885  1.00  0.00     0.163 HD
BRANCH  11  14
ATOM     14  C   UNL A   1      32.015  24.006  25.123  1.00  0.00     0.116 C 
ATOM     15  H   UNL A   1      32.849  24.671  25.051  1.00  0.00     0.057 H 
BRANCH  14  16
ATOM     16  S   UNL A   1      30.959  24.366  23.710  1.00  0.00    -0.068 SA
BRANCH  16  17
ATOM     17  C   UNL A   1      30.831  26.070  23.394  1.00  0.00     0.191 A 
ATOM     18  N   UNL A   1      31.846  26.865  22.869  1.00  0.00    -0.202 N 
ATOM     19  C   UNL A   1      31.699  28.255  22.773  1.00  0.00     0.280 A 
ATOM     20  N   UNL A   1      29.635  26.526  23.606  1.00  0.00    -0.222 NA
ATOM     21  C   UNL A   1      30.325  28.764  22.911  1.00  0.00     0.069 A 
ATOM     22  O   UNL A   1      32.621  29.017  22.487  1.00  0.00    -0.267 OA
ATOM     23  C   UNL A   1      29.337  27.841  23.243  1.00  0.00     0.079 A 
ATOM     24  C   UNL A   1      30.004  30.076  22.553  1.00  0.00    -0.033 A 
ATOM     25  C   UNL A   1      27.998  28.225  23.151  1.00  0.00    -0.034 A 
ATOM     26  C   UNL A   1      28.663  30.446  22.474  1.00  0.00     0.018 A 
ATOM     27  H   UNL A   1      30.749  30.763  22.350  1.00  0.00     0.064 H 
ATOM     28  C   UNL A   1      27.658  29.521  22.753  1.00  0.00    -0.046 A 
ATOM     29  H   UNL A   1      27.254  27.547  23.378  1.00  0.00     0.065 H 
ATOM     30  Br  UNL A   1      28.201  32.196  21.934  1.00  0.00    -0.051 Br
ATOM     31  H   UNL A   1      26.666  29.792  22.666  1.00  0.00     0.064 H 
BRANCH  18  32
ATOM     32  N   UNL A   1      32.967  26.331  22.174  1.00  0.00    -0.334 N 
ATOM     33  H   UNL A   1      33.001  26.371  21.191  1.00  0.00     0.178 HD
ATOM     34  H   UNL A   1      33.707  25.921  22.677  1.00  0.00     0.178 HD
ENDBRANCH  18  32
ENDBRANCH  16  17
ENDBRANCH  14  16
BRANCH  14  35
ATOM     35  C   UNL A   1      32.729  22.656  25.045  1.00  0.00    -0.025 A 
ATOM     36  C   UNL A   1      32.062  21.573  24.434  1.00  0.00    -0.057 A 
ATOM     37  C   UNL A   1      34.018  22.414  25.546  1.00  0.00    -0.057 A 
ATOM     38  C   UNL A   1      32.665  20.317  24.320  1.00  0.00    -0.062 A 
ATOM     39  H   UNL A   1      31.110  21.713  24.063  1.00  0.00     0.063 H 
ATOM     40  C   UNL A   1      34.618  21.156  25.439  1.00  0.00    -0.062 A 
ATOM     41  H   UNL A   1      34.534  23.182  26.002  1.00  0.00     0.063 H 
ATOM     42  C   UNL A   1      33.943  20.107  24.826  1.00  0.00    -0.062 A 
ATOM     43  H   UNL A   1      32.159  19.544  23.860  1.00  0.00     0.062 H 
ATOM     44  H   UNL A   1      35.566  21.005  25.817  1.00  0.00     0.062 H 
ATOM     45  H   UNL A   1      34.387  19.179  24.745  1.00  0.00     0.062 H 
ENDBRANCH  14  35
ENDBRANCH  11  14
ENDBRANCH   7  10
ENDBRANCH   4   7
ENDBRANCH   1   4
BRANCH   1  46
ATOM     46  C   UNL A   1      31.764  30.627  25.892  1.00  0.00    -0.052 C 
ATOM     47  H   UNL A   1      30.866  30.321  25.399  1.00  0.00     0.027 H 
ATOM     48  H   UNL A   1      32.544  30.923  25.222  1.00  0.00     0.027 H 
BRANCH  46  49
ATOM     49  C   UNL A   1      31.443  31.860  26.737  1.00  0.00    -0.036 C 
ATOM     50  H   UNL A   1      30.848  31.546  27.570  1.00  0.00     0.028 H 
ATOM     51  H   UNL A   1      30.934  32.544  26.089  1.00  0.00     0.028 H 
BRANCH  49  52
ATOM     52  C   UNL A   1      32.658  32.603  27.275  1.00  0.00     0.018 C 
ATOM     53  H   UNL A   1      33.436  32.564  26.541  1.00  0.00     0.049 H 
ATOM     54  H   UNL A   1      32.951  32.128  28.187  1.00  0.00     0.049 H 
BRANCH  52  55
ATOM     55  N   UNL A   1      32.375  33.998  27.577  1.00  0.00    -0.352 N 
ATOM     56  C   UNL A   1      32.974  34.823  28.504  1.00  0.00     0.251 C 
ATOM     57  H   UNL A   1      31.656  34.409  27.046  1.00  0.00     0.163 HD
ATOM     58  O   UNL A   1      32.523  35.931  28.743  1.00  0.00    -0.269 OA
BRANCH  56  59
ATOM     59  C   UNL A   1      34.158  34.330  29.243  1.00  0.00     0.039 A 
ATOM     60  C   UNL A   1      35.443  34.531  28.734  1.00  0.00    -0.049 A 
ATOM     61  C   UNL A   1      33.969  33.614  30.427  1.00  0.00    -0.049 A 
ATOM     62  C   UNL A   1      36.522  33.875  29.318  1.00  0.00    -0.053 A 
ATOM     63  H   UNL A   1      35.592  35.163  27.932  1.00  0.00     0.063 H 
ATOM     64  C   UNL A   1      35.067  33.019  31.055  1.00  0.00    -0.053 A 
ATOM     65  H   UNL A   1      33.026  33.524  30.835  1.00  0.00     0.063 H 
ATOM     66  C   UNL A   1      36.345  33.105  30.479  1.00  0.00    -0.014 A 
ATOM     67  H   UNL A   1      37.460  33.955  28.894  1.00  0.00     0.063 H 
ATOM     68  H   UNL A   1      34.938  32.515  31.946  1.00  0.00     0.063 H 
BRANCH  66  69
ATOM     69  C   UNL A   1      37.503  32.394  31.077  1.00  0.00     0.031 A 
ATOM     70  C   UNL A   1      37.992  32.747  32.457  1.00  0.00     0.074 A 
ATOM     71  C   UNL A   1      38.096  31.404  30.385  1.00  0.00     0.049 A 
ATOM     72  N   UNL A   1      39.021  32.272  33.114  1.00  0.00    -0.248 NA
ATOM     73  C   UNL A   1      37.230  33.766  33.196  1.00  0.00    -0.034 C 
ATOM     74  C   UNL A   1      37.699  30.957  29.049  1.00  0.00    -0.036 A 
ATOM     75  N   UNL A   1      39.149  30.587  30.710  1.00  0.00    -0.354 N 
ATOM     76  C   UNL A   1      39.044  32.947  34.328  1.00  0.00     0.074 A 
ATOM     77  C   UNL A   1      37.933  33.875  34.316  1.00  0.00    -0.034 C 
ATOM     78  H   UNL A   1      36.371  34.265  32.917  1.00  0.00     0.065 H 
ATOM     79  C   UNL A   1      38.477  29.929  28.680  1.00  0.00    -0.036 A 
ATOM     80  H   UNL A   1      36.941  31.368  28.481  1.00  0.00     0.065 H 
ATOM     81  C   UNL A   1      39.467  29.686  29.724  1.00  0.00     0.049 A 
ATOM     82  H   UNL A   1      39.631  30.642  31.567  1.00  0.00     0.167 HD
ATOM     83  C   UNL A   1      39.910  32.798  35.357  1.00  0.00     0.037 A 
ATOM     84  H   UNL A   1      37.717  34.536  35.080  1.00  0.00     0.065 H 
ATOM     85  H   UNL A   1      38.389  29.396  27.800  1.00  0.00     0.065 H 
ATOM     86  C   UNL A   1      40.460  28.780  29.655  1.00  0.00     0.037 A 
ATOM     87  C   UNL A   1      40.998  31.854  35.377  1.00  0.00     0.049 A 
ATOM     88  C   UNL A   1      41.417  28.654  30.805  1.00  0.00     0.074 A 
ATOM     89  C   UNL A   1      41.928  31.631  36.378  1.00  0.00    -0.036 A 
ATOM     90  N   UNL A   1      41.295  30.969  34.352  1.00  0.00    -0.354 N 
ATOM     91  N   UNL A   1      41.440  29.312  31.937  1.00  0.00    -0.248 NA
ATOM     92  C   UNL A   1      42.491  27.659  30.667  1.00  0.00    -0.034 C 
ATOM     93  C   UNL A   1      42.807  30.633  35.947  1.00  0.00    -0.036 A 
ATOM     94  H   UNL A   1      41.967  32.118  37.287  1.00  0.00     0.065 H 
ATOM     95  C   UNL A   1      42.398  30.203  34.696  1.00  0.00     0.049 A 
ATOM     96  H   UNL A   1      40.798  30.897  33.506  1.00  0.00     0.167 HD
ATOM     97  C   UNL A   1      42.515  28.804  32.652  1.00  0.00     0.074 A 
ATOM     98  C   UNL A   1      43.109  27.768  31.835  1.00  0.00    -0.034 C 
ATOM     99  H   UNL A   1      42.707  27.040  29.870  1.00  0.00     0.065 H 
ATOM    100  H   UNL A   1      43.622  30.277  36.471  1.00  0.00     0.065 H 
ATOM    101  C   UNL A   1      42.970  29.168  33.875  1.00  0.00     0.037 A 
ATOM    102  H   UNL A   1      43.912  27.188  32.124  1.00  0.00     0.065 H 
BRANCH  83 103
ATOM    103  C   UNL A   1      39.737  33.674  36.563  1.00  0.00     0.064 A 
ATOM    104  C   UNL A   1      40.313  34.950  36.630  1.00  0.00     0.173 A 
ATOM    105  C   UNL A   1      38.896  33.275  37.614  1.00  0.00     0.173 A 
ATOM    106  F   UNL A   1      41.133  35.373  35.656  1.00  0.00    -0.203 F 
ATOM    107  C   UNL A   1      40.052  35.796  37.706  1.00  0.00     0.198 A 
ATOM    108  C   UNL A   1      38.620  34.132  38.676  1.00  0.00     0.198 A 
ATOM    109  F   UNL A   1      38.317  32.065  37.593  1.00  0.00    -0.203 F 
ATOM    110  F   UNL A   1      40.622  37.008  37.756  1.00  0.00    -0.200 F 
ATOM    111  C   UNL A   1      39.197  35.393  38.720  1.00  0.00     0.200 A 
ATOM    112  F   UNL A   1      37.784  33.744  39.649  1.00  0.00    -0.200 F 
ATOM    113  F   UNL A   1      38.927  36.218  39.740  1.00  0.00    -0.200 F 
ENDBRANCH  83 103
BRANCH  86 114
ATOM    114  C   UNL A   1      40.598  27.934  28.444  1.00  0.00     0.064 A 
ATOM    115  C   UNL A   1      41.344  28.368  27.340  1.00  0.00     0.173 A 
ATOM    116  C   UNL A   1      39.999  26.667  28.372  1.00  0.00     0.173 A 
ATOM    117  F   UNL A   1      41.916  29.580  27.354  1.00  0.00    -0.203 F 
ATOM    118  C   UNL A   1      41.479  27.570  26.206  1.00  0.00     0.198 A 
ATOM    119  C   UNL A   1      40.159  25.858  27.250  1.00  0.00     0.198 A 
ATOM    120  F   UNL A   1      39.278  26.206  29.404  1.00  0.00    -0.203 F 
ATOM    121  F   UNL A   1      42.168  28.023  25.150  1.00  0.00    -0.200 F 
ATOM    122  C   UNL A   1      40.894  26.313  26.165  1.00  0.00     0.200 A 
ATOM    123  F   UNL A   1      39.606  24.638  27.222  1.00  0.00    -0.200 F 
ATOM    124  F   UNL A   1      41.034  25.541  25.079  1.00  0.00    -0.200 F 
ENDBRANCH  86 114
BRANCH 101 125
ATOM    125  C   UNL A   1      44.148  28.418  34.420  1.00  0.00     0.064 A 
ATOM    126  C   UNL A   1      45.461  28.853  34.197  1.00  0.00     0.173 A 
ATOM    127  C   UNL A   1      43.956  27.274  35.209  1.00  0.00     0.173 A 
ATOM    128  F   UNL A   1      45.695  29.935  33.438  1.00  0.00    -0.203 F 
ATOM    129  C   UNL A   1      46.544  28.156  34.727  1.00  0.00     0.198 A 
ATOM    130  C   UNL A   1      45.039  26.595  35.758  1.00  0.00     0.198 A 
ATOM    131  F   UNL A   1      42.717  26.823  35.457  1.00  0.00    -0.203 F 
ATOM    132  F   UNL A   1      47.793  28.566  34.468  1.00  0.00    -0.200 F 
ATOM    133  C   UNL A   1      46.332  27.033  35.512  1.00  0.00     0.200 A 
ATOM    134  F   UNL A   1      44.832  25.515  36.525  1.00  0.00    -0.200 F 
ATOM    135  F   UNL A   1      47.374  26.366  36.026  1.00  0.00    -0.200 F 
ENDBRANCH 101 125
ENDBRANCH  66  69
ENDBRANCH  56  59
ENDBRANCH  52  55
ENDBRANCH  49  52
ENDBRANCH  46  49
ENDBRANCH   1  46
TORSDOF 17
ENDMDL
MODEL 9
REMARK VINA RESULT:     -12.9      1.891      4.086
REMARK SMILES Nn1c(S[C@@H](C(=O)NCCCCCCNC(=O)c2ccc(-c3c4nc(c(-c5c(F)c(F)c(F)c(F)c5F)c5ccc([nH]5)c(-c5c(F)c(F)c(F)c(F)c5F)c5nc(c(-c6c(F)c(F)c(F)c(F)c6F)c6ccc3[nH]6)C=C5)C=C4)cc2)c2ccccc2)nc2ccc(Br)cc2c1=O
REMARK SMILES IDX 11 1 10 4 9 7 8 10 6 11 7 12 5 14 4 16 3 17 2 18 95 19 87 20
REMARK SMILES IDX 94 21 96 22 88 23 93 24 89 25 91 26 90 28 92 30 1 32 81 35
REMARK SMILES IDX 82 36 86 37 83 38 85 40 84 42 12 46 13 49 14 52 15 55 16 56
REMARK SMILES IDX 17 58 18 59 19 60 80 61 20 62 79 64 21 66 22 69 23 70 73 71
REMARK SMILES IDX 24 72 78 73 72 74 74 75 25 76 77 77 71 79 70 81 26 83 58 86
REMARK SMILES IDX 38 87 57 88 39 89 42 90 56 91 75 92 40 93 41 95 55 97 76 98
REMARK SMILES IDX 43 101 27 103 28 104 36 105 29 106 30 107 34 108 37 109
REMARK SMILES IDX 31 110 32 111 35 112 33 113 59 114 60 115 68 116 61 117
REMARK SMILES IDX 62 118 66 119 69 120 63 121 64 122 67 123 65 124 44 125
REMARK SMILES IDX 45 126 53 127 46 128 47 129 51 130 54 131 48 132 49 133
REMARK SMILES IDX 52 134 50 135
REMARK H PARENT 11 2 11 3 10 5 10 6 9 8 9 9 8 13 5 15 93 27 89 29 90 31 1 33
REMARK H PARENT 1 34 82 39 86 41 83 43 85 44 84 45 12 47 12 48 13 50 13 51
REMARK H PARENT 14 53 14 54 15 57 19 63 80 65 20 67 79 68 78 78 72 80 74 82
REMARK H PARENT 77 84 71 85 39 94 42 96 75 99 40 100 76 102
REMARK Flexibility Score: inf
ROOT
ATOM      1  C   UNL A   1      32.336  29.284  26.889  1.00  0.00    -0.052 C 
ATOM      2  H   UNL A   1      33.339  29.003  26.645  1.00  0.00     0.027 H 
ATOM      3  H   UNL A   1      32.199  29.565  27.912  1.00  0.00     0.027 H 
ENDROOT
BRANCH   1   4
ATOM      4  C   UNL A   1      31.439  28.059  26.670  1.00  0.00    -0.036 C 
ATOM      5  H   UNL A   1      30.839  27.927  27.546  1.00  0.00     0.028 H 
ATOM      6  H   UNL A   1      30.870  28.264  25.788  1.00  0.00     0.028 H 
BRANCH   4   7
ATOM      7  C   UNL A   1      32.180  26.743  26.401  1.00  0.00     0.017 C 
ATOM      8  H   UNL A   1      32.287  26.619  25.344  1.00  0.00     0.049 H 
ATOM      9  H   UNL A   1      33.132  26.802  26.888  1.00  0.00     0.049 H 
BRANCH   7  10
ATOM     10  N   UNL A   1      31.479  25.590  26.938  1.00  0.00    -0.355 N 
ATOM     11  C   UNL A   1      31.259  24.343  26.411  1.00  0.00     0.238 C 
ATOM     12  O   UNL A   1      30.586  23.575  27.108  1.00  0.00    -0.273 OA
ATOM     13  H   UNL A   1      31.097  25.726  27.836  1.00  0.00     0.163 HD
BRANCH  11  14
ATOM     14  C   UNL A   1      31.863  23.924  25.057  1.00  0.00     0.116 C 
ATOM     15  H   UNL A   1      32.711  24.574  25.007  1.00  0.00     0.057 H 
BRANCH  14  16
ATOM     16  S   UNL A   1      30.832  24.327  23.637  1.00  0.00    -0.068 SA
BRANCH  16  17
ATOM     17  C   UNL A   1      30.745  26.038  23.345  1.00  0.00     0.191 A 
ATOM     18  N   UNL A   1      31.780  26.816  22.832  1.00  0.00    -0.202 N 
ATOM     19  C   UNL A   1      31.666  28.210  22.756  1.00  0.00     0.280 A 
ATOM     20  N   UNL A   1      29.560  26.520  23.561  1.00  0.00    -0.222 NA
ATOM     21  C   UNL A   1      30.304  28.750  22.898  1.00  0.00     0.069 A 
ATOM     22  O   UNL A   1      32.607  28.954  22.482  1.00  0.00    -0.267 OA
ATOM     23  C   UNL A   1      29.294  27.846  23.215  1.00  0.00     0.079 A 
ATOM     24  C   UNL A   1      30.016  30.075  22.557  1.00  0.00    -0.033 A 
ATOM     25  C   UNL A   1      27.965  28.263  23.126  1.00  0.00    -0.034 A 
ATOM     26  C   UNL A   1      28.684  30.476  22.481  1.00  0.00     0.018 A 
ATOM     27  H   UNL A   1      30.777  30.745  22.365  1.00  0.00     0.064 H 
ATOM     28  C   UNL A   1      27.656  29.572  22.746  1.00  0.00    -0.046 A 
ATOM     29  H   UNL A   1      27.204  27.600  23.343  1.00  0.00     0.065 H 
ATOM     30  Br  UNL A   1      28.264  32.244  21.964  1.00  0.00    -0.051 Br
ATOM     31  H   UNL A   1      26.671  29.868  22.661  1.00  0.00     0.064 H 
BRANCH  18  32
ATOM     32  N   UNL A   1      32.889  26.265  22.133  1.00  0.00    -0.334 N 
ATOM     33  H   UNL A   1      33.795  26.341  22.509  1.00  0.00     0.178 HD
ATOM     34  H   UNL A   1      32.749  25.809  21.271  1.00  0.00     0.178 HD
ENDBRANCH  18  32
ENDBRANCH  16  17
ENDBRANCH  14  16
BRANCH  14  35
ATOM     35  C   UNL A   1      32.551  22.562  24.967  1.00  0.00    -0.025 A 
ATOM     36  C   UNL A   1      33.659  22.308  25.802  1.00  0.00    -0.057 A 
ATOM     37  C   UNL A   1      32.154  21.532  24.100  1.00  0.00    -0.057 A 
ATOM     38  C   UNL A   1      34.325  21.079  25.777  1.00  0.00    -0.062 A 
ATOM     39  H   UNL A   1      33.985  23.046  26.445  1.00  0.00     0.063 H 
ATOM     40  C   UNL A   1      32.823  20.305  24.068  1.00  0.00    -0.062 A 
ATOM     41  H   UNL A   1      31.349  21.683  23.472  1.00  0.00     0.063 H 
ATOM     42  C   UNL A   1      33.908  20.078  24.907  1.00  0.00    -0.062 A 
ATOM     43  H   UNL A   1      35.127  20.915  26.405  1.00  0.00     0.062 H 
ATOM     44  H   UNL A   1      32.511  19.566  23.420  1.00  0.00     0.062 H 
ATOM     45  H   UNL A   1      34.401  19.171  24.885  1.00  0.00     0.062 H 
ENDBRANCH  14  35
ENDBRANCH  11  14
ENDBRANCH   7  10
ENDBRANCH   4   7
ENDBRANCH   1   4
BRANCH   1  46
ATOM     46  C   UNL A   1      31.981  30.524  26.065  1.00  0.00    -0.052 C 
ATOM     47  H   UNL A   1      31.142  30.281  25.447  1.00  0.00     0.027 H 
ATOM     48  H   UNL A   1      32.864  30.773  25.513  1.00  0.00     0.027 H 
BRANCH  46  49
ATOM     49  C   UNL A   1      31.626  31.768  26.877  1.00  0.00    -0.036 C 
ATOM     50  H   UNL A   1      31.063  31.457  27.733  1.00  0.00     0.028 H 
ATOM     51  H   UNL A   1      31.075  32.409  26.219  1.00  0.00     0.028 H 
BRANCH  49  52
ATOM     52  C   UNL A   1      32.820  32.579  27.363  1.00  0.00     0.018 C 
ATOM     53  H   UNL A   1      33.585  32.544  26.616  1.00  0.00     0.049 H 
ATOM     54  H   UNL A   1      33.149  32.149  28.286  1.00  0.00     0.049 H 
BRANCH  52  55
ATOM     55  N   UNL A   1      32.486  33.971  27.622  1.00  0.00    -0.352 N 
ATOM     56  C   UNL A   1      33.019  34.832  28.557  1.00  0.00     0.251 C 
ATOM     57  H   UNL A   1      31.781  34.351  27.050  1.00  0.00     0.163 HD
ATOM     58  O   UNL A   1      32.528  35.931  28.751  1.00  0.00    -0.269 OA
BRANCH  56  59
ATOM     59  C   UNL A   1      34.180  34.386  29.360  1.00  0.00     0.039 A 
ATOM     60  C   UNL A   1      35.478  34.510  28.856  1.00  0.00    -0.049 A 
ATOM     61  C   UNL A   1      33.958  33.791  30.603  1.00  0.00    -0.049 A 
ATOM     62  C   UNL A   1      36.532  33.891  29.518  1.00  0.00    -0.053 A 
ATOM     63  H   UNL A   1      35.652  35.060  28.000  1.00  0.00     0.063 H 
ATOM     64  C   UNL A   1      35.032  33.236  31.304  1.00  0.00    -0.053 A 
ATOM     65  H   UNL A   1      33.007  33.761  31.002  1.00  0.00     0.063 H 
ATOM     66  C   UNL A   1      36.320  33.240  30.745  1.00  0.00    -0.014 A 
ATOM     67  H   UNL A   1      37.478  33.911  29.105  1.00  0.00     0.063 H 
ATOM     68  H   UNL A   1      34.879  32.823  32.237  1.00  0.00     0.063 H 
BRANCH  66  69
ATOM     69  C   UNL A   1      37.453  32.566  31.428  1.00  0.00     0.031 A 
ATOM     70  C   UNL A   1      38.219  31.466  30.742  1.00  0.00     0.074 A 
ATOM     71  C   UNL A   1      37.813  32.970  32.660  1.00  0.00     0.049 A 
ATOM     72  N   UNL A   1      39.198  30.730  31.205  1.00  0.00    -0.248 NA
ATOM     73  C   UNL A   1      37.839  31.150  29.356  1.00  0.00    -0.034 C 
ATOM     74  C   UNL A   1      37.161  34.039  33.418  1.00  0.00    -0.036 A 
ATOM     75  N   UNL A   1      38.819  32.541  33.488  1.00  0.00    -0.354 N 
ATOM     76  C   UNL A   1      39.533  29.851  30.182  1.00  0.00     0.074 A 
ATOM     77  C   UNL A   1      38.647  30.136  29.074  1.00  0.00    -0.034 C 
ATOM     78  H   UNL A   1      37.129  31.600  28.758  1.00  0.00     0.065 H 
ATOM     79  C   UNL A   1      37.800  34.203  34.585  1.00  0.00    -0.036 A 
ATOM     80  H   UNL A   1      36.340  34.580  33.105  1.00  0.00     0.065 H 
ATOM     81  C   UNL A   1      38.865  33.210  34.686  1.00  0.00     0.049 A 
ATOM     82  H   UNL A   1      39.447  31.821  33.247  1.00  0.00     0.167 HD
ATOM     83  C   UNL A   1      40.497  28.901  30.172  1.00  0.00     0.037 A 
ATOM     84  H   UNL A   1      38.643  29.617  28.182  1.00  0.00     0.065 H 
ATOM     85  H   UNL A   1      37.575  34.916  35.298  1.00  0.00     0.065 H 
ATOM     86  C   UNL A   1      39.659  33.030  35.758  1.00  0.00     0.037 A 
ATOM     87  C   UNL A   1      41.395  28.639  31.266  1.00  0.00     0.049 A 
ATOM     88  C   UNL A   1      40.705  31.953  35.722  1.00  0.00     0.074 A 
ATOM     89  C   UNL A   1      42.406  27.695  31.345  1.00  0.00    -0.036 A 
ATOM     90  N   UNL A   1      41.400  29.329  32.468  1.00  0.00    -0.354 N 
ATOM     91  N   UNL A   1      40.996  31.116  34.757  1.00  0.00    -0.248 NA
ATOM     92  C   UNL A   1      41.531  31.792  36.927  1.00  0.00    -0.034 C 
ATOM     93  C   UNL A   1      43.001  27.793  32.606  1.00  0.00    -0.036 A 
ATOM     94  H   UNL A   1      42.673  27.031  30.602  1.00  0.00     0.065 H 
ATOM     95  C   UNL A   1      42.391  28.827  33.296  1.00  0.00     0.049 A 
ATOM     96  H   UNL A   1      40.789  30.065  32.699  1.00  0.00     0.167 HD
ATOM     97  C   UNL A   1      42.046  30.342  35.228  1.00  0.00     0.074 A 
ATOM     98  C   UNL A   1      42.355  30.821  36.559  1.00  0.00    -0.034 C 
ATOM     99  H   UNL A   1      41.482  32.301  37.824  1.00  0.00     0.065 H 
ATOM    100  H   UNL A   1      43.764  27.196  32.963  1.00  0.00     0.065 H 
ATOM    101  C   UNL A   1      42.693  29.323  34.614  1.00  0.00     0.037 A 
ATOM    102  H   UNL A   1      43.119  30.452  37.147  1.00  0.00     0.065 H 
BRANCH  83 103
ATOM    103  C   UNL A   1      40.644  28.054  28.942  1.00  0.00     0.064 A 
ATOM    104  C   UNL A   1      39.924  26.862  28.782  1.00  0.00     0.173 A 
ATOM    105  C   UNL A   1      41.431  28.496  27.867  1.00  0.00     0.173 A 
ATOM    106  F   UNL A   1      39.166  26.392  29.785  1.00  0.00    -0.203 F 
ATOM    107  C   UNL A   1      39.984  26.144  27.590  1.00  0.00     0.198 A 
ATOM    108  C   UNL A   1      41.472  27.788  26.669  1.00  0.00     0.198 A 
ATOM    109  F   UNL A   1      42.136  29.634  27.968  1.00  0.00    -0.203 F 
ATOM    110  F   UNL A   1      39.296  25.001  27.462  1.00  0.00    -0.200 F 
ATOM    111  C   UNL A   1      40.746  26.614  26.531  1.00  0.00     0.200 A 
ATOM    112  F   UNL A   1      42.200  28.250  25.643  1.00  0.00    -0.200 F 
ATOM    113  F   UNL A   1      40.783  25.935  25.376  1.00  0.00    -0.200 F 
ENDBRANCH  83 103
BRANCH  86 114
ATOM    114  C   UNL A   1      39.479  33.888  36.955  1.00  0.00     0.064 A 
ATOM    115  C   UNL A   1      40.041  35.170  37.015  1.00  0.00     0.173 A 
ATOM    116  C   UNL A   1      38.728  33.451  38.057  1.00  0.00     0.173 A 
ATOM    117  F   UNL A   1      40.785  35.623  35.996  1.00  0.00    -0.203 F 
ATOM    118  C   UNL A   1      39.866  35.979  38.136  1.00  0.00     0.198 A 
ATOM    119  C   UNL A   1      38.529  34.270  39.163  1.00  0.00     0.198 A 
ATOM    120  F   UNL A   1      38.168  32.233  38.045  1.00  0.00    -0.203 F 
ATOM    121  F   UNL A   1      40.444  37.187  38.184  1.00  0.00    -0.200 F 
ATOM    122  C   UNL A   1      39.103  35.532  39.205  1.00  0.00     0.200 A 
ATOM    123  F   UNL A   1      37.778  33.841  40.186  1.00  0.00    -0.200 F 
ATOM    124  F   UNL A   1      38.926  36.315  40.278  1.00  0.00    -0.200 F 
ENDBRANCH  86 114
BRANCH 101 125
ATOM    125  C   UNL A   1      43.823  28.678  35.359  1.00  0.00     0.064 A 
ATOM    126  C   UNL A   1      43.604  27.614  36.245  1.00  0.00     0.173 A 
ATOM    127  C   UNL A   1      45.143  29.104  35.151  1.00  0.00     0.173 A 
ATOM    128  F   UNL A   1      42.357  27.181  36.486  1.00  0.00    -0.203 F 
ATOM    129  C   UNL A   1      44.666  27.013  36.915  1.00  0.00     0.198 A 
ATOM    130  C   UNL A   1      46.204  28.483  35.803  1.00  0.00     0.198 A 
ATOM    131  F   UNL A   1      45.403  30.113  34.307  1.00  0.00    -0.203 F 
ATOM    132  F   UNL A   1      44.431  26.024  37.788  1.00  0.00    -0.200 F 
ATOM    133  C   UNL A   1      45.965  27.443  36.688  1.00  0.00     0.200 A 
ATOM    134  F   UNL A   1      47.461  28.893  35.575  1.00  0.00    -0.200 F 
ATOM    135  F   UNL A   1      46.987  26.860  37.329  1.00  0.00    -0.200 F 
ENDBRANCH 101 125
ENDBRANCH  66  69
ENDBRANCH  56  59
ENDBRANCH  52  55
ENDBRANCH  49  52
ENDBRANCH  46  49
ENDBRANCH   1  46
TORSDOF 17
ENDMDL
MODEL 10
REMARK VINA RESULT:     -12.9      1.281      1.923
REMARK SMILES Nn1c(S[C@@H](C(=O)NCCCCCCNC(=O)c2ccc(-c3c4nc(c(-c5c(F)c(F)c(F)c(F)c5F)c5ccc([nH]5)c(-c5c(F)c(F)c(F)c(F)c5F)c5nc(c(-c6c(F)c(F)c(F)c(F)c6F)c6ccc3[nH]6)C=C5)C=C4)cc2)c2ccccc2)nc2ccc(Br)cc2c1=O
REMARK SMILES IDX 11 1 10 4 9 7 8 10 6 11 7 12 5 14 4 16 3 17 2 18 95 19 87 20
REMARK SMILES IDX 94 21 96 22 88 23 93 24 89 25 91 26 90 28 92 30 1 32 81 35
REMARK SMILES IDX 82 36 86 37 83 38 85 40 84 42 12 46 13 49 14 52 15 55 16 56
REMARK SMILES IDX 17 58 18 59 19 60 80 61 20 62 79 64 21 66 22 69 23 70 73 71
REMARK SMILES IDX 24 72 78 73 72 74 74 75 25 76 77 77 71 79 70 81 26 83 58 86
REMARK SMILES IDX 38 87 57 88 39 89 42 90 56 91 75 92 40 93 41 95 55 97 76 98
REMARK SMILES IDX 43 101 27 103 28 104 36 105 29 106 30 107 34 108 37 109
REMARK SMILES IDX 31 110 32 111 35 112 33 113 59 114 60 115 68 116 61 117
REMARK SMILES IDX 62 118 66 119 69 120 63 121 64 122 67 123 65 124 44 125
REMARK SMILES IDX 45 126 53 127 46 128 47 129 51 130 54 131 48 132 49 133
REMARK SMILES IDX 52 134 50 135
REMARK H PARENT 11 2 11 3 10 5 10 6 9 8 9 9 8 13 5 15 93 27 89 29 90 31 1 33
REMARK H PARENT 1 34 82 39 86 41 83 43 85 44 84 45 12 47 12 48 13 50 13 51
REMARK H PARENT 14 53 14 54 15 57 19 63 80 65 20 67 79 68 78 78 72 80 74 82
REMARK H PARENT 77 84 71 85 39 94 42 96 75 99 40 100 76 102
REMARK Flexibility Score: inf
ROOT
ATOM      1  C   UNL A   1      33.218  30.033  27.174  1.00  0.00    -0.052 C 
ATOM      2  H   UNL A   1      33.937  30.744  26.825  1.00  0.00     0.027 H 
ATOM      3  H   UNL A   1      33.161  29.960  28.240  1.00  0.00     0.027 H 
ENDROOT
BRANCH   1   4
ATOM      4  C   UNL A   1      33.654  28.647  26.684  1.00  0.00    -0.036 C 
ATOM      5  H   UNL A   1      34.491  28.775  26.029  1.00  0.00     0.028 H 
ATOM      6  H   UNL A   1      33.882  28.081  27.563  1.00  0.00     0.028 H 
BRANCH   4   7
ATOM      7  C   UNL A   1      32.582  27.850  25.932  1.00  0.00     0.017 C 
ATOM      8  H   UNL A   1      32.671  26.818  26.198  1.00  0.00     0.049 H 
ATOM      9  H   UNL A   1      31.627  28.247  26.211  1.00  0.00     0.049 H 
BRANCH   7  10
ATOM     10  N   UNL A   1      32.707  27.973  24.490  1.00  0.00    -0.355 N 
ATOM     11  C   UNL A   1      31.755  28.111  23.511  1.00  0.00     0.238 C 
ATOM     12  O   UNL A   1      32.179  28.157  22.350  1.00  0.00    -0.273 OA
ATOM     13  H   UNL A   1      33.633  27.953  24.157  1.00  0.00     0.163 HD
BRANCH  11  14
ATOM     14  C   UNL A   1      30.261  28.253  23.856  1.00  0.00     0.116 C 
ATOM     15  H   UNL A   1      30.318  28.484  24.899  1.00  0.00     0.057 H 
BRANCH  14  16
ATOM     16  S   UNL A   1      29.330  26.718  23.729  1.00  0.00    -0.068 SA
BRANCH  16  17
ATOM     17  C   UNL A   1      30.194  25.361  24.387  1.00  0.00     0.191 A 
ATOM     18  N   UNL A   1      30.162  24.961  25.720  1.00  0.00    -0.202 N 
ATOM     19  C   UNL A   1      30.995  23.937  26.187  1.00  0.00     0.280 A 
ATOM     20  N   UNL A   1      30.811  24.675  23.474  1.00  0.00    -0.222 NA
ATOM     21  C   UNL A   1      31.615  23.094  25.153  1.00  0.00     0.069 A 
ATOM     22  O   UNL A   1      31.136  23.668  27.379  1.00  0.00    -0.267 OA
ATOM     23  C   UNL A   1      31.416  23.467  23.827  1.00  0.00     0.079 A 
ATOM     24  C   UNL A   1      32.224  21.880  25.483  1.00  0.00    -0.033 A 
ATOM     25  C   UNL A   1      31.776  22.576  22.814  1.00  0.00    -0.034 A 
ATOM     26  C   UNL A   1      32.586  21.006  24.460  1.00  0.00     0.018 A 
ATOM     27  H   UNL A   1      32.404  21.634  26.470  1.00  0.00     0.064 H 
ATOM     28  C   UNL A   1      32.348  21.340  23.128  1.00  0.00    -0.046 A 
ATOM     29  H   UNL A   1      31.620  22.832  21.827  1.00  0.00     0.065 H 
ATOM     30  Br  UNL A   1      33.356  19.333  24.882  1.00  0.00    -0.051 Br
ATOM     31  H   UNL A   1      32.593  20.678  22.375  1.00  0.00     0.064 H 
BRANCH  18  32
ATOM     32  N   UNL A   1      29.139  25.362  26.623  1.00  0.00    -0.334 N 
ATOM     33  H   UNL A   1      29.378  25.725  27.507  1.00  0.00     0.178 HD
ATOM     34  H   UNL A   1      28.193  25.275  26.365  1.00  0.00     0.178 HD
ENDBRANCH  18  32
ENDBRANCH  16  17
ENDBRANCH  14  16
BRANCH  14  35
ATOM     35  C   UNL A   1      29.516  29.484  23.339  1.00  0.00    -0.025 A 
ATOM     36  C   UNL A   1      28.744  29.362  22.165  1.00  0.00    -0.057 A 
ATOM     37  C   UNL A   1      29.546  30.743  23.958  1.00  0.00    -0.057 A 
ATOM     38  C   UNL A   1      28.028  30.447  21.647  1.00  0.00    -0.062 A 
ATOM     39  H   UNL A   1      28.706  28.453  21.679  1.00  0.00     0.063 H 
ATOM     40  C   UNL A   1      28.837  31.830  23.437  1.00  0.00    -0.062 A 
ATOM     41  H   UNL A   1      30.103  30.870  24.817  1.00  0.00     0.063 H 
ATOM     42  C   UNL A   1      28.078  31.682  22.282  1.00  0.00    -0.062 A 
ATOM     43  H   UNL A   1      27.463  30.328  20.792  1.00  0.00     0.062 H 
ATOM     44  H   UNL A   1      28.878  32.746  23.911  1.00  0.00     0.062 H 
ATOM     45  H   UNL A   1      27.553  32.484  21.899  1.00  0.00     0.062 H 
ENDBRANCH  14  35
ENDBRANCH  11  14
ENDBRANCH   7  10
ENDBRANCH   4   7
ENDBRANCH   1   4
BRANCH   1  46
ATOM     46  C   UNL A   1      31.835  30.497  26.712  1.00  0.00    -0.052 C 
ATOM     47  H   UNL A   1      31.102  29.960  27.275  1.00  0.00     0.027 H 
ATOM     48  H   UNL A   1      31.796  30.305  25.660  1.00  0.00     0.027 H 
BRANCH  46  49
ATOM     49  C   UNL A   1      31.558  31.991  26.878  1.00  0.00    -0.036 C 
ATOM     50  H   UNL A   1      30.814  32.109  27.638  1.00  0.00     0.028 H 
ATOM     51  H   UNL A   1      31.243  32.347  25.919  1.00  0.00     0.028 H 
BRANCH  49  52
ATOM     52  C   UNL A   1      32.770  32.828  27.268  1.00  0.00     0.018 C 
ATOM     53  H   UNL A   1      33.454  32.845  26.445  1.00  0.00     0.049 H 
ATOM     54  H   UNL A   1      33.206  32.381  28.136  1.00  0.00     0.049 H 
BRANCH  52  55
ATOM     55  N   UNL A   1      32.419  34.198  27.609  1.00  0.00    -0.352 N 
ATOM     56  C   UNL A   1      32.956  35.016  28.580  1.00  0.00     0.251 C 
ATOM     57  H   UNL A   1      31.698  34.597  27.070  1.00  0.00     0.163 HD
ATOM     58  O   UNL A   1      32.452  36.095  28.842  1.00  0.00    -0.269 OA
BRANCH  56  59
ATOM     59  C   UNL A   1      34.138  34.546  29.337  1.00  0.00     0.039 A 
ATOM     60  C   UNL A   1      35.418  34.652  28.787  1.00  0.00    -0.049 A 
ATOM     61  C   UNL A   1      33.952  33.947  30.584  1.00  0.00    -0.049 A 
ATOM     62  C   UNL A   1      36.485  34.011  29.406  1.00  0.00    -0.053 A 
ATOM     63  H   UNL A   1      35.570  35.203  27.928  1.00  0.00     0.063 H 
ATOM     64  C   UNL A   1      35.041  33.370  31.242  1.00  0.00    -0.053 A 
ATOM     65  H   UNL A   1      33.015  33.930  31.017  1.00  0.00     0.063 H 
ATOM     66  C   UNL A   1      36.307  33.356  30.635  1.00  0.00    -0.014 A 
ATOM     67  H   UNL A   1      37.416  34.017  28.958  1.00  0.00     0.063 H 
ATOM     68  H   UNL A   1      34.915  32.954  32.178  1.00  0.00     0.063 H 
BRANCH  66  69
ATOM     69  C   UNL A   1      37.454  32.659  31.273  1.00  0.00     0.031 A 
ATOM     70  C   UNL A   1      38.179  31.554  30.551  1.00  0.00     0.074 A 
ATOM     71  C   UNL A   1      37.862  33.046  32.495  1.00  0.00     0.049 A 
ATOM     72  N   UNL A   1      39.162  30.799  30.973  1.00  0.00    -0.248 NA
ATOM     73  C   UNL A   1      37.745  31.257  29.176  1.00  0.00    -0.034 C 
ATOM     74  C   UNL A   1      37.253  34.118  33.285  1.00  0.00    -0.036 A 
ATOM     75  N   UNL A   1      38.889  32.594  33.284  1.00  0.00    -0.354 N 
ATOM     76  C   UNL A   1      39.448  29.926  29.932  1.00  0.00     0.074 A 
ATOM     77  C   UNL A   1      38.528  30.233  28.858  1.00  0.00    -0.034 C 
ATOM     78  H   UNL A   1      37.022  31.723  28.607  1.00  0.00     0.065 H 
ATOM     79  C   UNL A   1      37.934  34.261  34.431  1.00  0.00    -0.036 A 
ATOM     80  H   UNL A   1      36.430  34.674  33.005  1.00  0.00     0.065 H 
ATOM     81  C   UNL A   1      38.987  33.252  34.485  1.00  0.00     0.049 A 
ATOM     82  H   UNL A   1      39.497  31.868  33.014  1.00  0.00     0.167 HD
ATOM     83  C   UNL A   1      40.396  28.961  29.879  1.00  0.00     0.037 A 
ATOM     84  H   UNL A   1      38.485  29.722  27.961  1.00  0.00     0.065 H 
ATOM     85  H   UNL A   1      37.745  34.971  35.156  1.00  0.00     0.065 H 
ATOM     86  C   UNL A   1      39.815  33.050  35.527  1.00  0.00     0.037 A 
ATOM     87  C   UNL A   1      41.328  28.675  30.939  1.00  0.00     0.049 A 
ATOM     88  C   UNL A   1      40.843  31.958  35.445  1.00  0.00     0.074 A 
ATOM     89  C   UNL A   1      42.326  27.716  30.975  1.00  0.00    -0.036 A 
ATOM     90  N   UNL A   1      41.385  29.355  32.146  1.00  0.00    -0.354 N 
ATOM     91  N   UNL A   1      41.088  31.126  34.463  1.00  0.00    -0.248 NA
ATOM     92  C   UNL A   1      41.708  31.774  36.619  1.00  0.00    -0.034 C 
ATOM     93  C   UNL A   1      42.966  27.794  32.215  1.00  0.00    -0.036 A 
ATOM     94  H   UNL A   1      42.558  27.056  30.216  1.00  0.00     0.065 H 
ATOM     95  C   UNL A   1      42.397  28.831  32.935  1.00  0.00     0.049 A 
ATOM     96  H   UNL A   1      40.793  30.098  32.405  1.00  0.00     0.167 HD
ATOM     97  C   UNL A   1      42.142  30.332  34.891  1.00  0.00     0.074 A 
ATOM     98  C   UNL A   1      42.504  30.794  36.214  1.00  0.00    -0.034 C 
ATOM     99  H   UNL A   1      41.698  32.275  37.522  1.00  0.00     0.065 H 
ATOM    100  H   UNL A   1      43.732  27.183  32.539  1.00  0.00     0.065 H 
ATOM    101  C   UNL A   1      42.752  29.310  34.245  1.00  0.00     0.037 A 
ATOM    102  H   UNL A   1      43.282  30.409  36.772  1.00  0.00     0.065 H 
BRANCH  83 103
ATOM    103  C   UNL A   1      40.488  28.123  28.638  1.00  0.00     0.064 A 
ATOM    104  C   UNL A   1      41.291  28.505  27.554  1.00  0.00     0.173 A 
ATOM    105  C   UNL A   1      39.851  26.874  28.577  1.00  0.00     0.173 A 
ATOM    106  F   UNL A   1      41.912  29.694  27.560  1.00  0.00    -0.203 F 
ATOM    107  C   UNL A   1      41.456  27.664  26.456  1.00  0.00     0.198 A 
ATOM    108  C   UNL A   1      40.035  26.027  27.488  1.00  0.00     0.198 A 
ATOM    109  F   UNL A   1      39.075  26.461  29.591  1.00  0.00    -0.203 F 
ATOM    110  F   UNL A   1      42.220  28.053  25.425  1.00  0.00    -0.200 F 
ATOM    111  C   UNL A   1      40.840  26.422  26.428  1.00  0.00     0.200 A 
ATOM    112  F   UNL A   1      39.448  24.823  27.469  1.00  0.00    -0.200 F 
ATOM    113  F   UNL A   1      41.020  25.605  25.382  1.00  0.00    -0.200 F 
ENDBRANCH  83 103
BRANCH  86 114
ATOM    114  C   UNL A   1      39.690  33.900  36.737  1.00  0.00     0.064 A 
ATOM    115  C   UNL A   1      40.354  35.130  36.827  1.00  0.00     0.173 A 
ATOM    116  C   UNL A   1      38.891  33.506  37.822  1.00  0.00     0.173 A 
ATOM    117  F   UNL A   1      41.146  35.539  35.825  1.00  0.00    -0.203 F 
ATOM    118  C   UNL A   1      40.231  35.932  37.960  1.00  0.00     0.198 A 
ATOM    119  C   UNL A   1      38.745  34.321  38.941  1.00  0.00     0.198 A 
ATOM    120  F   UNL A   1      38.234  32.339  37.782  1.00  0.00    -0.203 F 
ATOM    121  F   UNL A   1      40.904  37.088  38.036  1.00  0.00    -0.200 F 
ATOM    122  C   UNL A   1      39.420  35.531  39.012  1.00  0.00     0.200 A 
ATOM    123  F   UNL A   1      37.948  33.937  39.946  1.00  0.00    -0.200 F 
ATOM    124  F   UNL A   1      39.292  36.307  40.096  1.00  0.00    -0.200 F 
ENDBRANCH  86 114
BRANCH 101 125
ATOM    125  C   UNL A   1      43.897  28.641  34.945  1.00  0.00     0.064 A 
ATOM    126  C   UNL A   1      45.212  29.105  34.807  1.00  0.00     0.173 A 
ATOM    127  C   UNL A   1      43.666  27.551  35.796  1.00  0.00     0.173 A 
ATOM    128  F   UNL A   1      45.483  30.138  33.994  1.00  0.00    -0.203 F 
ATOM    129  C   UNL A   1      46.261  28.485  35.479  1.00  0.00     0.198 A 
ATOM    130  C   UNL A   1      44.715  26.950  36.487  1.00  0.00     0.198 A 
ATOM    131  F   UNL A   1      42.423  27.075  35.967  1.00  0.00    -0.203 F 
ATOM    132  F   UNL A   1      47.517  28.918  35.301  1.00  0.00    -0.200 F 
ATOM    133  C   UNL A   1      46.011  27.413  36.323  1.00  0.00     0.200 A 
ATOM    134  F   UNL A   1      44.470  25.920  37.311  1.00  0.00    -0.200 F 
ATOM    135  F   UNL A   1      47.022  26.821  36.975  1.00  0.00    -0.200 F 
ENDBRANCH 101 125
ENDBRANCH  66  69
ENDBRANCH  56  59
ENDBRANCH  52  55
ENDBRANCH  49  52
ENDBRANCH  46  49
ENDBRANCH   1  46
TORSDOF 17
ENDMDL
