MODEL 1
REMARK VINA RESULT:     -11.6      0.000      0.000
REMARK SMILES Cc1cc(C)c2c(=O)n(CCCC(=O)NCCCCCCNC(=O)c3ccc(-c4c5nc(c(-c6c(F)c(F)c(F)c(F)c6F)c6ccc([nH]6)c(-c6c(F)c(F)c(F)c(F)c6F)c6nc(c(-c7c(F)c(F)c(F)c(F)c7F)c7ccc4[nH]7)C=C6)C=C5)cc3)sc2n1
REMARK SMILES IDX 17 1 16 4 15 7 13 8 14 9 12 11 11 14 10 17 9 20 2 21 3 22
REMARK SMILES IDX 90 23 4 24 89 26 6 27 88 28 7 29 8 30 1 31 5 35 18 39 19 42
REMARK SMILES IDX 20 45 21 48 22 51 23 52 24 54 25 55 26 56 87 57 27 58 86 60
REMARK SMILES IDX 28 62 29 65 30 66 80 67 31 68 85 69 79 70 81 71 32 72 84 73
REMARK SMILES IDX 78 75 77 77 33 79 65 82 45 83 64 84 46 85 49 86 63 87 82 88
REMARK SMILES IDX 47 89 48 91 62 93 83 94 50 97 34 99 35 100 43 101 36 102
REMARK SMILES IDX 37 103 41 104 44 105 38 106 39 107 42 108 40 109 66 110
REMARK SMILES IDX 67 111 75 112 68 113 69 114 73 115 76 116 70 117 71 118
REMARK SMILES IDX 74 119 72 120 51 121 52 122 60 123 53 124 54 125 58 126
REMARK SMILES IDX 61 127 55 128 56 129 59 130 57 131
REMARK H PARENT 17 2 17 3 16 5 16 6 15 10 12 12 12 13 11 15 11 16 10 18 10 19
REMARK H PARENT 3 25 1 32 1 33 1 34 5 36 5 37 5 38 18 40 18 41 19 43 19 44
REMARK H PARENT 20 46 20 47 21 49 21 50 22 53 26 59 87 61 27 63 86 64 85 74
REMARK H PARENT 79 76 81 78 84 80 78 81 46 90 49 92 82 95 47 96 83 98
REMARK Flexibility Score: inf
ROOT
ATOM      1  C   UNL A   1      36.893  21.905  24.857  1.00  0.00    -0.036 C 
ATOM      2  H   UNL A   1      36.573  21.934  23.837  1.00  0.00     0.028 H 
ATOM      3  H   UNL A   1      37.760  21.291  24.990  1.00  0.00     0.028 H 
ENDROOT
BRANCH   1   4
ATOM      4  C   UNL A   1      35.773  21.296  25.702  1.00  0.00     0.017 C 
ATOM      5  H   UNL A   1      36.172  20.979  26.643  1.00  0.00     0.049 H 
ATOM      6  H   UNL A   1      35.013  22.033  25.856  1.00  0.00     0.049 H 
BRANCH   4   7
ATOM      7  N   UNL A   1      35.195  20.160  25.023  1.00  0.00    -0.356 N 
ATOM      8  C   UNL A   1      33.915  19.908  24.651  1.00  0.00     0.220 C 
ATOM      9  O   UNL A   1      33.667  18.793  24.185  1.00  0.00    -0.275 OA
ATOM     10  H   UNL A   1      35.836  19.450  24.792  1.00  0.00     0.163 HD
BRANCH   8  11
ATOM     11  C   UNL A   1      32.844  20.983  24.683  1.00  0.00     0.028 C 
ATOM     12  H   UNL A   1      31.905  20.478  24.776  1.00  0.00     0.037 H 
ATOM     13  H   UNL A   1      33.154  21.609  25.493  1.00  0.00     0.037 H 
BRANCH  11  14
ATOM     14  C   UNL A   1      32.702  21.968  23.516  1.00  0.00    -0.025 C 
ATOM     15  H   UNL A   1      32.577  21.374  22.636  1.00  0.00     0.029 H 
ATOM     16  H   UNL A   1      31.894  22.589  23.843  1.00  0.00     0.029 H 
BRANCH  14  17
ATOM     17  C   UNL A   1      33.793  23.002  23.186  1.00  0.00     0.037 C 
ATOM     18  H   UNL A   1      34.732  22.512  23.339  1.00  0.00     0.051 H 
ATOM     19  H   UNL A   1      33.531  23.307  22.194  1.00  0.00     0.051 H 
BRANCH  17  20
ATOM     20  N   UNL A   1      33.872  24.274  23.898  1.00  0.00    -0.262 N 
ATOM     21  C   UNL A   1      32.728  28.249  26.155  1.00  0.00     0.039 A 
ATOM     22  C   UNL A   1      33.085  28.811  24.921  1.00  0.00    -0.037 A 
ATOM     23  N   UNL A   1      32.854  26.929  26.419  1.00  0.00    -0.241 NA
ATOM     24  C   UNL A   1      33.560  27.988  23.883  1.00  0.00    -0.033 A 
ATOM     25  H   UNL A   1      32.999  29.828  24.773  1.00  0.00     0.064 H 
ATOM     26  C   UNL A   1      33.305  26.170  25.406  1.00  0.00     0.146 A 
ATOM     27  C   UNL A   1      33.600  26.622  24.135  1.00  0.00     0.081 A 
ATOM     28  S   UNL A   1      33.647  24.447  25.584  1.00  0.00    -0.035 S 
ATOM     29  C   UNL A   1      33.866  25.493  23.211  1.00  0.00     0.270 A 
ATOM     30  O   UNL A   1      33.958  25.641  22.000  1.00  0.00    -0.268 OA
BRANCH  21  31
ATOM     31  C   UNL A   1      32.146  29.093  27.250  1.00  0.00    -0.022 C 
ATOM     32  H   UNL A   1      32.820  29.115  28.080  1.00  0.00     0.030 H 
ATOM     33  H   UNL A   1      31.210  28.678  27.560  1.00  0.00     0.030 H 
ATOM     34  H   UNL A   1      31.992  30.088  26.889  1.00  0.00     0.030 H 
ENDBRANCH  21  31
BRANCH  24  35
ATOM     35  C   UNL A   1      34.030  28.578  22.591  1.00  0.00    -0.039 C 
ATOM     36  H   UNL A   1      34.195  29.627  22.717  1.00  0.00     0.028 H 
ATOM     37  H   UNL A   1      33.288  28.421  21.837  1.00  0.00     0.028 H 
ATOM     38  H   UNL A   1      34.945  28.107  22.297  1.00  0.00     0.028 H 
ENDBRANCH  24  35
ENDBRANCH  17  20
ENDBRANCH  14  17
ENDBRANCH  11  14
ENDBRANCH   8  11
ENDBRANCH   4   7
ENDBRANCH   1   4
BRANCH   1  39
ATOM     39  C   UNL A   1      37.272  23.324  25.289  1.00  0.00    -0.052 C 
ATOM     40  H   UNL A   1      36.413  23.772  25.743  1.00  0.00     0.027 H 
ATOM     41  H   UNL A   1      37.600  23.827  24.404  1.00  0.00     0.027 H 
BRANCH  39  42
ATOM     42  C   UNL A   1      38.440  23.414  26.288  1.00  0.00    -0.052 C 
ATOM     43  H   UNL A   1      38.028  23.644  27.249  1.00  0.00     0.027 H 
ATOM     44  H   UNL A   1      39.092  24.165  25.895  1.00  0.00     0.027 H 
BRANCH  42  45
ATOM     45  C   UNL A   1      39.306  22.156  26.438  1.00  0.00    -0.036 C 
ATOM     46  H   UNL A   1      39.759  21.939  25.493  1.00  0.00     0.028 H 
ATOM     47  H   UNL A   1      38.665  21.364  26.767  1.00  0.00     0.028 H 
BRANCH  45  48
ATOM     48  C   UNL A   1      40.404  22.306  27.475  1.00  0.00     0.018 C 
ATOM     49  H   UNL A   1      40.291  21.532  28.206  1.00  0.00     0.049 H 
ATOM     50  H   UNL A   1      40.307  23.278  27.911  1.00  0.00     0.049 H 
BRANCH  48  51
ATOM     51  N   UNL A   1      41.747  22.210  26.897  1.00  0.00    -0.352 N 
ATOM     52  C   UNL A   1      42.571  23.221  26.429  1.00  0.00     0.251 C 
ATOM     53  H   UNL A   1      42.115  21.300  26.831  1.00  0.00     0.163 HD
ATOM     54  O   UNL A   1      43.514  22.981  25.697  1.00  0.00    -0.269 OA
BRANCH  52  55
ATOM     55  C   UNL A   1      42.285  24.603  26.848  1.00  0.00     0.039 A 
ATOM     56  C   UNL A   1      41.433  25.444  26.127  1.00  0.00    -0.049 A 
ATOM     57  C   UNL A   1      42.894  25.048  28.014  1.00  0.00    -0.049 A 
ATOM     58  C   UNL A   1      41.184  26.720  26.628  1.00  0.00    -0.053 A 
ATOM     59  H   UNL A   1      41.000  25.128  25.245  1.00  0.00     0.063 H 
ATOM     60  C   UNL A   1      42.440  26.171  28.633  1.00  0.00    -0.053 A 
ATOM     61  H   UNL A   1      43.692  24.526  28.410  1.00  0.00     0.063 H 
ATOM     62  C   UNL A   1      41.701  27.067  27.886  1.00  0.00    -0.014 A 
ATOM     63  H   UNL A   1      40.629  27.398  26.083  1.00  0.00     0.063 H 
ATOM     64  H   UNL A   1      42.642  26.346  29.630  1.00  0.00     0.063 H 
BRANCH  62  65
ATOM     65  C   UNL A   1      41.493  28.376  28.480  1.00  0.00     0.031 A 
ATOM     66  C   UNL A   1      42.500  29.391  28.094  1.00  0.00     0.074 A 
ATOM     67  C   UNL A   1      40.355  28.679  29.144  1.00  0.00     0.049 A 
ATOM     68  N   UNL A   1      43.371  29.965  28.854  1.00  0.00    -0.248 NA
ATOM     69  C   UNL A   1      42.649  29.706  26.665  1.00  0.00    -0.034 C 
ATOM     70  C   UNL A   1      39.133  27.873  29.309  1.00  0.00    -0.036 A 
ATOM     71  N   UNL A   1      40.019  29.841  29.757  1.00  0.00    -0.354 N 
ATOM     72  C   UNL A   1      44.073  30.845  28.035  1.00  0.00     0.074 A 
ATOM     73  C   UNL A   1      43.702  30.524  26.682  1.00  0.00    -0.034 C 
ATOM     74  H   UNL A   1      42.089  29.379  25.862  1.00  0.00     0.065 H 
ATOM     75  C   UNL A   1      38.131  28.648  29.778  1.00  0.00    -0.036 A 
ATOM     76  H   UNL A   1      39.054  26.866  29.097  1.00  0.00     0.065 H 
ATOM     77  C   UNL A   1      38.684  29.940  30.127  1.00  0.00     0.049 A 
ATOM     78  H   UNL A   1      40.672  30.559  29.928  1.00  0.00     0.167 HD
ATOM     79  C   UNL A   1      44.738  31.910  28.560  1.00  0.00     0.037 A 
ATOM     80  H   UNL A   1      44.185  30.879  25.841  1.00  0.00     0.065 H 
ATOM     81  H   UNL A   1      37.142  28.367  29.873  1.00  0.00     0.065 H 
ATOM     82  C   UNL A   1      38.085  31.027  30.670  1.00  0.00     0.037 A 
ATOM     83  C   UNL A   1      44.903  31.760  29.984  1.00  0.00     0.049 A 
ATOM     84  C   UNL A   1      39.169  31.866  31.236  1.00  0.00     0.074 A 
ATOM     85  C   UNL A   1      45.622  30.910  30.799  1.00  0.00    -0.036 A 
ATOM     86  N   UNL A   1      43.942  32.329  30.780  1.00  0.00    -0.354 N 
ATOM     87  N   UNL A   1      39.923  31.505  32.238  1.00  0.00    -0.248 NA
ATOM     88  C   UNL A   1      39.706  32.926  30.400  1.00  0.00    -0.034 C 
ATOM     89  C   UNL A   1      44.784  30.684  31.934  1.00  0.00    -0.036 A 
ATOM     90  H   UNL A   1      46.562  30.521  30.627  1.00  0.00     0.065 H 
ATOM     91  C   UNL A   1      43.626  31.450  31.785  1.00  0.00     0.049 A 
ATOM     92  H   UNL A   1      43.544  33.221  30.652  1.00  0.00     0.167 HD
ATOM     93  C   UNL A   1      41.188  31.983  31.922  1.00  0.00     0.074 A 
ATOM     94  C   UNL A   1      40.966  32.937  30.838  1.00  0.00    -0.034 C 
ATOM     95  H   UNL A   1      39.246  33.504  29.679  1.00  0.00     0.065 H 
ATOM     96  H   UNL A   1      44.999  30.062  32.729  1.00  0.00     0.065 H 
ATOM     97  C   UNL A   1      42.308  31.349  32.378  1.00  0.00     0.037 A 
ATOM     98  H   UNL A   1      41.703  33.550  30.455  1.00  0.00     0.065 H 
BRANCH  79  99
ATOM     99  C   UNL A   1      44.923  33.236  27.864  1.00  0.00     0.064 A 
ATOM    100  C   UNL A   1      46.208  33.609  27.419  1.00  0.00     0.173 A 
ATOM    101  C   UNL A   1      43.960  34.269  27.865  1.00  0.00     0.173 A 
ATOM    102  F   UNL A   1      47.210  32.719  27.400  1.00  0.00    -0.203 F 
ATOM    103  C   UNL A   1      46.513  34.926  27.058  1.00  0.00     0.198 A 
ATOM    104  C   UNL A   1      44.254  35.567  27.453  1.00  0.00     0.198 A 
ATOM    105  F   UNL A   1      42.731  34.096  28.365  1.00  0.00    -0.203 F 
ATOM    106  F   UNL A   1      47.775  35.256  26.750  1.00  0.00    -0.200 F 
ATOM    107  C   UNL A   1      45.536  35.904  27.077  1.00  0.00     0.200 A 
ATOM    108  F   UNL A   1      43.297  36.505  27.499  1.00  0.00    -0.200 F 
ATOM    109  F   UNL A   1      45.836  37.175  26.781  1.00  0.00    -0.200 F 
ENDBRANCH  79  99
BRANCH  82 110
ATOM    110  C   UNL A   1      36.738  31.572  30.376  1.00  0.00     0.064 A 
ATOM    111  C   UNL A   1      35.880  31.957  31.419  1.00  0.00     0.173 A 
ATOM    112  C   UNL A   1      36.399  32.023  29.084  1.00  0.00     0.173 A 
ATOM    113  F   UNL A   1      36.156  31.601  32.682  1.00  0.00    -0.203 F 
ATOM    114  C   UNL A   1      34.776  32.786  31.193  1.00  0.00     0.198 A 
ATOM    115  C   UNL A   1      35.294  32.848  28.860  1.00  0.00     0.198 A 
ATOM    116  F   UNL A   1      37.189  31.758  28.035  1.00  0.00    -0.203 F 
ATOM    117  F   UNL A   1      34.026  33.197  32.225  1.00  0.00    -0.200 F 
ATOM    118  C   UNL A   1      34.494  33.245  29.916  1.00  0.00     0.200 A 
ATOM    119  F   UNL A   1      35.054  33.315  27.627  1.00  0.00    -0.200 F 
ATOM    120  F   UNL A   1      33.484  34.100  29.711  1.00  0.00    -0.200 F 
ENDBRANCH  82 110
BRANCH  97 121
ATOM    121  C   UNL A   1      42.124  30.308  33.455  1.00  0.00     0.064 A 
ATOM    122  C   UNL A   1      41.960  28.933  33.213  1.00  0.00     0.173 A 
ATOM    123  C   UNL A   1      42.251  30.707  34.792  1.00  0.00     0.173 A 
ATOM    124  F   UNL A   1      41.919  28.451  31.966  1.00  0.00    -0.203 F 
ATOM    125  C   UNL A   1      41.889  28.010  34.259  1.00  0.00     0.198 A 
ATOM    126  C   UNL A   1      42.217  29.782  35.834  1.00  0.00     0.198 A 
ATOM    127  F   UNL A   1      42.458  32.000  35.089  1.00  0.00    -0.203 F 
ATOM    128  F   UNL A   1      41.721  26.705  33.997  1.00  0.00    -0.200 F 
ATOM    129  C   UNL A   1      42.027  28.436  35.568  1.00  0.00     0.200 A 
ATOM    130  F   UNL A   1      42.399  30.195  37.096  1.00  0.00    -0.200 F 
ATOM    131  F   UNL A   1      42.003  27.548  36.572  1.00  0.00    -0.200 F 
ENDBRANCH  97 121
ENDBRANCH  62  65
ENDBRANCH  52  55
ENDBRANCH  48  51
ENDBRANCH  45  48
ENDBRANCH  42  45
ENDBRANCH  39  42
ENDBRANCH   1  39
TORSDOF 18
ENDMDL
MODEL 2
REMARK VINA RESULT:     -11.6      2.673      4.314
REMARK SMILES Cc1cc(C)c2c(=O)n(CCCC(=O)NCCCCCCNC(=O)c3ccc(-c4c5nc(c(-c6c(F)c(F)c(F)c(F)c6F)c6ccc([nH]6)c(-c6c(F)c(F)c(F)c(F)c6F)c6nc(c(-c7c(F)c(F)c(F)c(F)c7F)c7ccc4[nH]7)C=C6)C=C5)cc3)sc2n1
REMARK SMILES IDX 17 1 16 4 15 7 13 8 14 9 12 11 11 14 10 17 9 20 2 21 3 22
REMARK SMILES IDX 90 23 4 24 89 26 6 27 88 28 7 29 8 30 1 31 5 35 18 39 19 42
REMARK SMILES IDX 20 45 21 48 22 51 23 52 24 54 25 55 26 56 87 57 27 58 86 60
REMARK SMILES IDX 28 62 29 65 30 66 80 67 31 68 85 69 79 70 81 71 32 72 84 73
REMARK SMILES IDX 78 75 77 77 33 79 65 82 45 83 64 84 46 85 49 86 63 87 82 88
REMARK SMILES IDX 47 89 48 91 62 93 83 94 50 97 34 99 35 100 43 101 36 102
REMARK SMILES IDX 37 103 41 104 44 105 38 106 39 107 42 108 40 109 66 110
REMARK SMILES IDX 67 111 75 112 68 113 69 114 73 115 76 116 70 117 71 118
REMARK SMILES IDX 74 119 72 120 51 121 52 122 60 123 53 124 54 125 58 126
REMARK SMILES IDX 61 127 55 128 56 129 59 130 57 131
REMARK H PARENT 17 2 17 3 16 5 16 6 15 10 12 12 12 13 11 15 11 16 10 18 10 19
REMARK H PARENT 3 25 1 32 1 33 1 34 5 36 5 37 5 38 18 40 18 41 19 43 19 44
REMARK H PARENT 20 46 20 47 21 49 21 50 22 53 26 59 87 61 27 63 86 64 85 74
REMARK H PARENT 79 76 81 78 84 80 78 81 46 90 49 92 82 95 47 96 83 98
REMARK Flexibility Score: inf
ROOT
ATOM      1  C   UNL A   1      39.162  21.937  26.405  1.00  0.00    -0.036 C 
ATOM      2  H   UNL A   1      38.969  21.296  25.570  1.00  0.00     0.028 H 
ATOM      3  H   UNL A   1      38.727  21.563  27.308  1.00  0.00     0.028 H 
ENDROOT
BRANCH   1   4
ATOM      4  C   UNL A   1      38.529  23.301  26.128  1.00  0.00     0.017 C 
ATOM      5  H   UNL A   1      37.862  23.549  26.928  1.00  0.00     0.049 H 
ATOM      6  H   UNL A   1      39.303  24.036  26.055  1.00  0.00     0.049 H 
BRANCH   4   7
ATOM      7  N   UNL A   1      37.792  23.269  24.887  1.00  0.00    -0.356 N 
ATOM      8  C   UNL A   1      36.459  23.349  24.645  1.00  0.00     0.220 C 
ATOM      9  O   UNL A   1      36.080  23.175  23.485  1.00  0.00    -0.275 OA
ATOM     10  H   UNL A   1      38.349  23.173  24.082  1.00  0.00     0.163 HD
BRANCH   8  11
ATOM     11  C   UNL A   1      35.473  23.759  25.723  1.00  0.00     0.028 C 
ATOM     12  H   UNL A   1      35.082  22.855  26.141  1.00  0.00     0.037 H 
ATOM     13  H   UNL A   1      36.058  24.387  26.361  1.00  0.00     0.037 H 
BRANCH  11  14
ATOM     14  C   UNL A   1      34.269  24.643  25.374  1.00  0.00    -0.025 C 
ATOM     15  H   UNL A   1      33.818  24.916  26.305  1.00  0.00     0.029 H 
ATOM     16  H   UNL A   1      34.715  25.405  24.771  1.00  0.00     0.029 H 
BRANCH  14  17
ATOM     17  C   UNL A   1      33.127  24.143  24.473  1.00  0.00     0.037 C 
ATOM     18  H   UNL A   1      32.276  24.753  24.696  1.00  0.00     0.051 H 
ATOM     19  H   UNL A   1      33.558  24.206  23.496  1.00  0.00     0.051 H 
BRANCH  17  20
ATOM     20  N   UNL A   1      32.667  22.758  24.528  1.00  0.00    -0.262 N 
ATOM     21  C   UNL A   1      32.559  18.062  24.900  1.00  0.00     0.039 A 
ATOM     22  C   UNL A   1      32.390  18.161  23.512  1.00  0.00    -0.037 A 
ATOM     23  N   UNL A   1      32.615  19.147  25.706  1.00  0.00    -0.241 NA
ATOM     24  C   UNL A   1      32.310  19.425  22.900  1.00  0.00    -0.033 A 
ATOM     25  H   UNL A   1      32.325  17.306  22.937  1.00  0.00     0.064 H 
ATOM     26  C   UNL A   1      32.541  20.338  25.090  1.00  0.00     0.146 A 
ATOM     27  C   UNL A   1      32.459  20.532  23.726  1.00  0.00     0.081 A 
ATOM     28  S   UNL A   1      32.480  21.866  25.974  1.00  0.00    -0.035 S 
ATOM     29  C   UNL A   1      32.609  21.965  23.377  1.00  0.00     0.270 A 
ATOM     30  O   UNL A   1      32.761  22.350  22.226  1.00  0.00    -0.268 OA
BRANCH  21  31
ATOM     31  C   UNL A   1      32.726  16.729  25.566  1.00  0.00    -0.022 C 
ATOM     32  H   UNL A   1      31.808  16.183  25.505  1.00  0.00     0.030 H 
ATOM     33  H   UNL A   1      32.987  16.874  26.593  1.00  0.00     0.030 H 
ATOM     34  H   UNL A   1      33.501  16.179  25.074  1.00  0.00     0.030 H 
ENDBRANCH  21  31
BRANCH  24  35
ATOM     35  C   UNL A   1      32.040  19.552  21.433  1.00  0.00    -0.039 C 
ATOM     36  H   UNL A   1      31.677  20.535  21.221  1.00  0.00     0.028 H 
ATOM     37  H   UNL A   1      31.307  18.829  21.143  1.00  0.00     0.028 H 
ATOM     38  H   UNL A   1      32.945  19.381  20.889  1.00  0.00     0.028 H 
ENDBRANCH  24  35
ENDBRANCH  17  20
ENDBRANCH  14  17
ENDBRANCH  11  14
ENDBRANCH   8  11
ENDBRANCH   4   7
ENDBRANCH   1   4
BRANCH   1  39
ATOM     39  C   UNL A   1      40.676  22.007  26.624  1.00  0.00    -0.052 C 
ATOM     40  H   UNL A   1      40.919  22.999  26.941  1.00  0.00     0.027 H 
ATOM     41  H   UNL A   1      41.125  21.733  25.692  1.00  0.00     0.027 H 
BRANCH  39  42
ATOM     42  C   UNL A   1      41.232  21.024  27.670  1.00  0.00    -0.052 C 
ATOM     43  H   UNL A   1      40.401  20.619  28.209  1.00  0.00     0.027 H 
ATOM     44  H   UNL A   1      41.910  21.598  28.266  1.00  0.00     0.027 H 
BRANCH  42  45
ATOM     45  C   UNL A   1      42.057  19.848  27.128  1.00  0.00    -0.036 C 
ATOM     46  H   UNL A   1      41.579  18.934  27.415  1.00  0.00     0.028 H 
ATOM     47  H   UNL A   1      43.041  19.933  27.541  1.00  0.00     0.028 H 
BRANCH  45  48
ATOM     48  C   UNL A   1      42.200  19.864  25.618  1.00  0.00     0.018 C 
ATOM     49  H   UNL A   1      41.789  20.780  25.245  1.00  0.00     0.049 H 
ATOM     50  H   UNL A   1      41.680  19.012  25.233  1.00  0.00     0.049 H 
BRANCH  48  51
ATOM     51  N   UNL A   1      43.595  19.765  25.180  1.00  0.00    -0.352 N 
ATOM     52  C   UNL A   1      44.500  20.778  24.908  1.00  0.00     0.251 C 
ATOM     53  H   UNL A   1      43.938  18.850  25.062  1.00  0.00     0.163 HD
ATOM     54  O   UNL A   1      45.510  20.569  24.260  1.00  0.00    -0.269 OA
BRANCH  52  55
ATOM     55  C   UNL A   1      44.216  22.125  25.431  1.00  0.00     0.039 A 
ATOM     56  C   UNL A   1      43.475  23.067  24.713  1.00  0.00    -0.049 A 
ATOM     57  C   UNL A   1      44.711  22.429  26.692  1.00  0.00    -0.049 A 
ATOM     58  C   UNL A   1      43.215  24.299  25.312  1.00  0.00    -0.053 A 
ATOM     59  H   UNL A   1      43.129  22.856  23.764  1.00  0.00     0.063 H 
ATOM     60  C   UNL A   1      44.230  23.506  27.371  1.00  0.00    -0.053 A 
ATOM     61  H   UNL A   1      45.444  21.838  27.115  1.00  0.00     0.063 H 
ATOM     62  C   UNL A   1      43.605  24.501  26.644  1.00  0.00    -0.014 A 
ATOM     63  H   UNL A   1      42.744  25.050  24.783  1.00  0.00     0.063 H 
ATOM     64  H   UNL A   1      44.329  23.576  28.395  1.00  0.00     0.063 H 
BRANCH  62  65
ATOM     65  C   UNL A   1      43.376  25.754  27.341  1.00  0.00     0.031 A 
ATOM     66  C   UNL A   1      44.333  26.831  26.996  1.00  0.00     0.074 A 
ATOM     67  C   UNL A   1      42.256  25.966  28.068  1.00  0.00     0.049 A 
ATOM     68  N   UNL A   1      45.214  27.379  27.763  1.00  0.00    -0.248 NA
ATOM     69  C   UNL A   1      44.415  27.254  25.590  1.00  0.00    -0.034 C 
ATOM     70  C   UNL A   1      41.070  25.107  28.218  1.00  0.00    -0.036 A 
ATOM     71  N   UNL A   1      41.907  27.068  28.779  1.00  0.00    -0.354 N 
ATOM     72  C   UNL A   1      45.853  28.341  26.986  1.00  0.00     0.074 A 
ATOM     73  C   UNL A   1      45.440  28.107  25.628  1.00  0.00    -0.034 C 
ATOM     74  H   UNL A   1      43.834  26.967  24.786  1.00  0.00     0.065 H 
ATOM     75  C   UNL A   1      40.062  25.809  28.781  1.00  0.00    -0.036 A 
ATOM     76  H   UNL A   1      41.016  24.115  27.935  1.00  0.00     0.065 H 
ATOM     77  C   UNL A   1      40.585  27.091  29.204  1.00  0.00     0.049 A 
ATOM     78  H   UNL A   1      42.542  27.794  28.978  1.00  0.00     0.167 HD
ATOM     79  C   UNL A   1      46.503  29.388  27.564  1.00  0.00     0.037 A 
ATOM     80  H   UNL A   1      45.877  28.539  24.798  1.00  0.00     0.065 H 
ATOM     81  H   UNL A   1      39.088  25.486  28.891  1.00  0.00     0.065 H 
ATOM     82  C   UNL A   1      39.972  28.112  29.848  1.00  0.00     0.037 A 
ATOM     83  C   UNL A   1      46.729  29.141  28.966  1.00  0.00     0.049 A 
ATOM     84  C   UNL A   1      41.049  28.947  30.435  1.00  0.00     0.074 A 
ATOM     85  C   UNL A   1      47.507  28.260  29.688  1.00  0.00    -0.036 A 
ATOM     86  N   UNL A   1      45.782  29.615  29.837  1.00  0.00    -0.354 N 
ATOM     87  N   UNL A   1      41.854  28.541  31.378  1.00  0.00    -0.248 NA
ATOM     88  C   UNL A   1      41.516  30.084  29.661  1.00  0.00    -0.034 C 
ATOM     89  C   UNL A   1      46.724  27.921  30.834  1.00  0.00    -0.036 A 
ATOM     90  H   UNL A   1      48.452  27.919  29.453  1.00  0.00     0.065 H 
ATOM     91  C   UNL A   1      45.536  28.653  30.785  1.00  0.00     0.049 A 
ATOM     92  H   UNL A   1      45.350  30.498  29.791  1.00  0.00     0.167 HD
ATOM     93  C   UNL A   1      43.088  29.086  31.053  1.00  0.00     0.074 A 
ATOM     94  C   UNL A   1      42.792  30.108  30.052  1.00  0.00    -0.034 C 
ATOM     95  H   UNL A   1      41.009  30.695  29.002  1.00  0.00     0.065 H 
ATOM     96  H   UNL A   1      46.990  27.250  31.571  1.00  0.00     0.065 H 
ATOM     97  C   UNL A   1      44.246  28.461  31.418  1.00  0.00     0.037 A 
ATOM     98  H   UNL A   1      43.492  30.774  29.688  1.00  0.00     0.065 H 
BRANCH  79  99
ATOM     99  C   UNL A   1      46.616  30.767  26.963  1.00  0.00     0.064 A 
ATOM    100  C   UNL A   1      47.868  31.414  26.948  1.00  0.00     0.173 A 
ATOM    101  C   UNL A   1      45.508  31.588  26.658  1.00  0.00     0.173 A 
ATOM    102  F   UNL A   1      48.989  30.741  27.248  1.00  0.00    -0.203 F 
ATOM    103  C   UNL A   1      47.991  32.785  26.702  1.00  0.00     0.198 A 
ATOM    104  C   UNL A   1      45.639  32.943  26.360  1.00  0.00     0.198 A 
ATOM    105  F   UNL A   1      44.248  31.145  26.743  1.00  0.00    -0.203 F 
ATOM    106  F   UNL A   1      49.189  33.376  26.810  1.00  0.00    -0.200 F 
ATOM    107  C   UNL A   1      46.876  33.549  26.410  1.00  0.00     0.200 A 
ATOM    108  F   UNL A   1      44.543  33.670  26.100  1.00  0.00    -0.200 F 
ATOM    109  F   UNL A   1      46.983  34.871  26.224  1.00  0.00    -0.200 F 
ENDBRANCH  79  99
BRANCH  82 110
ATOM    110  C   UNL A   1      38.597  28.628  29.646  1.00  0.00     0.064 A 
ATOM    111  C   UNL A   1      37.778  28.928  30.746  1.00  0.00     0.173 A 
ATOM    112  C   UNL A   1      38.184  29.138  28.399  1.00  0.00     0.173 A 
ATOM    113  F   UNL A   1      38.122  28.512  31.974  1.00  0.00    -0.203 F 
ATOM    114  C   UNL A   1      36.639  29.731  30.617  1.00  0.00     0.198 A 
ATOM    115  C   UNL A   1      37.046  29.938  28.271  1.00  0.00     0.198 A 
ATOM    116  F   UNL A   1      38.932  28.957  27.301  1.00  0.00    -0.203 F 
ATOM    117  F   UNL A   1      35.926  30.059  31.703  1.00  0.00    -0.200 F 
ATOM    118  C   UNL A   1      36.285  30.249  29.382  1.00  0.00     0.200 A 
ATOM    119  F   UNL A   1      36.734  30.464  27.078  1.00  0.00    -0.200 F 
ATOM    120  F   UNL A   1      35.241  31.082  29.270  1.00  0.00    -0.200 F 
ENDBRANCH  82 110
BRANCH  97 121
ATOM    121  C   UNL A   1      44.141  27.339  32.420  1.00  0.00     0.064 A 
ATOM    122  C   UNL A   1      44.133  25.972  32.087  1.00  0.00     0.173 A 
ATOM    123  C   UNL A   1      44.181  27.660  33.783  1.00  0.00     0.173 A 
ATOM    124  F   UNL A   1      44.184  25.572  30.812  1.00  0.00    -0.203 F 
ATOM    125  C   UNL A   1      44.127  24.980  33.070  1.00  0.00     0.198 A 
ATOM    126  C   UNL A   1      44.212  26.670  34.764  1.00  0.00     0.198 A 
ATOM    127  F   UNL A   1      44.238  28.945  34.167  1.00  0.00    -0.203 F 
ATOM    128  F   UNL A   1      44.108  23.686  32.721  1.00  0.00    -0.200 F 
ATOM    129  C   UNL A   1      44.177  25.332  34.407  1.00  0.00     0.200 A 
ATOM    130  F   UNL A   1      44.308  27.016  36.055  1.00  0.00    -0.200 F 
ATOM    131  F   UNL A   1      44.215  24.382  35.353  1.00  0.00    -0.200 F 
ENDBRANCH  97 121
ENDBRANCH  62  65
ENDBRANCH  52  55
ENDBRANCH  48  51
ENDBRANCH  45  48
ENDBRANCH  42  45
ENDBRANCH  39  42
ENDBRANCH   1  39
TORSDOF 18
ENDMDL
MODEL 3
REMARK VINA RESULT:     -11.4      3.730      6.846
REMARK SMILES Cc1cc(C)c2c(=O)n(CCCC(=O)NCCCCCCNC(=O)c3ccc(-c4c5nc(c(-c6c(F)c(F)c(F)c(F)c6F)c6ccc([nH]6)c(-c6c(F)c(F)c(F)c(F)c6F)c6nc(c(-c7c(F)c(F)c(F)c(F)c7F)c7ccc4[nH]7)C=C6)C=C5)cc3)sc2n1
REMARK SMILES IDX 17 1 16 4 15 7 13 8 14 9 12 11 11 14 10 17 9 20 2 21 3 22
REMARK SMILES IDX 90 23 4 24 89 26 6 27 88 28 7 29 8 30 1 31 5 35 18 39 19 42
REMARK SMILES IDX 20 45 21 48 22 51 23 52 24 54 25 55 26 56 87 57 27 58 86 60
REMARK SMILES IDX 28 62 29 65 30 66 80 67 31 68 85 69 79 70 81 71 32 72 84 73
REMARK SMILES IDX 78 75 77 77 33 79 65 82 45 83 64 84 46 85 49 86 63 87 82 88
REMARK SMILES IDX 47 89 48 91 62 93 83 94 50 97 34 99 35 100 43 101 36 102
REMARK SMILES IDX 37 103 41 104 44 105 38 106 39 107 42 108 40 109 66 110
REMARK SMILES IDX 67 111 75 112 68 113 69 114 73 115 76 116 70 117 71 118
REMARK SMILES IDX 74 119 72 120 51 121 52 122 60 123 53 124 54 125 58 126
REMARK SMILES IDX 61 127 55 128 56 129 59 130 57 131
REMARK H PARENT 17 2 17 3 16 5 16 6 15 10 12 12 12 13 11 15 11 16 10 18 10 19
REMARK H PARENT 3 25 1 32 1 33 1 34 5 36 5 37 5 38 18 40 18 41 19 43 19 44
REMARK H PARENT 20 46 20 47 21 49 21 50 22 53 26 59 87 61 27 63 86 64 85 74
REMARK H PARENT 79 76 81 78 84 80 78 81 46 90 49 92 82 95 47 96 83 98
REMARK Flexibility Score: inf
ROOT
ATOM      1  C   UNL A   1      44.579  26.769  26.024  1.00  0.00    -0.036 C 
ATOM      2  H   UNL A   1      44.000  27.031  26.885  1.00  0.00     0.028 H 
ATOM      3  H   UNL A   1      45.165  25.888  26.186  1.00  0.00     0.028 H 
ENDROOT
BRANCH   1   4
ATOM      4  C   UNL A   1      45.550  27.911  25.725  1.00  0.00     0.017 C 
ATOM      5  H   UNL A   1      45.059  28.847  25.897  1.00  0.00     0.049 H 
ATOM      6  H   UNL A   1      46.402  27.821  26.366  1.00  0.00     0.049 H 
BRANCH   4   7
ATOM      7  N   UNL A   1      45.987  27.850  24.350  1.00  0.00    -0.356 N 
ATOM      8  C   UNL A   1      47.230  27.730  23.820  1.00  0.00     0.220 C 
ATOM      9  O   UNL A   1      47.338  27.823  22.595  1.00  0.00    -0.275 OA
ATOM     10  H   UNL A   1      45.262  27.905  23.686  1.00  0.00     0.163 HD
BRANCH   8  11
ATOM     11  C   UNL A   1      48.433  27.370  24.672  1.00  0.00     0.028 C 
ATOM     12  H   UNL A   1      49.295  27.474  24.046  1.00  0.00     0.037 H 
ATOM     13  H   UNL A   1      48.345  28.033  25.508  1.00  0.00     0.037 H 
BRANCH  11  14
ATOM     14  C   UNL A   1      48.529  25.989  25.332  1.00  0.00    -0.025 C 
ATOM     15  H   UNL A   1      47.613  25.484  25.105  1.00  0.00     0.029 H 
ATOM     16  H   UNL A   1      49.445  25.610  24.928  1.00  0.00     0.029 H 
BRANCH  14  17
ATOM     17  C   UNL A   1      48.748  25.823  26.846  1.00  0.00     0.037 C 
ATOM     18  H   UNL A   1      49.158  24.844  26.987  1.00  0.00     0.051 H 
ATOM     19  H   UNL A   1      49.355  26.671  27.086  1.00  0.00     0.051 H 
BRANCH  17  20
ATOM     20  N   UNL A   1      47.642  25.947  27.790  1.00  0.00    -0.262 N 
ATOM     21  C   UNL A   1      45.067  25.920  31.736  1.00  0.00     0.039 A 
ATOM     22  C   UNL A   1      44.560  24.750  31.154  1.00  0.00    -0.037 A 
ATOM     23  N   UNL A   1      45.962  26.717  31.109  1.00  0.00    -0.241 NA
ATOM     24  C   UNL A   1      45.011  24.342  29.884  1.00  0.00    -0.033 A 
ATOM     25  H   UNL A   1      43.857  24.186  31.656  1.00  0.00     0.064 H 
ATOM     26  C   UNL A   1      46.376  26.297  29.903  1.00  0.00     0.146 A 
ATOM     27  C   UNL A   1      45.996  25.120  29.289  1.00  0.00     0.081 A 
ATOM     28  S   UNL A   1      47.451  27.252  28.878  1.00  0.00    -0.035 S 
ATOM     29  C   UNL A   1      46.799  24.866  28.069  1.00  0.00     0.270 A 
ATOM     30  O   UNL A   1      46.774  23.798  27.474  1.00  0.00    -0.268 OA
BRANCH  21  31
ATOM     31  C   UNL A   1      44.662  26.333  33.119  1.00  0.00    -0.022 C 
ATOM     32  H   UNL A   1      45.335  27.084  33.478  1.00  0.00     0.030 H 
ATOM     33  H   UNL A   1      44.695  25.484  33.769  1.00  0.00     0.030 H 
ATOM     34  H   UNL A   1      43.668  26.728  33.097  1.00  0.00     0.030 H 
ENDBRANCH  21  31
BRANCH  24  35
ATOM     35  C   UNL A   1      44.417  23.147  29.208  1.00  0.00    -0.039 C 
ATOM     36  H   UNL A   1      44.756  23.106  28.194  1.00  0.00     0.028 H 
ATOM     37  H   UNL A   1      43.350  23.221  29.225  1.00  0.00     0.028 H 
ATOM     38  H   UNL A   1      44.722  22.259  29.721  1.00  0.00     0.028 H 
ENDBRANCH  24  35
ENDBRANCH  17  20
ENDBRANCH  14  17
ENDBRANCH  11  14
ENDBRANCH   8  11
ENDBRANCH   4   7
ENDBRANCH   1   4
BRANCH   1  39
ATOM     39  C   UNL A   1      43.621  26.471  24.867  1.00  0.00    -0.052 C 
ATOM     40  H   UNL A   1      44.208  26.271  23.995  1.00  0.00     0.027 H 
ATOM     41  H   UNL A   1      42.993  27.331  24.771  1.00  0.00     0.027 H 
BRANCH  39  42
ATOM     42  C   UNL A   1      42.677  25.276  25.089  1.00  0.00    -0.052 C 
ATOM     43  H   UNL A   1      41.850  25.387  24.420  1.00  0.00     0.027 H 
ATOM     44  H   UNL A   1      42.416  25.310  26.126  1.00  0.00     0.027 H 
BRANCH  42  45
ATOM     45  C   UNL A   1      43.279  23.882  24.864  1.00  0.00    -0.036 C 
ATOM     46  H   UNL A   1      44.345  23.972  24.821  1.00  0.00     0.028 H 
ATOM     47  H   UNL A   1      42.872  23.503  23.949  1.00  0.00     0.028 H 
BRANCH  45  48
ATOM     48  C   UNL A   1      42.923  22.892  25.957  1.00  0.00     0.018 C 
ATOM     49  H   UNL A   1      43.099  23.355  26.907  1.00  0.00     0.049 H 
ATOM     50  H   UNL A   1      43.534  22.025  25.821  1.00  0.00     0.049 H 
BRANCH  48  51
ATOM     51  N   UNL A   1      41.523  22.462  25.898  1.00  0.00    -0.352 N 
ATOM     52  C   UNL A   1      40.438  22.913  26.632  1.00  0.00     0.251 C 
ATOM     53  H   UNL A   1      41.326  21.752  25.245  1.00  0.00     0.163 HD
ATOM     54  O   UNL A   1      39.411  22.264  26.707  1.00  0.00    -0.269 OA
BRANCH  52  55
ATOM     55  C   UNL A   1      40.553  24.212  27.318  1.00  0.00     0.039 A 
ATOM     56  C   UNL A   1      41.499  24.450  28.317  1.00  0.00    -0.049 A 
ATOM     57  C   UNL A   1      39.676  25.213  26.922  1.00  0.00    -0.049 A 
ATOM     58  C   UNL A   1      41.564  25.726  28.874  1.00  0.00    -0.053 A 
ATOM     59  H   UNL A   1      42.134  23.701  28.635  1.00  0.00     0.063 H 
ATOM     60  C   UNL A   1      39.922  26.507  27.264  1.00  0.00    -0.053 A 
ATOM     61  H   UNL A   1      38.838  24.976  26.368  1.00  0.00     0.063 H 
ATOM     62  C   UNL A   1      40.762  26.743  28.334  1.00  0.00    -0.014 A 
ATOM     63  H   UNL A   1      42.191  25.919  29.671  1.00  0.00     0.063 H 
ATOM     64  H   UNL A   1      39.494  27.286  26.739  1.00  0.00     0.063 H 
BRANCH  62  65
ATOM     65  C   UNL A   1      40.766  28.098  28.857  1.00  0.00     0.031 A 
ATOM     66  C   UNL A   1      41.840  28.962  28.314  1.00  0.00     0.074 A 
ATOM     67  C   UNL A   1      39.742  28.572  29.603  1.00  0.00     0.049 A 
ATOM     68  N   UNL A   1      42.843  29.467  28.951  1.00  0.00    -0.248 NA
ATOM     69  C   UNL A   1      41.882  29.177  26.860  1.00  0.00    -0.034 C 
ATOM     70  C   UNL A   1      38.459  27.931  29.933  1.00  0.00    -0.036 A 
ATOM     71  N   UNL A   1      39.606  29.799  30.166  1.00  0.00    -0.354 N 
ATOM     72  C   UNL A   1      43.557  30.209  28.014  1.00  0.00     0.074 A 
ATOM     73  C   UNL A   1      43.019  29.862  26.725  1.00  0.00    -0.034 C 
ATOM     74  H   UNL A   1      41.210  28.878  26.136  1.00  0.00     0.065 H 
ATOM     75  C   UNL A   1      37.604  28.846  30.440  1.00  0.00    -0.036 A 
ATOM     76  H   UNL A   1      38.244  26.930  29.796  1.00  0.00     0.065 H 
ATOM     77  C   UNL A   1      38.334  30.079  30.651  1.00  0.00     0.049 A 
ATOM     78  H   UNL A   1      40.351  30.441  30.228  1.00  0.00     0.167 HD
ATOM     79  C   UNL A   1      44.389  31.212  28.404  1.00  0.00     0.037 A 
ATOM     80  H   UNL A   1      43.452  30.109  25.822  1.00  0.00     0.065 H 
ATOM     81  H   UNL A   1      36.604  28.692  30.644  1.00  0.00     0.065 H 
ATOM     82  C   UNL A   1      37.922  31.258  31.173  1.00  0.00     0.037 A 
ATOM     83  C   UNL A   1      44.677  31.122  29.813  1.00  0.00     0.049 A 
ATOM     84  C   UNL A   1      39.147  31.989  31.581  1.00  0.00     0.074 A 
ATOM     85  C   UNL A   1      45.370  30.237  30.613  1.00  0.00    -0.036 A 
ATOM     86  N   UNL A   1      43.872  31.845  30.655  1.00  0.00    -0.354 N 
ATOM     87  N   UNL A   1      39.950  31.595  32.530  1.00  0.00    -0.248 NA
ATOM     88  C   UNL A   1      39.716  32.930  30.631  1.00  0.00    -0.034 C 
ATOM     89  C   UNL A   1      44.629  30.176  31.833  1.00  0.00    -0.036 A 
ATOM     90  H   UNL A   1      46.237  29.728  30.381  1.00  0.00     0.065 H 
ATOM     91  C   UNL A   1      43.558  31.067  31.741  1.00  0.00     0.049 A 
ATOM     92  H   UNL A   1      43.569  32.770  30.507  1.00  0.00     0.167 HD
ATOM     93  C   UNL A   1      41.223  31.898  32.068  1.00  0.00     0.074 A 
ATOM     94  C   UNL A   1      41.007  32.811  30.949  1.00  0.00    -0.034 C 
ATOM     95  H   UNL A   1      39.256  33.518  29.918  1.00  0.00     0.065 H 
ATOM     96  H   UNL A   1      44.849  29.576  32.644  1.00  0.00     0.065 H 
ATOM     97  C   UNL A   1      42.303  31.159  32.459  1.00  0.00     0.037 A 
ATOM     98  H   UNL A   1      41.767  33.309  30.460  1.00  0.00     0.065 H 
BRANCH  79  99
ATOM     99  C   UNL A   1      44.656  32.466  27.608  1.00  0.00     0.064 A 
ATOM    100  C   UNL A   1      45.851  32.574  26.868  1.00  0.00     0.173 A 
ATOM    101  C   UNL A   1      43.929  33.668  27.762  1.00  0.00     0.173 A 
ATOM    102  F   UNL A   1      46.637  31.505  26.680  1.00  0.00    -0.203 F 
ATOM    103  C   UNL A   1      46.306  33.800  26.372  1.00  0.00     0.198 A 
ATOM    104  C   UNL A   1      44.359  34.877  27.220  1.00  0.00     0.198 A 
ATOM    105  F   UNL A   1      42.837  33.746  28.531  1.00  0.00    -0.203 F 
ATOM    106  F   UNL A   1      47.503  33.872  25.774  1.00  0.00    -0.200 F 
ATOM    107  C   UNL A   1      45.561  34.951  26.550  1.00  0.00     0.200 A 
ATOM    108  F   UNL A   1      43.631  35.985  27.422  1.00  0.00    -0.200 F 
ATOM    109  F   UNL A   1      46.019  36.134  26.121  1.00  0.00    -0.200 F 
ENDBRANCH  79  99
BRANCH  82 110
ATOM    110  C   UNL A   1      36.624  31.945  30.970  1.00  0.00     0.064 A 
ATOM    111  C   UNL A   1      35.763  32.180  32.054  1.00  0.00     0.173 A 
ATOM    112  C   UNL A   1      36.355  32.662  29.787  1.00  0.00     0.173 A 
ATOM    113  F   UNL A   1      35.975  31.565  33.227  1.00  0.00    -0.203 F 
ATOM    114  C   UNL A   1      34.724  33.114  31.977  1.00  0.00     0.198 A 
ATOM    115  C   UNL A   1      35.316  33.593  29.711  1.00  0.00     0.198 A 
ATOM    116  F   UNL A   1      37.157  32.552  28.719  1.00  0.00    -0.203 F 
ATOM    117  F   UNL A   1      33.972  33.368  33.057  1.00  0.00    -0.200 F 
ATOM    118  C   UNL A   1      34.513  33.832  30.811  1.00  0.00     0.200 A 
ATOM    119  F   UNL A   1      35.145  34.308  28.590  1.00  0.00    -0.200 F 
ATOM    120  F   UNL A   1      33.569  34.782  30.761  1.00  0.00    -0.200 F 
ENDBRANCH  82 110
BRANCH  97 121
ATOM    121  C   UNL A   1      42.109  30.208  33.615  1.00  0.00     0.064 A 
ATOM    122  C   UNL A   1      41.748  28.856  33.481  1.00  0.00     0.173 A 
ATOM    123  C   UNL A   1      42.429  30.656  34.903  1.00  0.00     0.173 A 
ATOM    124  F   UNL A   1      41.512  28.320  32.279  1.00  0.00    -0.203 F 
ATOM    125  C   UNL A   1      41.677  28.005  34.586  1.00  0.00     0.198 A 
ATOM    126  C   UNL A   1      42.394  29.798  36.001  1.00  0.00     0.198 A 
ATOM    127  F   UNL A   1      42.827  31.924  35.093  1.00  0.00    -0.203 F 
ATOM    128  F   UNL A   1      41.319  26.723  34.429  1.00  0.00    -0.200 F 
ATOM    129  C   UNL A   1      42.009  28.477  35.844  1.00  0.00     0.200 A 
ATOM    130  F   UNL A   1      42.762  30.248  37.209  1.00  0.00    -0.200 F 
ATOM    131  F   UNL A   1      41.983  27.652  36.901  1.00  0.00    -0.200 F 
ENDBRANCH  97 121
ENDBRANCH  62  65
ENDBRANCH  52  55
ENDBRANCH  48  51
ENDBRANCH  45  48
ENDBRANCH  42  45
ENDBRANCH  39  42
ENDBRANCH   1  39
TORSDOF 18
ENDMDL
MODEL 4
REMARK VINA RESULT:     -11.4      3.374      9.039
REMARK SMILES Cc1cc(C)c2c(=O)n(CCCC(=O)NCCCCCCNC(=O)c3ccc(-c4c5nc(c(-c6c(F)c(F)c(F)c(F)c6F)c6ccc([nH]6)c(-c6c(F)c(F)c(F)c(F)c6F)c6nc(c(-c7c(F)c(F)c(F)c(F)c7F)c7ccc4[nH]7)C=C6)C=C5)cc3)sc2n1
REMARK SMILES IDX 17 1 16 4 15 7 13 8 14 9 12 11 11 14 10 17 9 20 2 21 3 22
REMARK SMILES IDX 90 23 4 24 89 26 6 27 88 28 7 29 8 30 1 31 5 35 18 39 19 42
REMARK SMILES IDX 20 45 21 48 22 51 23 52 24 54 25 55 26 56 87 57 27 58 86 60
REMARK SMILES IDX 28 62 29 65 30 66 80 67 31 68 85 69 79 70 81 71 32 72 84 73
REMARK SMILES IDX 78 75 77 77 33 79 65 82 45 83 64 84 46 85 49 86 63 87 82 88
REMARK SMILES IDX 47 89 48 91 62 93 83 94 50 97 34 99 35 100 43 101 36 102
REMARK SMILES IDX 37 103 41 104 44 105 38 106 39 107 42 108 40 109 66 110
REMARK SMILES IDX 67 111 75 112 68 113 69 114 73 115 76 116 70 117 71 118
REMARK SMILES IDX 74 119 72 120 51 121 52 122 60 123 53 124 54 125 58 126
REMARK SMILES IDX 61 127 55 128 56 129 59 130 57 131
REMARK H PARENT 17 2 17 3 16 5 16 6 15 10 12 12 12 13 11 15 11 16 10 18 10 19
REMARK H PARENT 3 25 1 32 1 33 1 34 5 36 5 37 5 38 18 40 18 41 19 43 19 44
REMARK H PARENT 20 46 20 47 21 49 21 50 22 53 26 59 87 61 27 63 86 64 85 74
REMARK H PARENT 79 76 81 78 84 80 78 81 46 90 49 92 82 95 47 96 83 98
REMARK Flexibility Score: inf
ROOT
ATOM      1  C   UNL A   1      32.692  29.017  26.998  1.00  0.00    -0.036 C 
ATOM      2  H   UNL A   1      32.296  28.024  26.952  1.00  0.00     0.028 H 
ATOM      3  H   UNL A   1      32.634  29.428  27.984  1.00  0.00     0.028 H 
ENDROOT
BRANCH   1   4
ATOM      4  C   UNL A   1      31.860  29.915  26.083  1.00  0.00     0.017 C 
ATOM      5  H   UNL A   1      30.830  29.633  26.152  1.00  0.00     0.049 H 
ATOM      6  H   UNL A   1      31.982  30.933  26.388  1.00  0.00     0.049 H 
BRANCH   4   7
ATOM      7  N   UNL A   1      32.298  29.779  24.714  1.00  0.00    -0.356 N 
ATOM      8  C   UNL A   1      31.782  29.063  23.684  1.00  0.00     0.220 C 
ATOM      9  O   UNL A   1      32.428  29.028  22.635  1.00  0.00    -0.275 OA
ATOM     10  H   UNL A   1      33.108  30.293  24.490  1.00  0.00     0.163 HD
BRANCH   8  11
ATOM     11  C   UNL A   1      30.406  28.427  23.762  1.00  0.00     0.028 C 
ATOM     12  H   UNL A   1      29.865  28.960  24.516  1.00  0.00     0.037 H 
ATOM     13  H   UNL A   1      30.050  28.493  22.756  1.00  0.00     0.037 H 
BRANCH  11  14
ATOM     14  C   UNL A   1      30.261  26.935  24.086  1.00  0.00    -0.025 C 
ATOM     15  H   UNL A   1      29.217  26.713  24.013  1.00  0.00     0.029 H 
ATOM     16  H   UNL A   1      30.937  26.486  23.388  1.00  0.00     0.029 H 
BRANCH  14  17
ATOM     17  C   UNL A   1      30.736  26.342  25.424  1.00  0.00     0.037 C 
ATOM     18  H   UNL A   1      30.735  27.146  26.129  1.00  0.00     0.051 H 
ATOM     19  H   UNL A   1      30.053  25.531  25.573  1.00  0.00     0.051 H 
BRANCH  17  20
ATOM     20  N   UNL A   1      32.036  25.688  25.545  1.00  0.00    -0.262 N 
ATOM     21  C   UNL A   1      35.699  22.796  24.895  1.00  0.00     0.039 A 
ATOM     22  C   UNL A   1      35.200  22.232  26.077  1.00  0.00    -0.037 A 
ATOM     23  N   UNL A   1      35.170  23.911  24.340  1.00  0.00    -0.241 NA
ATOM     24  C   UNL A   1      34.083  22.802  26.714  1.00  0.00    -0.033 A 
ATOM     25  H   UNL A   1      35.652  21.396  26.480  1.00  0.00     0.064 H 
ATOM     26  C   UNL A   1      34.102  24.428  24.970  1.00  0.00     0.146 A 
ATOM     27  C   UNL A   1      33.493  23.893  26.088  1.00  0.00     0.081 A 
ATOM     28  S   UNL A   1      33.341  25.942  24.471  1.00  0.00    -0.035 S 
ATOM     29  C   UNL A   1      32.222  24.591  26.393  1.00  0.00     0.270 A 
ATOM     30  O   UNL A   1      31.420  24.169  27.215  1.00  0.00    -0.268 OA
BRANCH  21  31
ATOM     31  C   UNL A   1      36.838  22.162  24.155  1.00  0.00    -0.022 C 
ATOM     32  H   UNL A   1      37.576  21.828  24.854  1.00  0.00     0.030 H 
ATOM     33  H   UNL A   1      37.274  22.878  23.490  1.00  0.00     0.030 H 
ATOM     34  H   UNL A   1      36.477  21.327  23.592  1.00  0.00     0.030 H 
ENDBRANCH  21  31
BRANCH  24  35
ATOM     35  C   UNL A   1      33.592  22.269  28.023  1.00  0.00    -0.039 C 
ATOM     36  H   UNL A   1      33.509  21.204  27.966  1.00  0.00     0.028 H 
ATOM     37  H   UNL A   1      32.633  22.690  28.242  1.00  0.00     0.028 H 
ATOM     38  H   UNL A   1      34.283  22.531  28.796  1.00  0.00     0.028 H 
ENDBRANCH  24  35
ENDBRANCH  17  20
ENDBRANCH  14  17
ENDBRANCH  11  14
ENDBRANCH   8  11
ENDBRANCH   4   7
ENDBRANCH   1   4
BRANCH   1  39
ATOM     39  C   UNL A   1      34.173  28.968  26.613  1.00  0.00    -0.052 C 
ATOM     40  H   UNL A   1      34.252  29.200  25.572  1.00  0.00     0.027 H 
ATOM     41  H   UNL A   1      34.513  27.984  26.859  1.00  0.00     0.027 H 
BRANCH  39  42
ATOM     42  C   UNL A   1      35.083  29.938  27.387  1.00  0.00    -0.052 C 
ATOM     43  H   UNL A   1      35.991  30.046  26.831  1.00  0.00     0.027 H 
ATOM     44  H   UNL A   1      35.205  29.502  28.356  1.00  0.00     0.027 H 
BRANCH  42  45
ATOM     45  C   UNL A   1      34.520  31.344  27.640  1.00  0.00    -0.036 C 
ATOM     46  H   UNL A   1      33.868  31.304  28.488  1.00  0.00     0.028 H 
ATOM     47  H   UNL A   1      34.004  31.645  26.751  1.00  0.00     0.028 H 
BRANCH  45  48
ATOM     48  C   UNL A   1      35.595  32.380  27.908  1.00  0.00     0.018 C 
ATOM     49  H   UNL A   1      35.539  33.135  27.150  1.00  0.00     0.049 H 
ATOM     50  H   UNL A   1      36.540  31.877  27.896  1.00  0.00     0.049 H 
BRANCH  48  51
ATOM     51  N   UNL A   1      35.451  33.020  29.218  1.00  0.00    -0.352 N 
ATOM     52  C   UNL A   1      35.910  32.596  30.455  1.00  0.00     0.251 C 
ATOM     53  H   UNL A   1      34.958  33.873  29.220  1.00  0.00     0.163 HD
ATOM     54  O   UNL A   1      35.458  33.052  31.488  1.00  0.00    -0.269 OA
BRANCH  52  55
ATOM     55  C   UNL A   1      36.973  31.577  30.490  1.00  0.00     0.039 A 
ATOM     56  C   UNL A   1      36.700  30.213  30.614  1.00  0.00    -0.049 A 
ATOM     57  C   UNL A   1      38.282  32.029  30.384  1.00  0.00    -0.049 A 
ATOM     58  C   UNL A   1      37.769  29.321  30.589  1.00  0.00    -0.053 A 
ATOM     59  H   UNL A   1      35.731  29.875  30.721  1.00  0.00     0.063 H 
ATOM     60  C   UNL A   1      39.281  31.154  30.088  1.00  0.00    -0.053 A 
ATOM     61  H   UNL A   1      38.496  33.027  30.531  1.00  0.00     0.063 H 
ATOM     62  C   UNL A   1      39.057  29.812  30.327  1.00  0.00    -0.014 A 
ATOM     63  H   UNL A   1      37.616  28.314  30.761  1.00  0.00     0.063 H 
ATOM     64  H   UNL A   1      40.177  31.484  29.696  1.00  0.00     0.063 H 
BRANCH  62  65
ATOM     65  C   UNL A   1      40.226  28.952  30.288  1.00  0.00     0.031 A 
ATOM     66  C   UNL A   1      40.824  28.669  31.613  1.00  0.00     0.074 A 
ATOM     67  C   UNL A   1      40.589  28.301  29.159  1.00  0.00     0.049 A 
ATOM     68  N   UNL A   1      41.982  29.035  32.050  1.00  0.00    -0.248 NA
ATOM     69  C   UNL A   1      39.979  28.017  32.625  1.00  0.00    -0.034 C 
ATOM     70  C   UNL A   1      39.891  28.227  27.865  1.00  0.00    -0.036 A 
ATOM     71  N   UNL A   1      41.650  27.479  28.963  1.00  0.00    -0.354 N 
ATOM     72  C   UNL A   1      42.087  28.516  33.338  1.00  0.00     0.074 A 
ATOM     73  C   UNL A   1      40.774  28.048  33.695  1.00  0.00    -0.034 C 
ATOM     74  H   UNL A   1      39.023  27.638  32.532  1.00  0.00     0.065 H 
ATOM     75  C   UNL A   1      40.426  27.243  27.109  1.00  0.00    -0.036 A 
ATOM     76  H   UNL A   1      39.108  28.837  27.578  1.00  0.00     0.065 H 
ATOM     77  C   UNL A   1      41.614  26.755  27.778  1.00  0.00     0.049 A 
ATOM     78  H   UNL A   1      42.389  27.403  29.609  1.00  0.00     0.167 HD
ATOM     79  C   UNL A   1      43.303  28.322  33.916  1.00  0.00     0.037 A 
ATOM     80  H   UNL A   1      40.488  27.773  34.649  1.00  0.00     0.065 H 
ATOM     81  H   UNL A   1      40.053  26.901  26.210  1.00  0.00     0.065 H 
ATOM     82  C   UNL A   1      42.503  25.809  27.394  1.00  0.00     0.037 A 
ATOM     83  C   UNL A   1      44.331  29.037  33.202  1.00  0.00     0.049 A 
ATOM     84  C   UNL A   1      43.733  26.039  28.191  1.00  0.00     0.074 A 
ATOM     85  C   UNL A   1      44.638  30.367  33.006  1.00  0.00    -0.036 A 
ATOM     86  N   UNL A   1      45.001  28.343  32.226  1.00  0.00    -0.354 N 
ATOM     87  N   UNL A   1      44.482  27.102  28.085  1.00  0.00    -0.248 NA
ATOM     88  C   UNL A   1      43.887  25.285  29.423  1.00  0.00    -0.034 C 
ATOM     89  C   UNL A   1      45.123  30.445  31.664  1.00  0.00    -0.036 A 
ATOM     90  H   UNL A   1      44.539  31.140  33.682  1.00  0.00     0.065 H 
ATOM     91  C   UNL A   1      45.143  29.155  31.130  1.00  0.00     0.049 A 
ATOM     92  H   UNL A   1      45.325  27.417  32.300  1.00  0.00     0.167 HD
ATOM     93  C   UNL A   1      44.883  27.385  29.383  1.00  0.00     0.074 A 
ATOM     94  C   UNL A   1      44.575  26.175  30.142  1.00  0.00    -0.034 C 
ATOM     95  H   UNL A   1      43.560  24.338  29.671  1.00  0.00     0.065 H 
ATOM     96  H   UNL A   1      45.409  31.307  31.174  1.00  0.00     0.065 H 
ATOM     97  C   UNL A   1      45.161  28.667  29.765  1.00  0.00     0.037 A 
ATOM     98  H   UNL A   1      44.859  26.025  31.123  1.00  0.00     0.065 H 
BRANCH  79  99
ATOM     99  C   UNL A   1      43.623  27.219  34.895  1.00  0.00     0.064 A 
ATOM    100  C   UNL A   1      43.960  27.550  36.223  1.00  0.00     0.173 A 
ATOM    101  C   UNL A   1      43.885  25.883  34.521  1.00  0.00     0.173 A 
ATOM    102  F   UNL A   1      43.781  28.797  36.683  1.00  0.00    -0.203 F 
ATOM    103  C   UNL A   1      44.562  26.630  37.087  1.00  0.00     0.198 A 
ATOM    104  C   UNL A   1      44.436  24.953  35.400  1.00  0.00     0.198 A 
ATOM    105  F   UNL A   1      43.725  25.451  33.264  1.00  0.00    -0.203 F 
ATOM    106  F   UNL A   1      44.967  27.023  38.302  1.00  0.00    -0.200 F 
ATOM    107  C   UNL A   1      44.802  25.332  36.673  1.00  0.00     0.200 A 
ATOM    108  F   UNL A   1      44.679  23.706  34.973  1.00  0.00    -0.200 F 
ATOM    109  F   UNL A   1      45.425  24.462  37.480  1.00  0.00    -0.200 F 
ENDBRANCH  79  99
BRANCH  82 110
ATOM    110  C   UNL A   1      42.231  24.516  26.720  1.00  0.00     0.064 A 
ATOM    111  C   UNL A   1      43.068  24.058  25.690  1.00  0.00     0.173 A 
ATOM    112  C   UNL A   1      41.352  23.570  27.284  1.00  0.00     0.173 A 
ATOM    113  F   UNL A   1      43.960  24.887  25.129  1.00  0.00    -0.203 F 
ATOM    114  C   UNL A   1      43.064  22.719  25.282  1.00  0.00     0.198 A 
ATOM    115  C   UNL A   1      41.346  22.235  26.873  1.00  0.00     0.198 A 
ATOM    116  F   UNL A   1      40.558  23.897  28.313  1.00  0.00    -0.203 F 
ATOM    117  F   UNL A   1      43.932  22.302  24.350  1.00  0.00    -0.200 F 
ATOM    118  C   UNL A   1      42.214  21.806  25.886  1.00  0.00     0.200 A 
ATOM    119  F   UNL A   1      40.547  21.353  27.490  1.00  0.00    -0.200 F 
ATOM    120  F   UNL A   1      42.264  20.510  25.550  1.00  0.00    -0.200 F 
ENDBRANCH  82 110
BRANCH  97 121
ATOM    121  C   UNL A   1      45.299  29.700  28.674  1.00  0.00     0.064 A 
ATOM    122  C   UNL A   1      44.255  30.529  28.226  1.00  0.00     0.173 A 
ATOM    123  C   UNL A   1      46.575  29.948  28.152  1.00  0.00     0.173 A 
ATOM    124  F   UNL A   1      43.023  30.423  28.735  1.00  0.00    -0.203 F 
ATOM    125  C   UNL A   1      44.472  31.530  27.278  1.00  0.00     0.198 A 
ATOM    126  C   UNL A   1      46.799  30.971  27.232  1.00  0.00     0.198 A 
ATOM    127  F   UNL A   1      47.624  29.223  28.573  1.00  0.00    -0.203 F 
ATOM    128  F   UNL A   1      43.454  32.297  26.862  1.00  0.00    -0.200 F 
ATOM    129  C   UNL A   1      45.747  31.754  26.789  1.00  0.00     0.200 A 
ATOM    130  F   UNL A   1      48.043  31.214  26.799  1.00  0.00    -0.200 F 
ATOM    131  F   UNL A   1      45.967  32.743  25.910  1.00  0.00    -0.200 F 
ENDBRANCH  97 121
ENDBRANCH  62  65
ENDBRANCH  52  55
ENDBRANCH  48  51
ENDBRANCH  45  48
ENDBRANCH  42  45
ENDBRANCH  39  42
ENDBRANCH   1  39
TORSDOF 18
ENDMDL
MODEL 5
REMARK VINA RESULT:     -11.3      2.722      3.861
REMARK SMILES Cc1cc(C)c2c(=O)n(CCCC(=O)NCCCCCCNC(=O)c3ccc(-c4c5nc(c(-c6c(F)c(F)c(F)c(F)c6F)c6ccc([nH]6)c(-c6c(F)c(F)c(F)c(F)c6F)c6nc(c(-c7c(F)c(F)c(F)c(F)c7F)c7ccc4[nH]7)C=C6)C=C5)cc3)sc2n1
REMARK SMILES IDX 17 1 16 4 15 7 13 8 14 9 12 11 11 14 10 17 9 20 2 21 3 22
REMARK SMILES IDX 90 23 4 24 89 26 6 27 88 28 7 29 8 30 1 31 5 35 18 39 19 42
REMARK SMILES IDX 20 45 21 48 22 51 23 52 24 54 25 55 26 56 87 57 27 58 86 60
REMARK SMILES IDX 28 62 29 65 30 66 80 67 31 68 85 69 79 70 81 71 32 72 84 73
REMARK SMILES IDX 78 75 77 77 33 79 65 82 45 83 64 84 46 85 49 86 63 87 82 88
REMARK SMILES IDX 47 89 48 91 62 93 83 94 50 97 34 99 35 100 43 101 36 102
REMARK SMILES IDX 37 103 41 104 44 105 38 106 39 107 42 108 40 109 66 110
REMARK SMILES IDX 67 111 75 112 68 113 69 114 73 115 76 116 70 117 71 118
REMARK SMILES IDX 74 119 72 120 51 121 52 122 60 123 53 124 54 125 58 126
REMARK SMILES IDX 61 127 55 128 56 129 59 130 57 131
REMARK H PARENT 17 2 17 3 16 5 16 6 15 10 12 12 12 13 11 15 11 16 10 18 10 19
REMARK H PARENT 3 25 1 32 1 33 1 34 5 36 5 37 5 38 18 40 18 41 19 43 19 44
REMARK H PARENT 20 46 20 47 21 49 21 50 22 53 26 59 87 61 27 63 86 64 85 74
REMARK H PARENT 79 76 81 78 84 80 78 81 46 90 49 92 82 95 47 96 83 98
REMARK Flexibility Score: inf
ROOT
ATOM      1  C   UNL A   1      39.868  21.435  26.391  1.00  0.00    -0.036 C 
ATOM      2  H   UNL A   1      39.808  20.820  25.518  1.00  0.00     0.028 H 
ATOM      3  H   UNL A   1      39.582  20.906  27.277  1.00  0.00     0.028 H 
ENDROOT
BRANCH   1   4
ATOM      4  C   UNL A   1      38.899  22.606  26.230  1.00  0.00     0.017 C 
ATOM      5  H   UNL A   1      38.220  22.619  27.057  1.00  0.00     0.049 H 
ATOM      6  H   UNL A   1      39.456  23.518  26.200  1.00  0.00     0.049 H 
BRANCH   4   7
ATOM      7  N   UNL A   1      38.150  22.472  25.002  1.00  0.00    -0.356 N 
ATOM      8  C   UNL A   1      36.877  22.825  24.697  1.00  0.00     0.220 C 
ATOM      9  O   UNL A   1      36.440  22.485  23.595  1.00  0.00    -0.275 OA
ATOM     10  H   UNL A   1      38.648  22.054  24.262  1.00  0.00     0.163 HD
BRANCH   8  11
ATOM     11  C   UNL A   1      36.050  23.709  25.613  1.00  0.00     0.028 C 
ATOM     12  H   UNL A   1      35.806  23.118  26.471  1.00  0.00     0.037 H 
ATOM     13  H   UNL A   1      36.680  24.561  25.760  1.00  0.00     0.037 H 
BRANCH  11  14
ATOM     14  C   UNL A   1      34.738  24.327  25.114  1.00  0.00    -0.025 C 
ATOM     15  H   UNL A   1      34.995  25.276  24.694  1.00  0.00     0.029 H 
ATOM     16  H   UNL A   1      34.358  23.560  24.471  1.00  0.00     0.029 H 
BRANCH  14  17
ATOM     17  C   UNL A   1      33.548  24.580  26.055  1.00  0.00     0.037 C 
ATOM     18  H   UNL A   1      33.029  23.648  26.145  1.00  0.00     0.051 H 
ATOM     19  H   UNL A   1      34.022  24.987  26.924  1.00  0.00     0.051 H 
BRANCH  17  20
ATOM     20  N   UNL A   1      32.537  25.586  25.746  1.00  0.00    -0.262 N 
ATOM     21  C   UNL A   1      29.901  28.775  23.490  1.00  0.00     0.039 A 
ATOM     22  C   UNL A   1      30.678  29.656  24.254  1.00  0.00    -0.037 A 
ATOM     23  N   UNL A   1      29.993  27.430  23.611  1.00  0.00    -0.241 NA
ATOM     24  C   UNL A   1      31.627  29.152  25.163  1.00  0.00    -0.033 A 
ATOM     25  H   UNL A   1      30.555  30.675  24.151  1.00  0.00     0.064 H 
ATOM     26  C   UNL A   1      30.912  26.982  24.482  1.00  0.00     0.146 A 
ATOM     27  C   UNL A   1      31.777  27.772  25.213  1.00  0.00     0.081 A 
ATOM     28  S   UNL A   1      31.105  25.270  24.866  1.00  0.00    -0.035 S 
ATOM     29  C   UNL A   1      32.795  26.951  25.909  1.00  0.00     0.270 A 
ATOM     30  O   UNL A   1      33.774  27.441  26.456  1.00  0.00    -0.268 OA
BRANCH  21  31
ATOM     31  C   UNL A   1      28.939  29.286  22.460  1.00  0.00    -0.022 C 
ATOM     32  H   UNL A   1      28.792  28.539  21.708  1.00  0.00     0.030 H 
ATOM     33  H   UNL A   1      29.335  30.172  22.011  1.00  0.00     0.030 H 
ATOM     34  H   UNL A   1      28.003  29.511  22.927  1.00  0.00     0.030 H 
ENDBRANCH  21  31
BRANCH  24  35
ATOM     35  C   UNL A   1      32.402  30.074  26.051  1.00  0.00    -0.039 C 
ATOM     36  H   UNL A   1      31.737  30.543  26.745  1.00  0.00     0.028 H 
ATOM     37  H   UNL A   1      32.884  30.821  25.456  1.00  0.00     0.028 H 
ATOM     38  H   UNL A   1      33.140  29.514  26.588  1.00  0.00     0.028 H 
ENDBRANCH  24  35
ENDBRANCH  17  20
ENDBRANCH  14  17
ENDBRANCH  11  14
ENDBRANCH   8  11
ENDBRANCH   4   7
ENDBRANCH   1   4
BRANCH   1  39
ATOM     39  C   UNL A   1      41.323  21.876  26.577  1.00  0.00    -0.052 C 
ATOM     40  H   UNL A   1      41.321  22.822  27.074  1.00  0.00     0.027 H 
ATOM     41  H   UNL A   1      41.751  21.909  25.597  1.00  0.00     0.027 H 
BRANCH  39  42
ATOM     42  C   UNL A   1      42.201  20.911  27.393  1.00  0.00    -0.052 C 
ATOM     43  H   UNL A   1      41.602  20.522  28.190  1.00  0.00     0.027 H 
ATOM     44  H   UNL A   1      43.041  21.491  27.712  1.00  0.00     0.027 H 
BRANCH  42  45
ATOM     45  C   UNL A   1      42.794  19.718  26.629  1.00  0.00    -0.036 C 
ATOM     46  H   UNL A   1      42.089  18.912  26.653  1.00  0.00     0.028 H 
ATOM     47  H   UNL A   1      43.715  19.459  27.109  1.00  0.00     0.028 H 
BRANCH  45  48
ATOM     48  C   UNL A   1      43.114  20.035  25.181  1.00  0.00     0.018 C 
ATOM     49  H   UNL A   1      42.722  21.005  24.949  1.00  0.00     0.049 H 
ATOM     50  H   UNL A   1      42.668  19.273  24.576  1.00  0.00     0.049 H 
BRANCH  48  51
ATOM     51  N   UNL A   1      44.553  20.034  24.905  1.00  0.00    -0.352 N 
ATOM     52  C   UNL A   1      45.428  21.105  24.819  1.00  0.00     0.251 C 
ATOM     53  H   UNL A   1      44.956  19.147  24.761  1.00  0.00     0.163 HD
ATOM     54  O   UNL A   1      46.515  20.994  24.283  1.00  0.00    -0.269 OA
BRANCH  52  55
ATOM     55  C   UNL A   1      45.013  22.392  25.405  1.00  0.00     0.039 A 
ATOM     56  C   UNL A   1      44.170  23.282  24.736  1.00  0.00    -0.049 A 
ATOM     57  C   UNL A   1      45.492  22.690  26.674  1.00  0.00    -0.049 A 
ATOM     58  C   UNL A   1      43.793  24.453  25.391  1.00  0.00    -0.053 A 
ATOM     59  H   UNL A   1      43.834  23.078  23.782  1.00  0.00     0.063 H 
ATOM     60  C   UNL A   1      44.912  23.681  27.403  1.00  0.00    -0.053 A 
ATOM     61  H   UNL A   1      46.288  22.160  27.062  1.00  0.00     0.063 H 
ATOM     62  C   UNL A   1      44.178  24.636  26.728  1.00  0.00    -0.014 A 
ATOM     63  H   UNL A   1      43.240  25.173  24.900  1.00  0.00     0.063 H 
ATOM     64  H   UNL A   1      45.017  23.716  28.429  1.00  0.00     0.063 H 
BRANCH  62  65
ATOM     65  C   UNL A   1      43.831  25.828  27.482  1.00  0.00     0.031 A 
ATOM     66  C   UNL A   1      44.758  26.967  27.288  1.00  0.00     0.074 A 
ATOM     67  C   UNL A   1      42.646  25.940  28.123  1.00  0.00     0.049 A 
ATOM     68  N   UNL A   1      45.545  27.500  28.161  1.00  0.00    -0.248 NA
ATOM     69  C   UNL A   1      44.933  27.488  25.924  1.00  0.00    -0.034 C 
ATOM     70  C   UNL A   1      41.496  25.021  28.117  1.00  0.00    -0.036 A 
ATOM     71  N   UNL A   1      42.186  26.975  28.871  1.00  0.00    -0.354 N 
ATOM     72  C   UNL A   1      46.197  28.540  27.504  1.00  0.00     0.074 A 
ATOM     73  C   UNL A   1      45.909  28.381  26.103  1.00  0.00    -0.034 C 
ATOM     74  H   UNL A   1      44.435  27.231  25.057  1.00  0.00     0.065 H 
ATOM     75  C   UNL A   1      40.412  25.638  28.635  1.00  0.00    -0.036 A 
ATOM     76  H   UNL A   1      41.515  24.050  27.767  1.00  0.00     0.065 H 
ATOM     77  C   UNL A   1      40.834  26.910  29.183  1.00  0.00     0.049 A 
ATOM     78  H   UNL A   1      42.765  27.713  29.169  1.00  0.00     0.167 HD
ATOM     79  C   UNL A   1      46.745  29.573  28.201  1.00  0.00     0.037 A 
ATOM     80  H   UNL A   1      46.389  28.888  25.343  1.00  0.00     0.065 H 
ATOM     81  H   UNL A   1      39.449  25.266  28.642  1.00  0.00     0.065 H 
ATOM     82  C   UNL A   1      40.121  27.858  29.837  1.00  0.00     0.037 A 
ATOM     83  C   UNL A   1      46.868  29.241  29.598  1.00  0.00     0.049 A 
ATOM     84  C   UNL A   1      41.103  28.697  30.565  1.00  0.00     0.074 A 
ATOM     85  C   UNL A   1      47.627  28.349  30.326  1.00  0.00    -0.036 A 
ATOM     86  N   UNL A   1      45.830  29.612  30.415  1.00  0.00    -0.354 N 
ATOM     87  N   UNL A   1      41.848  28.264  31.545  1.00  0.00    -0.248 NA
ATOM     88  C   UNL A   1      41.575  29.904  29.908  1.00  0.00    -0.034 C 
ATOM     89  C   UNL A   1      46.770  27.899  31.377  1.00  0.00    -0.036 A 
ATOM     90  H   UNL A   1      48.604  28.066  30.150  1.00  0.00     0.065 H 
ATOM     91  C   UNL A   1      45.555  28.579  31.274  1.00  0.00     0.049 A 
ATOM     92  H   UNL A   1      45.360  30.477  30.389  1.00  0.00     0.167 HD
ATOM     93  C   UNL A   1      43.076  28.884  31.361  1.00  0.00     0.074 A 
ATOM     94  C   UNL A   1      42.812  29.957  30.406  1.00  0.00    -0.034 C 
ATOM     95  H   UNL A   1      41.094  30.535  29.249  1.00  0.00     0.065 H 
ATOM     96  H   UNL A   1      47.009  27.191  32.090  1.00  0.00     0.065 H 
ATOM     97  C   UNL A   1      44.230  28.287  31.782  1.00  0.00     0.037 A 
ATOM     98  H   UNL A   1      43.505  30.677  30.147  1.00  0.00     0.065 H 
BRANCH  79  99
ATOM     99  C   UNL A   1      46.838  30.994  27.701  1.00  0.00     0.064 A 
ATOM    100  C   UNL A   1      45.655  31.700  27.402  1.00  0.00     0.173 A 
ATOM    101  C   UNL A   1      48.031  31.592  27.241  1.00  0.00     0.173 A 
ATOM    102  F   UNL A   1      44.459  31.215  27.766  1.00  0.00    -0.203 F 
ATOM    103  C   UNL A   1      45.667  32.881  26.653  1.00  0.00     0.198 A 
ATOM    104  C   UNL A   1      48.044  32.797  26.541  1.00  0.00     0.198 A 
ATOM    105  F   UNL A   1      49.220  30.985  27.349  1.00  0.00    -0.203 F 
ATOM    106  F   UNL A   1      44.509  33.455  26.298  1.00  0.00    -0.200 F 
ATOM    107  C   UNL A   1      46.862  33.427  26.222  1.00  0.00     0.200 A 
ATOM    108  F   UNL A   1      49.211  33.298  26.114  1.00  0.00    -0.200 F 
ATOM    109  F   UNL A   1      46.873  34.530  25.461  1.00  0.00    -0.200 F 
ENDBRANCH  79  99
BRANCH  82 110
ATOM    110  C   UNL A   1      38.742  28.325  29.552  1.00  0.00     0.064 A 
ATOM    111  C   UNL A   1      37.850  28.598  30.602  1.00  0.00     0.173 A 
ATOM    112  C   UNL A   1      38.387  28.817  28.281  1.00  0.00     0.173 A 
ATOM    113  F   UNL A   1      38.136  28.197  31.849  1.00  0.00    -0.203 F 
ATOM    114  C   UNL A   1      36.694  29.361  30.403  1.00  0.00     0.198 A 
ATOM    115  C   UNL A   1      37.231  29.576  28.083  1.00  0.00     0.198 A 
ATOM    116  F   UNL A   1      39.203  28.660  27.230  1.00  0.00    -0.203 F 
ATOM    117  F   UNL A   1      35.907  29.666  31.444  1.00  0.00    -0.200 F 
ATOM    118  C   UNL A   1      36.395  29.863  29.147  1.00  0.00     0.200 A 
ATOM    119  F   UNL A   1      36.971  30.088  26.872  1.00  0.00    -0.200 F 
ATOM    120  F   UNL A   1      35.331  30.658  28.971  1.00  0.00    -0.200 F 
ENDBRANCH  82 110
BRANCH  97 121
ATOM    121  C   UNL A   1      44.099  27.096  32.698  1.00  0.00     0.064 A 
ATOM    122  C   UNL A   1      44.153  25.756  32.274  1.00  0.00     0.173 A 
ATOM    123  C   UNL A   1      44.046  27.323  34.080  1.00  0.00     0.173 A 
ATOM    124  F   UNL A   1      44.294  25.447  30.981  1.00  0.00    -0.203 F 
ATOM    125  C   UNL A   1      44.119  24.699  33.185  1.00  0.00     0.198 A 
ATOM    126  C   UNL A   1      44.049  26.268  34.991  1.00  0.00     0.198 A 
ATOM    127  F   UNL A   1      44.040  28.579  34.552  1.00  0.00    -0.203 F 
ATOM    128  F   UNL A   1      44.162  23.431  32.750  1.00  0.00    -0.200 F 
ATOM    129  C   UNL A   1      44.077  24.958  34.544  1.00  0.00     0.200 A 
ATOM    130  F   UNL A   1      44.055  26.526  36.306  1.00  0.00    -0.200 F 
ATOM    131  F   UNL A   1      44.087  23.946  35.423  1.00  0.00    -0.200 F 
ENDBRANCH  97 121
ENDBRANCH  62  65
ENDBRANCH  52  55
ENDBRANCH  48  51
ENDBRANCH  45  48
ENDBRANCH  42  45
ENDBRANCH  39  42
ENDBRANCH   1  39
TORSDOF 18
ENDMDL
MODEL 6
REMARK VINA RESULT:     -11.3      2.557      3.749
REMARK SMILES Cc1cc(C)c2c(=O)n(CCCC(=O)NCCCCCCNC(=O)c3ccc(-c4c5nc(c(-c6c(F)c(F)c(F)c(F)c6F)c6ccc([nH]6)c(-c6c(F)c(F)c(F)c(F)c6F)c6nc(c(-c7c(F)c(F)c(F)c(F)c7F)c7ccc4[nH]7)C=C6)C=C5)cc3)sc2n1
REMARK SMILES IDX 17 1 16 4 15 7 13 8 14 9 12 11 11 14 10 17 9 20 2 21 3 22
REMARK SMILES IDX 90 23 4 24 89 26 6 27 88 28 7 29 8 30 1 31 5 35 18 39 19 42
REMARK SMILES IDX 20 45 21 48 22 51 23 52 24 54 25 55 26 56 87 57 27 58 86 60
REMARK SMILES IDX 28 62 29 65 30 66 80 67 31 68 85 69 79 70 81 71 32 72 84 73
REMARK SMILES IDX 78 75 77 77 33 79 65 82 45 83 64 84 46 85 49 86 63 87 82 88
REMARK SMILES IDX 47 89 48 91 62 93 83 94 50 97 34 99 35 100 43 101 36 102
REMARK SMILES IDX 37 103 41 104 44 105 38 106 39 107 42 108 40 109 66 110
REMARK SMILES IDX 67 111 75 112 68 113 69 114 73 115 76 116 70 117 71 118
REMARK SMILES IDX 74 119 72 120 51 121 52 122 60 123 53 124 54 125 58 126
REMARK SMILES IDX 61 127 55 128 56 129 59 130 57 131
REMARK H PARENT 17 2 17 3 16 5 16 6 15 10 12 12 12 13 11 15 11 16 10 18 10 19
REMARK H PARENT 3 25 1 32 1 33 1 34 5 36 5 37 5 38 18 40 18 41 19 43 19 44
REMARK H PARENT 20 46 20 47 21 49 21 50 22 53 26 59 87 61 27 63 86 64 85 74
REMARK H PARENT 79 76 81 78 84 80 78 81 46 90 49 92 82 95 47 96 83 98
REMARK Flexibility Score: inf
ROOT
ATOM      1  C   UNL A   1      39.934  22.401  26.393  1.00  0.00    -0.036 C 
ATOM      2  H   UNL A   1      39.849  23.234  27.059  1.00  0.00     0.028 H 
ATOM      3  H   UNL A   1      40.332  22.686  25.441  1.00  0.00     0.028 H 
ENDROOT
BRANCH   1   4
ATOM      4  C   UNL A   1      38.538  21.829  26.148  1.00  0.00     0.017 C 
ATOM      5  H   UNL A   1      38.605  20.766  26.040  1.00  0.00     0.049 H 
ATOM      6  H   UNL A   1      37.910  22.073  26.980  1.00  0.00     0.049 H 
BRANCH   4   7
ATOM      7  N   UNL A   1      37.968  22.394  24.948  1.00  0.00    -0.356 N 
ATOM      8  C   UNL A   1      36.905  22.002  24.201  1.00  0.00     0.220 C 
ATOM      9  O   UNL A   1      36.701  22.601  23.143  1.00  0.00    -0.275 OA
ATOM     10  H   UNL A   1      38.427  23.199  24.616  1.00  0.00     0.163 HD
BRANCH   8  11
ATOM     11  C   UNL A   1      35.924  20.954  24.694  1.00  0.00     0.028 C 
ATOM     12  H   UNL A   1      35.435  20.561  23.826  1.00  0.00     0.037 H 
ATOM     13  H   UNL A   1      36.543  20.289  25.258  1.00  0.00     0.037 H 
BRANCH  11  14
ATOM     14  C   UNL A   1      34.821  21.334  25.689  1.00  0.00    -0.025 C 
ATOM     15  H   UNL A   1      34.715  20.500  26.351  1.00  0.00     0.029 H 
ATOM     16  H   UNL A   1      35.179  22.264  26.079  1.00  0.00     0.029 H 
BRANCH  14  17
ATOM     17  C   UNL A   1      33.400  21.702  25.228  1.00  0.00     0.037 C 
ATOM     18  H   UNL A   1      33.148  21.016  24.446  1.00  0.00     0.051 H 
ATOM     19  H   UNL A   1      32.843  21.663  26.141  1.00  0.00     0.051 H 
BRANCH  17  20
ATOM     20  N   UNL A   1      33.088  23.035  24.723  1.00  0.00    -0.262 N 
ATOM     21  C   UNL A   1      33.467  27.501  23.267  1.00  0.00     0.039 A 
ATOM     22  C   UNL A   1      32.901  27.744  24.527  1.00  0.00    -0.037 A 
ATOM     23  N   UNL A   1      33.663  26.252  22.785  1.00  0.00    -0.241 NA
ATOM     24  C   UNL A   1      32.549  26.667  25.361  1.00  0.00    -0.033 A 
ATOM     25  H   UNL A   1      32.743  28.713  24.843  1.00  0.00     0.064 H 
ATOM     26  C   UNL A   1      33.322  25.247  23.608  1.00  0.00     0.146 A 
ATOM     27  C   UNL A   1      32.838  25.391  24.893  1.00  0.00     0.081 A 
ATOM     28  S   UNL A   1      33.393  23.551  23.121  1.00  0.00    -0.035 S 
ATOM     29  C   UNL A   1      32.767  24.085  25.590  1.00  0.00     0.270 A 
ATOM     30  O   UNL A   1      32.554  23.990  26.791  1.00  0.00    -0.268 OA
BRANCH  21  31
ATOM     31  C   UNL A   1      33.922  28.630  22.393  1.00  0.00    -0.022 C 
ATOM     32  H   UNL A   1      33.073  29.185  22.054  1.00  0.00     0.030 H 
ATOM     33  H   UNL A   1      34.451  28.238  21.550  1.00  0.00     0.030 H 
ATOM     34  H   UNL A   1      34.569  29.275  22.951  1.00  0.00     0.030 H 
ENDBRANCH  21  31
BRANCH  24  35
ATOM     35  C   UNL A   1      31.863  26.903  26.670  1.00  0.00    -0.039 C 
ATOM     36  H   UNL A   1      32.311  26.291  27.423  1.00  0.00     0.028 H 
ATOM     37  H   UNL A   1      30.826  26.656  26.578  1.00  0.00     0.028 H 
ATOM     38  H   UNL A   1      31.962  27.933  26.942  1.00  0.00     0.028 H 
ENDBRANCH  24  35
ENDBRANCH  17  20
ENDBRANCH  14  17
ENDBRANCH  11  14
ENDBRANCH   8  11
ENDBRANCH   4   7
ENDBRANCH   1   4
BRANCH   1  39
ATOM     39  C   UNL A   1      40.904  21.386  27.004  1.00  0.00    -0.052 C 
ATOM     40  H   UNL A   1      40.797  21.425  28.068  1.00  0.00     0.027 H 
ATOM     41  H   UNL A   1      41.880  21.663  26.663  1.00  0.00     0.027 H 
BRANCH  39  42
ATOM     42  C   UNL A   1      40.694  19.928  26.558  1.00  0.00    -0.052 C 
ATOM     43  H   UNL A   1      39.843  19.907  25.909  1.00  0.00     0.027 H 
ATOM     44  H   UNL A   1      40.577  19.368  27.461  1.00  0.00     0.027 H 
BRANCH  42  45
ATOM     45  C   UNL A   1      41.865  19.268  25.816  1.00  0.00    -0.036 C 
ATOM     46  H   UNL A   1      41.894  19.649  24.816  1.00  0.00     0.028 H 
ATOM     47  H   UNL A   1      41.699  18.210  25.836  1.00  0.00     0.028 H 
BRANCH  45  48
ATOM     48  C   UNL A   1      43.209  19.525  26.470  1.00  0.00     0.018 C 
ATOM     49  H   UNL A   1      43.425  18.715  27.136  1.00  0.00     0.049 H 
ATOM     50  H   UNL A   1      43.143  20.458  26.991  1.00  0.00     0.049 H 
BRANCH  48  51
ATOM     51  N   UNL A   1      44.300  19.637  25.499  1.00  0.00    -0.352 N 
ATOM     52  C   UNL A   1      44.770  20.759  24.836  1.00  0.00     0.251 C 
ATOM     53  H   UNL A   1      44.765  18.795  25.287  1.00  0.00     0.163 HD
ATOM     54  O   UNL A   1      45.460  20.662  23.838  1.00  0.00    -0.269 OA
BRANCH  52  55
ATOM     55  C   UNL A   1      44.419  22.084  25.376  1.00  0.00     0.039 A 
ATOM     56  C   UNL A   1      43.414  22.878  24.819  1.00  0.00    -0.049 A 
ATOM     57  C   UNL A   1      45.131  22.520  26.485  1.00  0.00    -0.049 A 
ATOM     58  C   UNL A   1      43.121  24.096  25.429  1.00  0.00    -0.053 A 
ATOM     59  H   UNL A   1      42.902  22.570  23.977  1.00  0.00     0.063 H 
ATOM     60  C   UNL A   1      44.663  23.560  27.227  1.00  0.00    -0.053 A 
ATOM     61  H   UNL A   1      46.014  22.055  26.747  1.00  0.00     0.063 H 
ATOM     62  C   UNL A   1      43.761  24.422  26.634  1.00  0.00    -0.014 A 
ATOM     63  H   UNL A   1      42.445  24.747  25.000  1.00  0.00     0.063 H 
ATOM     64  H   UNL A   1      44.973  23.700  28.201  1.00  0.00     0.063 H 
BRANCH  62  65
ATOM     65  C   UNL A   1      43.516  25.671  27.333  1.00  0.00     0.031 A 
ATOM     66  C   UNL A   1      44.462  26.759  26.993  1.00  0.00     0.074 A 
ATOM     67  C   UNL A   1      42.391  25.870  28.056  1.00  0.00     0.049 A 
ATOM     68  N   UNL A   1      45.334  27.315  27.765  1.00  0.00    -0.248 NA
ATOM     69  C   UNL A   1      44.544  27.186  25.588  1.00  0.00    -0.034 C 
ATOM     70  C   UNL A   1      41.213  24.997  28.200  1.00  0.00    -0.036 A 
ATOM     71  N   UNL A   1      42.027  26.966  28.768  1.00  0.00    -0.354 N 
ATOM     72  C   UNL A   1      45.966  28.286  26.992  1.00  0.00     0.074 A 
ATOM     73  C   UNL A   1      45.560  28.050  25.632  1.00  0.00    -0.034 C 
ATOM     74  H   UNL A   1      43.970  26.894  24.782  1.00  0.00     0.065 H 
ATOM     75  C   UNL A   1      40.196  25.687  28.760  1.00  0.00    -0.036 A 
ATOM     76  H   UNL A   1      41.172  24.006  27.915  1.00  0.00     0.065 H 
ATOM     77  C   UNL A   1      40.703  26.974  29.188  1.00  0.00     0.049 A 
ATOM     78  H   UNL A   1      42.653  27.699  28.970  1.00  0.00     0.167 HD
ATOM     79  C   UNL A   1      46.602  29.339  27.574  1.00  0.00     0.037 A 
ATOM     80  H   UNL A   1      45.995  28.489  24.804  1.00  0.00     0.065 H 
ATOM     81  H   UNL A   1      39.225  25.353  28.866  1.00  0.00     0.065 H 
ATOM     82  C   UNL A   1      40.077  27.987  29.832  1.00  0.00     0.037 A 
ATOM     83  C   UNL A   1      46.826  29.091  28.976  1.00  0.00     0.049 A 
ATOM     84  C   UNL A   1      41.143  28.832  30.424  1.00  0.00     0.074 A 
ATOM     85  C   UNL A   1      47.611  28.217  29.700  1.00  0.00    -0.036 A 
ATOM     86  N   UNL A   1      45.870  29.553  29.845  1.00  0.00    -0.354 N 
ATOM     87  N   UNL A   1      41.949  28.433  31.370  1.00  0.00    -0.248 NA
ATOM     88  C   UNL A   1      41.600  29.976  29.655  1.00  0.00    -0.034 C 
ATOM     89  C   UNL A   1      46.827  27.868  30.842  1.00  0.00    -0.036 A 
ATOM     90  H   UNL A   1      48.560  27.887  29.467  1.00  0.00     0.065 H 
ATOM     91  C   UNL A   1      45.631  28.587  30.790  1.00  0.00     0.049 A 
ATOM     92  H   UNL A   1      45.429  30.432  29.800  1.00  0.00     0.167 HD
ATOM     93  C   UNL A   1      43.178  28.992  31.050  1.00  0.00     0.074 A 
ATOM     94  C   UNL A   1      42.875  30.013  30.050  1.00  0.00    -0.034 C 
ATOM     95  H   UNL A   1      41.089  30.583  28.995  1.00  0.00     0.065 H 
ATOM     96  H   UNL A   1      47.098  27.198  31.579  1.00  0.00     0.065 H 
ATOM     97  C   UNL A   1      44.341  28.380  31.418  1.00  0.00     0.037 A 
ATOM     98  H   UNL A   1      43.568  30.688  29.690  1.00  0.00     0.065 H 
BRANCH  79  99
ATOM     99  C   UNL A   1      46.702  30.720  26.976  1.00  0.00     0.064 A 
ATOM    100  C   UNL A   1      47.952  31.372  26.946  1.00  0.00     0.173 A 
ATOM    101  C   UNL A   1      45.587  31.539  26.689  1.00  0.00     0.173 A 
ATOM    102  F   UNL A   1      49.078  30.702  27.230  1.00  0.00    -0.203 F 
ATOM    103  C   UNL A   1      48.066  32.744  26.703  1.00  0.00     0.198 A 
ATOM    104  C   UNL A   1      45.710  32.895  26.394  1.00  0.00     0.198 A 
ATOM    105  F   UNL A   1      44.330  31.090  26.789  1.00  0.00    -0.203 F 
ATOM    106  F   UNL A   1      49.263  33.339  26.798  1.00  0.00    -0.200 F 
ATOM    107  C   UNL A   1      46.944  33.505  26.429  1.00  0.00     0.200 A 
ATOM    108  F   UNL A   1      44.608  33.618  26.151  1.00  0.00    -0.200 F 
ATOM    109  F   UNL A   1      47.045  34.828  26.247  1.00  0.00    -0.200 F 
ENDBRANCH  79  99
BRANCH  82 110
ATOM    110  C   UNL A   1      38.697  28.489  29.626  1.00  0.00     0.064 A 
ATOM    111  C   UNL A   1      37.875  28.789  30.724  1.00  0.00     0.173 A 
ATOM    112  C   UNL A   1      38.280  28.984  28.375  1.00  0.00     0.173 A 
ATOM    113  F   UNL A   1      38.223  28.386  31.955  1.00  0.00    -0.203 F 
ATOM    114  C   UNL A   1      36.729  29.581  30.589  1.00  0.00     0.198 A 
ATOM    115  C   UNL A   1      37.134  29.772  28.241  1.00  0.00     0.198 A 
ATOM    116  F   UNL A   1      39.029  28.802  27.279  1.00  0.00    -0.203 F 
ATOM    117  F   UNL A   1      36.012  29.911  31.672  1.00  0.00    -0.200 F 
ATOM    118  C   UNL A   1      36.370  30.086  29.349  1.00  0.00     0.200 A 
ATOM    119  F   UNL A   1      36.817  30.286  27.043  1.00  0.00    -0.200 F 
ATOM    120  F   UNL A   1      35.318  30.907  29.231  1.00  0.00    -0.200 F 
ENDBRANCH  82 110
BRANCH  97 121
ATOM    121  C   UNL A   1      44.244  27.254  32.418  1.00  0.00     0.064 A 
ATOM    122  C   UNL A   1      44.040  27.431  33.798  1.00  0.00     0.173 A 
ATOM    123  C   UNL A   1      44.228  25.938  31.937  1.00  0.00     0.173 A 
ATOM    124  F   UNL A   1      43.952  28.653  34.332  1.00  0.00    -0.203 F 
ATOM    125  C   UNL A   1      43.866  26.343  34.656  1.00  0.00     0.198 A 
ATOM    126  C   UNL A   1      44.017  24.855  32.788  1.00  0.00     0.198 A 
ATOM    127  F   UNL A   1      44.370  25.704  30.622  1.00  0.00    -0.203 F 
ATOM    128  F   UNL A   1      43.684  26.543  35.970  1.00  0.00    -0.200 F 
ATOM    129  C   UNL A   1      43.845  25.057  34.147  1.00  0.00     0.200 A 
ATOM    130  F   UNL A   1      43.952  23.616  32.282  1.00  0.00    -0.200 F 
ATOM    131  F   UNL A   1      43.635  24.013  34.962  1.00  0.00    -0.200 F 
ENDBRANCH  97 121
ENDBRANCH  62  65
ENDBRANCH  52  55
ENDBRANCH  48  51
ENDBRANCH  45  48
ENDBRANCH  42  45
ENDBRANCH  39  42
ENDBRANCH   1  39
TORSDOF 18
ENDMDL
MODEL 7
REMARK VINA RESULT:     -11.2      1.819      2.120
REMARK SMILES Cc1cc(C)c2c(=O)n(CCCC(=O)NCCCCCCNC(=O)c3ccc(-c4c5nc(c(-c6c(F)c(F)c(F)c(F)c6F)c6ccc([nH]6)c(-c6c(F)c(F)c(F)c(F)c6F)c6nc(c(-c7c(F)c(F)c(F)c(F)c7F)c7ccc4[nH]7)C=C6)C=C5)cc3)sc2n1
REMARK SMILES IDX 17 1 16 4 15 7 13 8 14 9 12 11 11 14 10 17 9 20 2 21 3 22
REMARK SMILES IDX 90 23 4 24 89 26 6 27 88 28 7 29 8 30 1 31 5 35 18 39 19 42
REMARK SMILES IDX 20 45 21 48 22 51 23 52 24 54 25 55 26 56 87 57 27 58 86 60
REMARK SMILES IDX 28 62 29 65 30 66 80 67 31 68 85 69 79 70 81 71 32 72 84 73
REMARK SMILES IDX 78 75 77 77 33 79 65 82 45 83 64 84 46 85 49 86 63 87 82 88
REMARK SMILES IDX 47 89 48 91 62 93 83 94 50 97 34 99 35 100 43 101 36 102
REMARK SMILES IDX 37 103 41 104 44 105 38 106 39 107 42 108 40 109 66 110
REMARK SMILES IDX 67 111 75 112 68 113 69 114 73 115 76 116 70 117 71 118
REMARK SMILES IDX 74 119 72 120 51 121 52 122 60 123 53 124 54 125 58 126
REMARK SMILES IDX 61 127 55 128 56 129 59 130 57 131
REMARK H PARENT 17 2 17 3 16 5 16 6 15 10 12 12 12 13 11 15 11 16 10 18 10 19
REMARK H PARENT 3 25 1 32 1 33 1 34 5 36 5 37 5 38 18 40 18 41 19 43 19 44
REMARK H PARENT 20 46 20 47 21 49 21 50 22 53 26 59 87 61 27 63 86 64 85 74
REMARK H PARENT 79 76 81 78 84 80 78 81 46 90 49 92 82 95 47 96 83 98
REMARK Flexibility Score: inf
ROOT
ATOM      1  C   UNL A   1      36.544  22.127  24.422  1.00  0.00    -0.036 C 
ATOM      2  H   UNL A   1      36.268  22.200  23.391  1.00  0.00     0.028 H 
ATOM      3  H   UNL A   1      37.330  21.419  24.579  1.00  0.00     0.028 H 
ENDROOT
BRANCH   1   4
ATOM      4  C   UNL A   1      35.331  21.642  25.217  1.00  0.00     0.017 C 
ATOM      5  H   UNL A   1      35.414  20.587  25.378  1.00  0.00     0.049 H 
ATOM      6  H   UNL A   1      35.301  22.155  26.155  1.00  0.00     0.049 H 
BRANCH   4   7
ATOM      7  N   UNL A   1      34.113  21.917  24.491  1.00  0.00    -0.356 N 
ATOM      8  C   UNL A   1      33.197  22.906  24.641  1.00  0.00     0.220 C 
ATOM      9  O   UNL A   1      32.173  22.842  23.957  1.00  0.00    -0.275 OA
ATOM     10  H   UNL A   1      33.915  21.281  23.767  1.00  0.00     0.163 HD
BRANCH   8  11
ATOM     11  C   UNL A   1      33.461  24.116  25.518  1.00  0.00     0.028 C 
ATOM     12  H   UNL A   1      32.533  24.359  25.993  1.00  0.00     0.037 H 
ATOM     13  H   UNL A   1      34.267  23.793  26.142  1.00  0.00     0.037 H 
BRANCH  11  14
ATOM     14  C   UNL A   1      33.995  25.416  24.903  1.00  0.00    -0.025 C 
ATOM     15  H   UNL A   1      34.985  25.545  25.289  1.00  0.00     0.029 H 
ATOM     16  H   UNL A   1      33.866  25.239  23.856  1.00  0.00     0.029 H 
BRANCH  14  17
ATOM     17  C   UNL A   1      33.278  26.763  25.097  1.00  0.00     0.037 C 
ATOM     18  H   UNL A   1      32.806  26.720  26.056  1.00  0.00     0.051 H 
ATOM     19  H   UNL A   1      34.068  27.470  24.947  1.00  0.00     0.051 H 
BRANCH  17  20
ATOM     20  N   UNL A   1      32.261  27.222  24.156  1.00  0.00    -0.262 N 
ATOM     21  C   UNL A   1      28.961  29.803  21.998  1.00  0.00     0.039 A 
ATOM     22  C   UNL A   1      28.121  28.845  22.583  1.00  0.00    -0.037 A 
ATOM     23  N   UNL A   1      30.310  29.740  22.085  1.00  0.00    -0.241 NA
ATOM     24  C   UNL A   1      28.671  27.787  23.329  1.00  0.00    -0.033 A 
ATOM     25  H   UNL A   1      27.098  28.917  22.468  1.00  0.00     0.064 H 
ATOM     26  C   UNL A   1      30.802  28.721  22.809  1.00  0.00     0.146 A 
ATOM     27  C   UNL A   1      30.051  27.783  23.488  1.00  0.00     0.081 A 
ATOM     28  S   UNL A   1      32.533  28.399  22.946  1.00  0.00    -0.035 S 
ATOM     29  C   UNL A   1      30.906  26.933  24.352  1.00  0.00     0.270 A 
ATOM     30  O   UNL A   1      30.444  26.167  25.186  1.00  0.00    -0.268 OA
BRANCH  21  31
ATOM     31  C   UNL A   1      28.397  30.983  21.265  1.00  0.00    -0.022 C 
ATOM     32  H   UNL A   1      29.069  31.274  20.485  1.00  0.00     0.030 H 
ATOM     33  H   UNL A   1      28.267  31.797  21.947  1.00  0.00     0.030 H 
ATOM     34  H   UNL A   1      27.451  30.719  20.840  1.00  0.00     0.030 H 
ENDBRANCH  21  31
BRANCH  24  35
ATOM     35  C   UNL A   1      27.798  26.706  23.886  1.00  0.00    -0.039 C 
ATOM     36  H   UNL A   1      27.517  26.036  23.101  1.00  0.00     0.028 H 
ATOM     37  H   UNL A   1      26.921  27.142  24.315  1.00  0.00     0.028 H 
ATOM     38  H   UNL A   1      28.335  26.168  24.638  1.00  0.00     0.028 H 
ENDBRANCH  24  35
ENDBRANCH  17  20
ENDBRANCH  14  17
ENDBRANCH  11  14
ENDBRANCH   8  11
ENDBRANCH   4   7
ENDBRANCH   1   4
BRANCH   1  39
ATOM     39  C   UNL A   1      37.062  23.492  24.884  1.00  0.00    -0.052 C 
ATOM     40  H   UNL A   1      36.222  24.078  25.192  1.00  0.00     0.027 H 
ATOM     41  H   UNL A   1      37.591  23.907  24.052  1.00  0.00     0.027 H 
BRANCH  39  42
ATOM     42  C   UNL A   1      38.066  23.450  26.050  1.00  0.00    -0.052 C 
ATOM     43  H   UNL A   1      37.507  23.498  26.961  1.00  0.00     0.027 H 
ATOM     44  H   UNL A   1      38.723  24.279  25.889  1.00  0.00     0.027 H 
BRANCH  42  45
ATOM     45  C   UNL A   1      38.975  22.215  26.121  1.00  0.00    -0.036 C 
ATOM     46  H   UNL A   1      39.494  22.118  25.190  1.00  0.00     0.028 H 
ATOM     47  H   UNL A   1      38.349  21.370  26.321  1.00  0.00     0.028 H 
BRANCH  45  48
ATOM     48  C   UNL A   1      40.000  22.291  27.237  1.00  0.00     0.018 C 
ATOM     49  H   UNL A   1      39.802  21.505  27.937  1.00  0.00     0.049 H 
ATOM     50  H   UNL A   1      39.914  23.256  27.692  1.00  0.00     0.049 H 
BRANCH  48  51
ATOM     51  N   UNL A   1      41.376  22.150  26.754  1.00  0.00    -0.352 N 
ATOM     52  C   UNL A   1      42.270  23.133  26.360  1.00  0.00     0.251 C 
ATOM     53  H   UNL A   1      41.713  21.227  26.701  1.00  0.00     0.163 HD
ATOM     54  O   UNL A   1      43.252  22.866  25.693  1.00  0.00    -0.269 OA
BRANCH  52  55
ATOM     55  C   UNL A   1      42.006  24.521  26.778  1.00  0.00     0.039 A 
ATOM     56  C   UNL A   1      41.130  25.359  26.085  1.00  0.00    -0.049 A 
ATOM     57  C   UNL A   1      42.665  24.972  27.914  1.00  0.00    -0.049 A 
ATOM     58  C   UNL A   1      40.908  26.641  26.585  1.00  0.00    -0.053 A 
ATOM     59  H   UNL A   1      40.660  25.038  25.225  1.00  0.00     0.063 H 
ATOM     60  C   UNL A   1      42.242  26.103  28.541  1.00  0.00    -0.053 A 
ATOM     61  H   UNL A   1      43.476  24.450  28.282  1.00  0.00     0.063 H 
ATOM     62  C   UNL A   1      41.477  26.996  27.817  1.00  0.00    -0.014 A 
ATOM     63  H   UNL A   1      40.334  27.317  26.057  1.00  0.00     0.063 H 
ATOM     64  H   UNL A   1      42.486  26.286  29.527  1.00  0.00     0.063 H 
BRANCH  62  65
ATOM     65  C   UNL A   1      41.299  28.311  28.407  1.00  0.00     0.031 A 
ATOM     66  C   UNL A   1      42.312  29.310  27.995  1.00  0.00     0.074 A 
ATOM     67  C   UNL A   1      40.179  28.634  29.093  1.00  0.00     0.049 A 
ATOM     68  N   UNL A   1      43.206  29.877  28.734  1.00  0.00    -0.248 NA
ATOM     69  C   UNL A   1      42.436  29.615  26.562  1.00  0.00    -0.034 C 
ATOM     70  C   UNL A   1      38.950  27.846  29.287  1.00  0.00    -0.036 A 
ATOM     71  N   UNL A   1      39.873  29.805  29.706  1.00  0.00    -0.354 N 
ATOM     72  C   UNL A   1      43.904  30.742  27.895  1.00  0.00     0.074 A 
ATOM     73  C   UNL A   1      43.501  30.418  26.552  1.00  0.00    -0.034 C 
ATOM     74  H   UNL A   1      41.855  29.291  25.772  1.00  0.00     0.065 H 
ATOM     75  C   UNL A   1      37.968  28.638  29.772  1.00  0.00    -0.036 A 
ATOM     76  H   UNL A   1      38.853  26.839  29.083  1.00  0.00     0.065 H 
ATOM     77  C   UNL A   1      38.546  29.924  30.102  1.00  0.00     0.049 A 
ATOM     78  H   UNL A   1      40.538  30.514  29.859  1.00  0.00     0.167 HD
ATOM     79  C   UNL A   1      44.594  31.800  28.400  1.00  0.00     0.037 A 
ATOM     80  H   UNL A   1      43.971  30.761  25.699  1.00  0.00     0.065 H 
ATOM     81  H   UNL A   1      36.978  28.372  29.889  1.00  0.00     0.065 H 
ATOM     82  C   UNL A   1      37.974  31.022  30.650  1.00  0.00     0.037 A 
ATOM     83  C   UNL A   1      44.786  31.656  29.821  1.00  0.00     0.049 A 
ATOM     84  C   UNL A   1      39.081  31.849  31.190  1.00  0.00     0.074 A 
ATOM     85  C   UNL A   1      45.509  30.801  30.627  1.00  0.00    -0.036 A 
ATOM     86  N   UNL A   1      43.850  32.243  30.634  1.00  0.00    -0.354 N 
ATOM     87  N   UNL A   1      39.850  31.483  32.178  1.00  0.00    -0.248 NA
ATOM     88  C   UNL A   1      39.615  32.897  30.337  1.00  0.00    -0.034 C 
ATOM     89  C   UNL A   1      44.692  30.593  31.780  1.00  0.00    -0.036 A 
ATOM     90  H   UNL A   1      46.440  30.397  30.438  1.00  0.00     0.065 H 
ATOM     91  C   UNL A   1      43.542  31.374  31.650  1.00  0.00     0.049 A 
ATOM     92  H   UNL A   1      43.462  33.139  30.509  1.00  0.00     0.167 HD
ATOM     93  C   UNL A   1      41.115  31.942  31.834  1.00  0.00     0.074 A 
ATOM     94  C   UNL A   1      40.884  32.892  30.749  1.00  0.00    -0.034 C 
ATOM     95  H   UNL A   1      39.149  33.477  29.621  1.00  0.00     0.065 H 
ATOM     96  H   UNL A   1      44.914  29.972  32.574  1.00  0.00     0.065 H 
ATOM     97  C   UNL A   1      42.235  31.294  32.271  1.00  0.00     0.037 A 
ATOM     98  H   UNL A   1      41.621  33.494  30.348  1.00  0.00     0.065 H 
BRANCH  79  99
ATOM     99  C   UNL A   1      44.784  33.119  27.693  1.00  0.00     0.064 A 
ATOM    100  C   UNL A   1      46.046  33.439  27.153  1.00  0.00     0.173 A 
ATOM    101  C   UNL A   1      43.868  34.192  27.766  1.00  0.00     0.173 A 
ATOM    102  F   UNL A   1      47.005  32.506  27.058  1.00  0.00    -0.203 F 
ATOM    103  C   UNL A   1      46.379  34.742  26.770  1.00  0.00     0.198 A 
ATOM    104  C   UNL A   1      44.186  35.478  27.334  1.00  0.00     0.198 A 
ATOM    105  F   UNL A   1      42.674  34.070  28.358  1.00  0.00    -0.203 F 
ATOM    106  F   UNL A   1      47.628  35.019  26.369  1.00  0.00    -0.200 F 
ATOM    107  C   UNL A   1      45.449  35.761  26.863  1.00  0.00     0.200 A 
ATOM    108  F   UNL A   1      43.277  36.456  27.452  1.00  0.00    -0.200 F 
ATOM    109  F   UNL A   1      45.781  37.019  26.546  1.00  0.00    -0.200 F 
ENDBRANCH  79  99
BRANCH  82 110
ATOM    110  C   UNL A   1      36.629  31.584  30.381  1.00  0.00     0.064 A 
ATOM    111  C   UNL A   1      35.813  32.022  31.437  1.00  0.00     0.173 A 
ATOM    112  C   UNL A   1      36.257  31.998  29.086  1.00  0.00     0.173 A 
ATOM    113  F   UNL A   1      36.122  31.703  32.702  1.00  0.00    -0.203 F 
ATOM    114  C   UNL A   1      34.718  32.865  31.217  1.00  0.00     0.198 A 
ATOM    115  C   UNL A   1      35.162  32.838  28.869  1.00  0.00     0.198 A 
ATOM    116  F   UNL A   1      37.007  31.682  28.021  1.00  0.00    -0.203 F 
ATOM    117  F   UNL A   1      34.010  33.325  32.258  1.00  0.00    -0.200 F 
ATOM    118  C   UNL A   1      34.404  33.286  29.935  1.00  0.00     0.200 A 
ATOM    119  F   UNL A   1      34.890  33.268  27.628  1.00  0.00    -0.200 F 
ATOM    120  F   UNL A   1      33.405  34.155  29.733  1.00  0.00    -0.200 F 
ENDBRANCH  82 110
BRANCH  97 121
ATOM    121  C   UNL A   1      42.059  30.263  33.357  1.00  0.00     0.064 A 
ATOM    122  C   UNL A   1      41.896  28.885  33.128  1.00  0.00     0.173 A 
ATOM    123  C   UNL A   1      42.192  30.673  34.690  1.00  0.00     0.173 A 
ATOM    124  F   UNL A   1      41.849  28.393  31.885  1.00  0.00    -0.203 F 
ATOM    125  C   UNL A   1      41.832  27.971  34.181  1.00  0.00     0.198 A 
ATOM    126  C   UNL A   1      42.166  29.756  35.740  1.00  0.00     0.198 A 
ATOM    127  F   UNL A   1      42.399  31.969  34.975  1.00  0.00    -0.203 F 
ATOM    128  F   UNL A   1      41.664  26.664  33.931  1.00  0.00    -0.200 F 
ATOM    129  C   UNL A   1      41.977  28.408  35.486  1.00  0.00     0.200 A 
ATOM    130  F   UNL A   1      42.353  30.180  36.997  1.00  0.00    -0.200 F 
ATOM    131  F   UNL A   1      41.959  27.528  36.498  1.00  0.00    -0.200 F 
ENDBRANCH  97 121
ENDBRANCH  62  65
ENDBRANCH  52  55
ENDBRANCH  48  51
ENDBRANCH  45  48
ENDBRANCH  42  45
ENDBRANCH  39  42
ENDBRANCH   1  39
TORSDOF 18
ENDMDL
MODEL 8
REMARK VINA RESULT:     -11.1      2.945      8.760
REMARK SMILES Cc1cc(C)c2c(=O)n(CCCC(=O)NCCCCCCNC(=O)c3ccc(-c4c5nc(c(-c6c(F)c(F)c(F)c(F)c6F)c6ccc([nH]6)c(-c6c(F)c(F)c(F)c(F)c6F)c6nc(c(-c7c(F)c(F)c(F)c(F)c7F)c7ccc4[nH]7)C=C6)C=C5)cc3)sc2n1
REMARK SMILES IDX 17 1 16 4 15 7 13 8 14 9 12 11 11 14 10 17 9 20 2 21 3 22
REMARK SMILES IDX 90 23 4 24 89 26 6 27 88 28 7 29 8 30 1 31 5 35 18 39 19 42
REMARK SMILES IDX 20 45 21 48 22 51 23 52 24 54 25 55 26 56 87 57 27 58 86 60
REMARK SMILES IDX 28 62 29 65 30 66 80 67 31 68 85 69 79 70 81 71 32 72 84 73
REMARK SMILES IDX 78 75 77 77 33 79 65 82 45 83 64 84 46 85 49 86 63 87 82 88
REMARK SMILES IDX 47 89 48 91 62 93 83 94 50 97 34 99 35 100 43 101 36 102
REMARK SMILES IDX 37 103 41 104 44 105 38 106 39 107 42 108 40 109 66 110
REMARK SMILES IDX 67 111 75 112 68 113 69 114 73 115 76 116 70 117 71 118
REMARK SMILES IDX 74 119 72 120 51 121 52 122 60 123 53 124 54 125 58 126
REMARK SMILES IDX 61 127 55 128 56 129 59 130 57 131
REMARK H PARENT 17 2 17 3 16 5 16 6 15 10 12 12 12 13 11 15 11 16 10 18 10 19
REMARK H PARENT 3 25 1 32 1 33 1 34 5 36 5 37 5 38 18 40 18 41 19 43 19 44
REMARK H PARENT 20 46 20 47 21 49 21 50 22 53 26 59 87 61 27 63 86 64 85 74
REMARK H PARENT 79 76 81 78 84 80 78 81 46 90 49 92 82 95 47 96 83 98
REMARK Flexibility Score: inf
ROOT
ATOM      1  C   UNL A   1      34.631  31.219  27.619  1.00  0.00    -0.036 C 
ATOM      2  H   UNL A   1      35.215  31.521  26.775  1.00  0.00     0.028 H 
ATOM      3  H   UNL A   1      35.217  30.698  28.347  1.00  0.00     0.028 H 
ENDROOT
BRANCH   1   4
ATOM      4  C   UNL A   1      33.544  30.257  27.139  1.00  0.00     0.017 C 
ATOM      5  H   UNL A   1      33.467  29.440  27.826  1.00  0.00     0.049 H 
ATOM      6  H   UNL A   1      32.613  30.781  27.086  1.00  0.00     0.049 H 
BRANCH   4   7
ATOM      7  N   UNL A   1      33.871  29.745  25.828  1.00  0.00    -0.356 N 
ATOM      8  C   UNL A   1      33.075  29.254  24.845  1.00  0.00     0.220 C 
ATOM      9  O   UNL A   1      33.628  28.767  23.856  1.00  0.00    -0.275 OA
ATOM     10  H   UNL A   1      34.831  29.754  25.612  1.00  0.00     0.163 HD
BRANCH   8  11
ATOM     11  C   UNL A   1      31.566  29.403  24.888  1.00  0.00     0.028 C 
ATOM     12  H   UNL A   1      31.281  29.348  25.918  1.00  0.00     0.037 H 
ATOM     13  H   UNL A   1      31.398  30.326  24.375  1.00  0.00     0.037 H 
BRANCH  11  14
ATOM     14  C   UNL A   1      30.670  28.416  24.129  1.00  0.00    -0.025 C 
ATOM     15  H   UNL A   1      29.715  28.890  24.034  1.00  0.00     0.029 H 
ATOM     16  H   UNL A   1      31.244  28.222  23.247  1.00  0.00     0.029 H 
BRANCH  14  17
ATOM     17  C   UNL A   1      30.395  26.996  24.655  1.00  0.00     0.037 C 
ATOM     18  H   UNL A   1      29.992  27.110  25.640  1.00  0.00     0.051 H 
ATOM     19  H   UNL A   1      29.769  26.583  23.891  1.00  0.00     0.051 H 
BRANCH  17  20
ATOM     20  N   UNL A   1      31.463  26.006  24.758  1.00  0.00    -0.262 N 
ATOM     21  C   UNL A   1      35.692  23.928  24.757  1.00  0.00     0.039 A 
ATOM     22  C   UNL A   1      35.218  23.428  23.536  1.00  0.00    -0.037 A 
ATOM     23  N   UNL A   1      34.932  24.692  25.575  1.00  0.00    -0.241 NA
ATOM     24  C   UNL A   1      33.919  23.747  23.100  1.00  0.00    -0.033 A 
ATOM     25  H   UNL A   1      35.823  22.825  22.956  1.00  0.00     0.064 H 
ATOM     26  C   UNL A   1      33.700  24.983  25.127  1.00  0.00     0.146 A 
ATOM     27  C   UNL A   1      33.181  24.605  23.905  1.00  0.00     0.081 A 
ATOM     28  S   UNL A   1      32.518  25.867  26.096  1.00  0.00    -0.035 S 
ATOM     29  C   UNL A   1      31.881  25.270  23.644  1.00  0.00     0.270 A 
ATOM     30  O   UNL A   1      31.333  25.238  22.551  1.00  0.00    -0.268 OA
BRANCH  21  31
ATOM     31  C   UNL A   1      37.098  23.668  25.206  1.00  0.00    -0.022 C 
ATOM     32  H   UNL A   1      37.781  24.167  24.551  1.00  0.00     0.030 H 
ATOM     33  H   UNL A   1      37.290  22.615  25.186  1.00  0.00     0.030 H 
ATOM     34  H   UNL A   1      37.228  24.035  26.203  1.00  0.00     0.030 H 
ENDBRANCH  21  31
BRANCH  24  35
ATOM     35  C   UNL A   1      33.364  23.150  21.845  1.00  0.00    -0.039 C 
ATOM     36  H   UNL A   1      32.351  23.470  21.716  1.00  0.00     0.028 H 
ATOM     37  H   UNL A   1      33.396  22.083  21.913  1.00  0.00     0.028 H 
ATOM     38  H   UNL A   1      33.948  23.472  21.009  1.00  0.00     0.028 H 
ENDBRANCH  24  35
ENDBRANCH  17  20
ENDBRANCH  14  17
ENDBRANCH  11  14
ENDBRANCH   8  11
ENDBRANCH   4   7
ENDBRANCH   1   4
BRANCH   1  39
ATOM     39  C   UNL A   1      34.072  32.472  28.298  1.00  0.00    -0.052 C 
ATOM     40  H   UNL A   1      33.847  32.225  29.314  1.00  0.00     0.027 H 
ATOM     41  H   UNL A   1      33.214  32.762  27.728  1.00  0.00     0.027 H 
BRANCH  39  42
ATOM     42  C   UNL A   1      35.013  33.690  28.301  1.00  0.00    -0.052 C 
ATOM     43  H   UNL A   1      35.273  33.902  27.285  1.00  0.00     0.027 H 
ATOM     44  H   UNL A   1      35.838  33.410  28.921  1.00  0.00     0.027 H 
BRANCH  42  45
ATOM     45  C   UNL A   1      34.455  34.980  28.920  1.00  0.00    -0.036 C 
ATOM     46  H   UNL A   1      34.253  35.677  28.134  1.00  0.00     0.028 H 
ATOM     47  H   UNL A   1      35.191  35.349  29.604  1.00  0.00     0.028 H 
BRANCH  45  48
ATOM     48  C   UNL A   1      33.178  34.760  29.709  1.00  0.00     0.018 C 
ATOM     49  H   UNL A   1      33.042  33.708  29.853  1.00  0.00     0.049 H 
ATOM     50  H   UNL A   1      32.373  35.190  29.150  1.00  0.00     0.049 H 
BRANCH  48  51
ATOM     51  N   UNL A   1      33.204  35.412  31.022  1.00  0.00    -0.352 N 
ATOM     52  C   UNL A   1      33.887  35.042  32.169  1.00  0.00     0.251 C 
ATOM     53  H   UNL A   1      32.658  36.227  31.099  1.00  0.00     0.163 HD
ATOM     54  O   UNL A   1      33.578  35.483  33.260  1.00  0.00    -0.269 OA
BRANCH  52  55
ATOM     55  C   UNL A   1      35.011  34.099  32.036  1.00  0.00     0.039 A 
ATOM     56  C   UNL A   1      34.824  32.719  31.935  1.00  0.00    -0.049 A 
ATOM     57  C   UNL A   1      36.288  34.643  32.003  1.00  0.00    -0.049 A 
ATOM     58  C   UNL A   1      35.947  31.911  31.763  1.00  0.00    -0.053 A 
ATOM     59  H   UNL A   1      33.880  32.308  31.987  1.00  0.00     0.063 H 
ATOM     60  C   UNL A   1      37.336  33.893  31.565  1.00  0.00    -0.053 A 
ATOM     61  H   UNL A   1      36.443  35.616  32.311  1.00  0.00     0.063 H 
ATOM     62  C   UNL A   1      37.199  32.519  31.583  1.00  0.00    -0.014 A 
ATOM     63  H   UNL A   1      35.859  30.883  31.769  1.00  0.00     0.063 H 
ATOM     64  H   UNL A   1      38.205  34.339  31.232  1.00  0.00     0.063 H 
BRANCH  62  65
ATOM     65  C   UNL A   1      38.418  31.752  31.401  1.00  0.00     0.031 A 
ATOM     66  C   UNL A   1      39.152  31.462  32.655  1.00  0.00     0.074 A 
ATOM     67  C   UNL A   1      38.723  31.177  30.216  1.00  0.00     0.049 A 
ATOM     68  N   UNL A   1      40.315  31.897  33.006  1.00  0.00    -0.248 NA
ATOM     69  C   UNL A   1      38.451  30.708  33.705  1.00  0.00    -0.034 C 
ATOM     70  C   UNL A   1      37.918  31.103  28.986  1.00  0.00    -0.036 A 
ATOM     71  N   UNL A   1      39.819  30.446  29.890  1.00  0.00    -0.354 N 
ATOM     72  C   UNL A   1      40.573  31.336  34.254  1.00  0.00     0.074 A 
ATOM     73  C   UNL A   1      39.335  30.755  34.702  1.00  0.00    -0.034 C 
ATOM     74  H   UNL A   1      37.520  30.261  33.678  1.00  0.00     0.065 H 
ATOM     75  C   UNL A   1      38.452  30.194  28.141  1.00  0.00    -0.036 A 
ATOM     76  H   UNL A   1      37.071  31.662  28.796  1.00  0.00     0.065 H 
ATOM     77  C   UNL A   1      39.728  29.770  28.680  1.00  0.00     0.049 A 
ATOM     78  H   UNL A   1      40.617  30.400  30.465  1.00  0.00     0.167 HD
ATOM     79  C   UNL A   1      41.847  31.211  34.715  1.00  0.00     0.037 A 
ATOM     80  H   UNL A   1      39.157  30.421  35.663  1.00  0.00     0.065 H 
ATOM     81  H   UNL A   1      38.025  29.860  27.262  1.00  0.00     0.065 H 
ATOM     82  C   UNL A   1      40.644  28.910  28.176  1.00  0.00     0.037 A 
ATOM     83  C   UNL A   1      42.753  32.030  33.948  1.00  0.00     0.049 A 
ATOM     84  C   UNL A   1      41.921  29.200  28.872  1.00  0.00     0.074 A 
ATOM     85  C   UNL A   1      42.944  33.387  33.789  1.00  0.00    -0.036 A 
ATOM     86  N   UNL A   1      43.379  31.429  32.886  1.00  0.00    -0.354 N 
ATOM     87  N   UNL A   1      42.579  30.321  28.752  1.00  0.00    -0.248 NA
ATOM     88  C   UNL A   1      42.240  28.411  30.050  1.00  0.00    -0.034 C 
ATOM     89  C   UNL A   1      43.299  33.555  32.415  1.00  0.00    -0.036 A 
ATOM     90  H   UNL A   1      42.851  34.122  34.506  1.00  0.00     0.065 H 
ATOM     91  C   UNL A   1      43.364  32.293  31.820  1.00  0.00     0.049 A 
ATOM     92  H   UNL A   1      43.775  30.528  32.887  1.00  0.00     0.167 HD
ATOM     93  C   UNL A   1      43.075  30.581  30.022  1.00  0.00     0.074 A 
ATOM     94  C   UNL A   1      42.924  29.321  30.747  1.00  0.00    -0.034 C 
ATOM     95  H   UNL A   1      42.006  27.433  30.280  1.00  0.00     0.065 H 
ATOM     96  H   UNL A   1      43.477  34.456  31.943  1.00  0.00     0.065 H 
ATOM     97  C   UNL A   1      43.293  31.863  30.438  1.00  0.00     0.037 A 
ATOM     98  H   UNL A   1      43.306  29.154  31.691  1.00  0.00     0.065 H 
BRANCH  79  99
ATOM     99  C   UNL A   1      42.333  30.097  35.609  1.00  0.00     0.064 A 
ATOM    100  C   UNL A   1      43.208  30.397  36.673  1.00  0.00     0.173 A 
ATOM    101  C   UNL A   1      42.203  28.725  35.302  1.00  0.00     0.173 A 
ATOM    102  F   UNL A   1      43.431  31.668  37.037  1.00  0.00    -0.203 F 
ATOM    103  C   UNL A   1      43.935  29.403  37.337  1.00  0.00     0.198 A 
ATOM    104  C   UNL A   1      42.888  27.732  36.001  1.00  0.00     0.198 A 
ATOM    105  F   UNL A   1      41.498  28.294  34.248  1.00  0.00    -0.203 F 
ATOM    106  F   UNL A   1      44.838  29.747  38.264  1.00  0.00    -0.200 F 
ATOM    107  C   UNL A   1      43.776  28.072  36.998  1.00  0.00     0.200 A 
ATOM    108  F   UNL A   1      42.734  26.450  35.643  1.00  0.00    -0.200 F 
ATOM    109  F   UNL A   1      44.508  27.123  37.597  1.00  0.00    -0.200 F 
ENDBRANCH  79  99
BRANCH  82 110
ATOM    110  C   UNL A   1      40.406  27.629  27.468  1.00  0.00     0.064 A 
ATOM    111  C   UNL A   1      41.195  27.265  26.365  1.00  0.00     0.173 A 
ATOM    112  C   UNL A   1      39.629  26.607  28.050  1.00  0.00     0.173 A 
ATOM    113  F   UNL A   1      41.991  28.171  25.780  1.00  0.00    -0.203 F 
ATOM    114  C   UNL A   1      41.245  25.945  25.902  1.00  0.00     0.198 A 
ATOM    115  C   UNL A   1      39.678  25.291  27.585  1.00  0.00     0.198 A 
ATOM    116  F   UNL A   1      38.892  26.843  29.144  1.00  0.00    -0.203 F 
ATOM    117  F   UNL A   1      42.069  25.621  24.896  1.00  0.00    -0.200 F 
ATOM    118  C   UNL A   1      40.499  24.957  26.523  1.00  0.00     0.200 A 
ATOM    119  F   UNL A   1      38.981  24.336  28.217  1.00  0.00    -0.200 F 
ATOM    120  F   UNL A   1      40.605  23.680  26.131  1.00  0.00    -0.200 F 
ENDBRANCH  82 110
BRANCH  97 121
ATOM    121  C   UNL A   1      43.257  32.946  29.389  1.00  0.00     0.064 A 
ATOM    122  C   UNL A   1      42.179  33.827  29.190  1.00  0.00     0.173 A 
ATOM    123  C   UNL A   1      44.418  33.185  28.641  1.00  0.00     0.173 A 
ATOM    124  F   UNL A   1      41.064  33.729  29.923  1.00  0.00    -0.203 F 
ATOM    125  C   UNL A   1      42.246  34.869  28.264  1.00  0.00     0.198 A 
ATOM    126  C   UNL A   1      44.499  34.248  27.743  1.00  0.00     0.198 A 
ATOM    127  F   UNL A   1      45.500  32.410  28.818  1.00  0.00    -0.203 F 
ATOM    128  F   UNL A   1      41.197  35.685  28.088  1.00  0.00    -0.200 F 
ATOM    129  C   UNL A   1      43.411  35.083  27.548  1.00  0.00     0.200 A 
ATOM    130  F   UNL A   1      45.645  34.478  27.087  1.00  0.00    -0.200 F 
ATOM    131  F   UNL A   1      43.495  36.108  26.688  1.00  0.00    -0.200 F 
ENDBRANCH  97 121
ENDBRANCH  62  65
ENDBRANCH  52  55
ENDBRANCH  48  51
ENDBRANCH  45  48
ENDBRANCH  42  45
ENDBRANCH  39  42
ENDBRANCH   1  39
TORSDOF 18
ENDMDL
MODEL 9
REMARK VINA RESULT:     -11.1      3.354      8.947
REMARK SMILES Cc1cc(C)c2c(=O)n(CCCC(=O)NCCCCCCNC(=O)c3ccc(-c4c5nc(c(-c6c(F)c(F)c(F)c(F)c6F)c6ccc([nH]6)c(-c6c(F)c(F)c(F)c(F)c6F)c6nc(c(-c7c(F)c(F)c(F)c(F)c7F)c7ccc4[nH]7)C=C6)C=C5)cc3)sc2n1
REMARK SMILES IDX 17 1 16 4 15 7 13 8 14 9 12 11 11 14 10 17 9 20 2 21 3 22
REMARK SMILES IDX 90 23 4 24 89 26 6 27 88 28 7 29 8 30 1 31 5 35 18 39 19 42
REMARK SMILES IDX 20 45 21 48 22 51 23 52 24 54 25 55 26 56 87 57 27 58 86 60
REMARK SMILES IDX 28 62 29 65 30 66 80 67 31 68 85 69 79 70 81 71 32 72 84 73
REMARK SMILES IDX 78 75 77 77 33 79 65 82 45 83 64 84 46 85 49 86 63 87 82 88
REMARK SMILES IDX 47 89 48 91 62 93 83 94 50 97 34 99 35 100 43 101 36 102
REMARK SMILES IDX 37 103 41 104 44 105 38 106 39 107 42 108 40 109 66 110
REMARK SMILES IDX 67 111 75 112 68 113 69 114 73 115 76 116 70 117 71 118
REMARK SMILES IDX 74 119 72 120 51 121 52 122 60 123 53 124 54 125 58 126
REMARK SMILES IDX 61 127 55 128 56 129 59 130 57 131
REMARK H PARENT 17 2 17 3 16 5 16 6 15 10 12 12 12 13 11 15 11 16 10 18 10 19
REMARK H PARENT 3 25 1 32 1 33 1 34 5 36 5 37 5 38 18 40 18 41 19 43 19 44
REMARK H PARENT 20 46 20 47 21 49 21 50 22 53 26 59 87 61 27 63 86 64 85 74
REMARK H PARENT 79 76 81 78 84 80 78 81 46 90 49 92 82 95 47 96 83 98
REMARK Flexibility Score: inf
ROOT
ATOM      1  C   UNL A   1      32.734  29.052  26.749  1.00  0.00    -0.036 C 
ATOM      2  H   UNL A   1      32.153  28.166  26.897  1.00  0.00     0.028 H 
ATOM      3  H   UNL A   1      32.577  29.771  27.526  1.00  0.00     0.028 H 
ENDROOT
BRANCH   1   4
ATOM      4  C   UNL A   1      32.303  29.703  25.435  1.00  0.00     0.017 C 
ATOM      5  H   UNL A   1      31.343  29.323  25.150  1.00  0.00     0.049 H 
ATOM      6  H   UNL A   1      32.251  30.763  25.571  1.00  0.00     0.049 H 
BRANCH   4   7
ATOM      7  N   UNL A   1      33.258  29.409  24.392  1.00  0.00    -0.356 N 
ATOM      8  C   UNL A   1      33.078  28.955  23.127  1.00  0.00     0.220 C 
ATOM      9  O   UNL A   1      34.085  28.672  22.475  1.00  0.00    -0.275 OA
ATOM     10  H   UNL A   1      34.197  29.565  24.642  1.00  0.00     0.163 HD
BRANCH   8  11
ATOM     11  C   UNL A   1      31.705  28.909  22.481  1.00  0.00     0.028 C 
ATOM     12  H   UNL A   1      31.131  29.695  22.925  1.00  0.00     0.037 H 
ATOM     13  H   UNL A   1      31.926  28.984  21.437  1.00  0.00     0.037 H 
BRANCH  11  14
ATOM     14  C   UNL A   1      30.852  27.637  22.567  1.00  0.00    -0.025 C 
ATOM     15  H   UNL A   1      30.687  27.457  23.608  1.00  0.00     0.029 H 
ATOM     16  H   UNL A   1      30.018  27.883  21.943  1.00  0.00     0.029 H 
BRANCH  14  17
ATOM     17  C   UNL A   1      31.322  26.300  21.967  1.00  0.00     0.037 C 
ATOM     18  H   UNL A   1      30.494  25.908  21.414  1.00  0.00     0.051 H 
ATOM     19  H   UNL A   1      32.205  26.583  21.433  1.00  0.00     0.051 H 
BRANCH  17  20
ATOM     20  N   UNL A   1      31.800  25.214  22.817  1.00  0.00    -0.262 N 
ATOM     21  C   UNL A   1      33.503  22.770  26.469  1.00  0.00     0.039 A 
ATOM     22  C   UNL A   1      34.658  22.781  25.674  1.00  0.00    -0.037 A 
ATOM     23  N   UNL A   1      32.327  23.291  26.052  1.00  0.00    -0.241 NA
ATOM     24  C   UNL A   1      34.633  23.385  24.403  1.00  0.00    -0.033 A 
ATOM     25  H   UNL A   1      35.527  22.347  26.021  1.00  0.00     0.064 H 
ATOM     26  C   UNL A   1      32.338  23.865  24.837  1.00  0.00     0.146 A 
ATOM     27  C   UNL A   1      33.445  23.996  24.022  1.00  0.00     0.081 A 
ATOM     28  S   UNL A   1      30.880  24.498  24.068  1.00  0.00    -0.035 S 
ATOM     29  C   UNL A   1      33.153  24.861  22.854  1.00  0.00     0.270 A 
ATOM     30  O   UNL A   1      34.028  25.274  22.105  1.00  0.00    -0.268 OA
BRANCH  21  31
ATOM     31  C   UNL A   1      33.525  22.204  27.857  1.00  0.00    -0.022 C 
ATOM     32  H   UNL A   1      34.452  22.451  28.329  1.00  0.00     0.030 H 
ATOM     33  H   UNL A   1      33.421  21.140  27.809  1.00  0.00     0.030 H 
ATOM     34  H   UNL A   1      32.716  22.616  28.423  1.00  0.00     0.030 H 
ENDBRANCH  21  31
BRANCH  24  35
ATOM     35  C   UNL A   1      35.828  23.328  23.504  1.00  0.00    -0.039 C 
ATOM     36  H   UNL A   1      35.623  23.869  22.604  1.00  0.00     0.028 H 
ATOM     37  H   UNL A   1      36.047  22.308  23.267  1.00  0.00     0.028 H 
ATOM     38  H   UNL A   1      36.668  23.768  24.000  1.00  0.00     0.028 H 
ENDBRANCH  24  35
ENDBRANCH  17  20
ENDBRANCH  14  17
ENDBRANCH  11  14
ENDBRANCH   8  11
ENDBRANCH   4   7
ENDBRANCH   1   4
BRANCH   1  39
ATOM     39  C   UNL A   1      34.217  28.671  26.777  1.00  0.00    -0.052 C 
ATOM     40  H   UNL A   1      34.525  28.468  25.773  1.00  0.00     0.027 H 
ATOM     41  H   UNL A   1      34.295  27.825  27.427  1.00  0.00     0.027 H 
BRANCH  39  42
ATOM     42  C   UNL A   1      35.157  29.743  27.355  1.00  0.00    -0.052 C 
ATOM     43  H   UNL A   1      35.918  29.935  26.628  1.00  0.00     0.027 H 
ATOM     44  H   UNL A   1      35.518  29.337  28.277  1.00  0.00     0.027 H 
BRANCH  42  45
ATOM     45  C   UNL A   1      34.513  31.087  27.724  1.00  0.00    -0.036 C 
ATOM     46  H   UNL A   1      33.913  30.949  28.600  1.00  0.00     0.028 H 
ATOM     47  H   UNL A   1      33.929  31.401  26.884  1.00  0.00     0.028 H 
BRANCH  45  48
ATOM     48  C   UNL A   1      35.527  32.180  28.001  1.00  0.00     0.018 C 
ATOM     49  H   UNL A   1      35.409  32.950  27.266  1.00  0.00     0.049 H 
ATOM     50  H   UNL A   1      36.501  31.738  27.958  1.00  0.00     0.049 H 
BRANCH  48  51
ATOM     51  N   UNL A   1      35.370  32.775  29.331  1.00  0.00    -0.352 N 
ATOM     52  C   UNL A   1      35.837  32.321  30.554  1.00  0.00     0.251 C 
ATOM     53  H   UNL A   1      34.859  33.617  29.360  1.00  0.00     0.163 HD
ATOM     54  O   UNL A   1      35.376  32.734  31.602  1.00  0.00    -0.269 OA
BRANCH  52  55
ATOM     55  C   UNL A   1      36.921  31.323  30.557  1.00  0.00     0.039 A 
ATOM     56  C   UNL A   1      36.674  29.949  30.617  1.00  0.00    -0.049 A 
ATOM     57  C   UNL A   1      38.221  31.805  30.488  1.00  0.00    -0.049 A 
ATOM     58  C   UNL A   1      37.762  29.080  30.566  1.00  0.00    -0.053 A 
ATOM     59  H   UNL A   1      35.711  29.588  30.697  1.00  0.00     0.063 H 
ATOM     60  C   UNL A   1      39.241  30.965  30.166  1.00  0.00    -0.053 A 
ATOM     61  H   UNL A   1      38.413  32.800  30.683  1.00  0.00     0.063 H 
ATOM     62  C   UNL A   1      39.042  29.609  30.342  1.00  0.00    -0.014 A 
ATOM     63  H   UNL A   1      37.628  28.065  30.691  1.00  0.00     0.063 H 
ATOM     64  H   UNL A   1      40.134  31.330  29.800  1.00  0.00     0.063 H 
BRANCH  62  65
ATOM     65  C   UNL A   1      40.230  28.775  30.279  1.00  0.00     0.031 A 
ATOM     66  C   UNL A   1      40.855  28.499  31.593  1.00  0.00     0.074 A 
ATOM     67  C   UNL A   1      40.587  28.138  29.142  1.00  0.00     0.049 A 
ATOM     68  N   UNL A   1      42.012  28.889  32.013  1.00  0.00    -0.248 NA
ATOM     69  C   UNL A   1      40.042  27.824  32.615  1.00  0.00    -0.034 C 
ATOM     70  C   UNL A   1      39.870  28.055  27.858  1.00  0.00    -0.036 A 
ATOM     71  N   UNL A   1      41.664  27.341  28.923  1.00  0.00    -0.354 N 
ATOM     72  C   UNL A   1      42.150  28.367  33.296  1.00  0.00     0.074 A 
ATOM     73  C   UNL A   1      40.853  27.868  33.673  1.00  0.00    -0.034 C 
ATOM     74  H   UNL A   1      39.093  27.424  32.536  1.00  0.00     0.065 H 
ATOM     75  C   UNL A   1      40.414  27.087  27.089  1.00  0.00    -0.036 A 
ATOM     76  H   UNL A   1      39.070  28.648  27.587  1.00  0.00     0.065 H 
ATOM     77  C   UNL A   1      41.624  26.622  27.735  1.00  0.00     0.049 A 
ATOM     78  H   UNL A   1      42.415  27.278  29.557  1.00  0.00     0.167 HD
ATOM     79  C   UNL A   1      43.379  28.197  33.853  1.00  0.00     0.037 A 
ATOM     80  H   UNL A   1      40.589  27.582  34.629  1.00  0.00     0.065 H 
ATOM     81  H   UNL A   1      40.034  26.740  26.194  1.00  0.00     0.065 H 
ATOM     82  C   UNL A   1      42.527  25.697  27.332  1.00  0.00     0.037 A 
ATOM     83  C   UNL A   1      44.379  28.937  33.126  1.00  0.00     0.049 A 
ATOM     84  C   UNL A   1      43.765  25.951  28.110  1.00  0.00     0.074 A 
ATOM     85  C   UNL A   1      44.653  30.275  32.931  1.00  0.00    -0.036 A 
ATOM     86  N   UNL A   1      45.048  28.264  32.136  1.00  0.00    -0.354 N 
ATOM     87  N   UNL A   1      44.488  27.031  27.998  1.00  0.00    -0.248 NA
ATOM     88  C   UNL A   1      43.956  25.195  29.336  1.00  0.00    -0.034 C 
ATOM     89  C   UNL A   1      45.114  30.370  31.582  1.00  0.00    -0.036 A 
ATOM     90  H   UNL A   1      44.549  31.043  33.613  1.00  0.00     0.065 H 
ATOM     91  C   UNL A   1      45.154  29.084  31.041  1.00  0.00     0.049 A 
ATOM     92  H   UNL A   1      45.394  27.345  32.199  1.00  0.00     0.167 HD
ATOM     93  C   UNL A   1      44.905  27.317  29.290  1.00  0.00     0.074 A 
ATOM     94  C   UNL A   1      44.636  26.097  30.047  1.00  0.00    -0.034 C 
ATOM     95  H   UNL A   1      43.654  24.240  29.584  1.00  0.00     0.065 H 
ATOM     96  H   UNL A   1      45.372  31.241  31.092  1.00  0.00     0.065 H 
ATOM     97  C   UNL A   1      45.160  28.602  29.674  1.00  0.00     0.037 A 
ATOM     98  H   UNL A   1      44.939  25.949  31.023  1.00  0.00     0.065 H 
BRANCH  79  99
ATOM     99  C   UNL A   1      43.740  27.097  34.821  1.00  0.00     0.064 A 
ATOM    100  C   UNL A   1      44.129  27.432  36.134  1.00  0.00     0.173 A 
ATOM    101  C   UNL A   1      43.988  25.760  34.440  1.00  0.00     0.173 A 
ATOM    102  F   UNL A   1      43.967  28.680  36.598  1.00  0.00    -0.203 F 
ATOM    103  C   UNL A   1      44.767  26.514  36.975  1.00  0.00     0.198 A 
ATOM    104  C   UNL A   1      44.575  24.833  35.299  1.00  0.00     0.198 A 
ATOM    105  F   UNL A   1      43.778  25.324  33.192  1.00  0.00    -0.203 F 
ATOM    106  F   UNL A   1      45.220  26.911  38.172  1.00  0.00    -0.200 F 
ATOM    107  C   UNL A   1      44.991  25.215  36.555  1.00  0.00     0.200 A 
ATOM    108  F   UNL A   1      44.802  23.585  34.865  1.00  0.00    -0.200 F 
ATOM    109  F   UNL A   1      45.647  24.349  37.338  1.00  0.00    -0.200 F 
ENDBRANCH  79  99
BRANCH  82 110
ATOM    110  C   UNL A   1      42.272  24.402  26.656  1.00  0.00     0.064 A 
ATOM    111  C   UNL A   1      43.066  23.995  25.572  1.00  0.00     0.173 A 
ATOM    112  C   UNL A   1      41.472  23.410  27.257  1.00  0.00     0.173 A 
ATOM    113  F   UNL A   1      43.884  24.871  24.971  1.00  0.00    -0.203 F 
ATOM    114  C   UNL A   1      43.096  22.663  25.144  1.00  0.00     0.198 A 
ATOM    115  C   UNL A   1      41.501  22.082  26.827  1.00  0.00     0.198 A 
ATOM    116  F   UNL A   1      40.727  23.688  28.336  1.00  0.00    -0.203 F 
ATOM    117  F   UNL A   1      43.924  22.296  24.156  1.00  0.00    -0.200 F 
ATOM    118  C   UNL A   1      42.326  21.704  25.784  1.00  0.00     0.200 A 
ATOM    119  F   UNL A   1      40.780  21.157  27.477  1.00  0.00    -0.200 F 
ATOM    120  F   UNL A   1      42.413  20.416  25.426  1.00  0.00    -0.200 F 
ENDBRANCH  82 110
BRANCH  97 121
ATOM    121  C   UNL A   1      45.257  29.643  28.586  1.00  0.00     0.064 A 
ATOM    122  C   UNL A   1      44.183  30.440  28.149  1.00  0.00     0.173 A 
ATOM    123  C   UNL A   1      46.521  29.934  28.056  1.00  0.00     0.173 A 
ATOM    124  F   UNL A   1      42.959  30.292  28.666  1.00  0.00    -0.203 F 
ATOM    125  C   UNL A   1      44.361  31.451  27.202  1.00  0.00     0.198 A 
ATOM    126  C   UNL A   1      46.705  30.967  27.139  1.00  0.00     0.198 A 
ATOM    127  F   UNL A   1      47.595  29.242  28.467  1.00  0.00    -0.203 F 
ATOM    128  F   UNL A   1      43.316  32.187  26.797  1.00  0.00    -0.200 F 
ATOM    129  C   UNL A   1      45.625  31.718  26.706  1.00  0.00     0.200 A 
ATOM    130  F   UNL A   1      47.938  31.252  26.698  1.00  0.00    -0.200 F 
ATOM    131  F   UNL A   1      45.807  32.716  25.829  1.00  0.00    -0.200 F 
ENDBRANCH  97 121
ENDBRANCH  62  65
ENDBRANCH  52  55
ENDBRANCH  48  51
ENDBRANCH  45  48
ENDBRANCH  42  45
ENDBRANCH  39  42
ENDBRANCH   1  39
TORSDOF 18
ENDMDL
MODEL 10
REMARK VINA RESULT:     -11.1      5.090     11.022
REMARK SMILES Cc1cc(C)c2c(=O)n(CCCC(=O)NCCCCCCNC(=O)c3ccc(-c4c5nc(c(-c6c(F)c(F)c(F)c(F)c6F)c6ccc([nH]6)c(-c6c(F)c(F)c(F)c(F)c6F)c6nc(c(-c7c(F)c(F)c(F)c(F)c7F)c7ccc4[nH]7)C=C6)C=C5)cc3)sc2n1
REMARK SMILES IDX 17 1 16 4 15 7 13 8 14 9 12 11 11 14 10 17 9 20 2 21 3 22
REMARK SMILES IDX 90 23 4 24 89 26 6 27 88 28 7 29 8 30 1 31 5 35 18 39 19 42
REMARK SMILES IDX 20 45 21 48 22 51 23 52 24 54 25 55 26 56 87 57 27 58 86 60
REMARK SMILES IDX 28 62 29 65 30 66 80 67 31 68 85 69 79 70 81 71 32 72 84 73
REMARK SMILES IDX 78 75 77 77 33 79 65 82 45 83 64 84 46 85 49 86 63 87 82 88
REMARK SMILES IDX 47 89 48 91 62 93 83 94 50 97 34 99 35 100 43 101 36 102
REMARK SMILES IDX 37 103 41 104 44 105 38 106 39 107 42 108 40 109 66 110
REMARK SMILES IDX 67 111 75 112 68 113 69 114 73 115 76 116 70 117 71 118
REMARK SMILES IDX 74 119 72 120 51 121 52 122 60 123 53 124 54 125 58 126
REMARK SMILES IDX 61 127 55 128 56 129 59 130 57 131
REMARK H PARENT 17 2 17 3 16 5 16 6 15 10 12 12 12 13 11 15 11 16 10 18 10 19
REMARK H PARENT 3 25 1 32 1 33 1 34 5 36 5 37 5 38 18 40 18 41 19 43 19 44
REMARK H PARENT 20 46 20 47 21 49 21 50 22 53 26 59 87 61 27 63 86 64 85 74
REMARK H PARENT 79 76 81 78 84 80 78 81 46 90 49 92 82 95 47 96 83 98
REMARK Flexibility Score: inf
ROOT
ATOM      1  C   UNL A   1      38.031  30.258  33.379  1.00  0.00    -0.036 C 
ATOM      2  H   UNL A   1      37.230  29.606  33.656  1.00  0.00     0.028 H 
ATOM      3  H   UNL A   1      38.707  29.796  32.690  1.00  0.00     0.028 H 
ENDROOT
BRANCH   1   4
ATOM      4  C   UNL A   1      38.831  30.607  34.634  1.00  0.00     0.017 C 
ATOM      5  H   UNL A   1      39.717  30.008  34.666  1.00  0.00     0.049 H 
ATOM      6  H   UNL A   1      39.092  31.645  34.604  1.00  0.00     0.049 H 
BRANCH   4   7
ATOM      7  N   UNL A   1      38.043  30.355  35.817  1.00  0.00    -0.356 N 
ATOM      8  C   UNL A   1      37.882  31.087  36.948  1.00  0.00     0.220 C 
ATOM      9  O   UNL A   1      37.237  30.579  37.868  1.00  0.00    -0.275 OA
ATOM     10  H   UNL A   1      37.537  29.511  35.800  1.00  0.00     0.163 HD
BRANCH   8  11
ATOM     11  C   UNL A   1      38.365  32.522  37.049  1.00  0.00     0.028 C 
ATOM     12  H   UNL A   1      38.146  32.850  38.043  1.00  0.00     0.037 H 
ATOM     13  H   UNL A   1      39.394  32.452  36.765  1.00  0.00     0.037 H 
BRANCH  11  14
ATOM     14  C   UNL A   1      37.814  33.592  36.098  1.00  0.00    -0.025 C 
ATOM     15  H   UNL A   1      37.264  33.068  35.345  1.00  0.00     0.029 H 
ATOM     16  H   UNL A   1      37.288  34.239  36.769  1.00  0.00     0.029 H 
BRANCH  14  17
ATOM     17  C   UNL A   1      38.736  34.574  35.355  1.00  0.00     0.037 C 
ATOM     18  H   UNL A   1      38.118  35.388  35.038  1.00  0.00     0.051 H 
ATOM     19  H   UNL A   1      39.502  34.765  36.078  1.00  0.00     0.051 H 
BRANCH  17  20
ATOM     20  N   UNL A   1      39.502  34.157  34.184  1.00  0.00    -0.262 N 
ATOM     21  C   UNL A   1      42.596  34.052  30.633  1.00  0.00     0.039 A 
ATOM     22  C   UNL A   1      41.444  34.343  29.890  1.00  0.00    -0.037 A 
ATOM     23  N   UNL A   1      42.565  33.813  31.964  1.00  0.00    -0.241 NA
ATOM     24  C   UNL A   1      40.196  34.436  30.534  1.00  0.00    -0.033 A 
ATOM     25  H   UNL A   1      41.510  34.491  28.871  1.00  0.00     0.064 H 
ATOM     26  C   UNL A   1      41.360  33.915  32.548  1.00  0.00     0.146 A 
ATOM     27  C   UNL A   1      40.189  34.279  31.914  1.00  0.00     0.081 A 
ATOM     28  S   UNL A   1      41.091  33.530  34.251  1.00  0.00    -0.035 S 
ATOM     29  C   UNL A   1      39.095  34.498  32.890  1.00  0.00     0.270 A 
ATOM     30  O   UNL A   1      38.028  35.009  32.579  1.00  0.00    -0.268 OA
BRANCH  21  31
ATOM     31  C   UNL A   1      43.948  34.025  29.984  1.00  0.00    -0.022 C 
ATOM     32  H   UNL A   1      44.529  34.851  30.336  1.00  0.00     0.030 H 
ATOM     33  H   UNL A   1      43.836  34.094  28.923  1.00  0.00     0.030 H 
ATOM     34  H   UNL A   1      44.444  33.109  30.232  1.00  0.00     0.030 H 
ENDBRANCH  21  31
BRANCH  24  35
ATOM     35  C   UNL A   1      38.942  34.657  29.747  1.00  0.00    -0.039 C 
ATOM     36  H   UNL A   1      38.906  35.672  29.412  1.00  0.00     0.028 H 
ATOM     37  H   UNL A   1      38.093  34.455  30.365  1.00  0.00     0.028 H 
ATOM     38  H   UNL A   1      38.933  34.002  28.901  1.00  0.00     0.028 H 
ENDBRANCH  24  35
ENDBRANCH  17  20
ENDBRANCH  14  17
ENDBRANCH  11  14
ENDBRANCH   8  11
ENDBRANCH   4   7
ENDBRANCH   1   4
BRANCH   1  39
ATOM     39  C   UNL A   1      37.439  31.485  32.679  1.00  0.00    -0.052 C 
ATOM     40  H   UNL A   1      37.352  31.261  31.637  1.00  0.00     0.027 H 
ATOM     41  H   UNL A   1      38.104  32.297  32.887  1.00  0.00     0.027 H 
BRANCH  39  42
ATOM     42  C   UNL A   1      36.056  31.926  33.189  1.00  0.00    -0.052 C 
ATOM     43  H   UNL A   1      36.209  32.673  33.939  1.00  0.00     0.027 H 
ATOM     44  H   UNL A   1      35.586  31.032  33.542  1.00  0.00     0.027 H 
BRANCH  42  45
ATOM     45  C   UNL A   1      35.096  32.506  32.139  1.00  0.00    -0.036 C 
ATOM     46  H   UNL A   1      34.546  33.308  32.586  1.00  0.00     0.028 H 
ATOM     47  H   UNL A   1      34.456  31.710  31.819  1.00  0.00     0.028 H 
BRANCH  45  48
ATOM     48  C   UNL A   1      35.807  33.035  30.908  1.00  0.00     0.018 C 
ATOM     49  H   UNL A   1      36.788  32.608  30.870  1.00  0.00     0.049 H 
ATOM     50  H   UNL A   1      35.841  34.101  30.986  1.00  0.00     0.049 H 
BRANCH  48  51
ATOM     51  N   UNL A   1      35.105  32.705  29.664  1.00  0.00    -0.352 N 
ATOM     52  C   UNL A   1      35.536  31.938  28.594  1.00  0.00     0.251 C 
ATOM     53  H   UNL A   1      34.200  33.081  29.577  1.00  0.00     0.163 HD
ATOM     54  O   UNL A   1      34.990  32.003  27.508  1.00  0.00    -0.269 OA
BRANCH  52  55
ATOM     55  C   UNL A   1      36.675  31.028  28.803  1.00  0.00     0.039 A 
ATOM     56  C   UNL A   1      36.561  29.642  28.669  1.00  0.00    -0.049 A 
ATOM     57  C   UNL A   1      37.892  31.607  29.136  1.00  0.00    -0.049 A 
ATOM     58  C   UNL A   1      37.706  28.866  28.839  1.00  0.00    -0.053 A 
ATOM     59  H   UNL A   1      35.653  29.205  28.450  1.00  0.00     0.063 H 
ATOM     60  C   UNL A   1      39.041  30.886  29.030  1.00  0.00    -0.053 A 
ATOM     61  H   UNL A   1      37.925  32.585  29.464  1.00  0.00     0.063 H 
ATOM     62  C   UNL A   1      38.940  29.508  29.023  1.00  0.00    -0.014 A 
ATOM     63  H   UNL A   1      37.647  27.835  28.831  1.00  0.00     0.063 H 
ATOM     64  H   UNL A   1      39.957  31.354  28.957  1.00  0.00     0.063 H 
BRANCH  62  65
ATOM     65  C   UNL A   1      40.179  28.775  29.211  1.00  0.00     0.031 A 
ATOM     66  C   UNL A   1      40.503  28.473  30.625  1.00  0.00     0.074 A 
ATOM     67  C   UNL A   1      40.849  28.236  28.168  1.00  0.00     0.049 A 
ATOM     68  N   UNL A   1      41.490  28.928  31.322  1.00  0.00    -0.248 NA
ATOM     69  C   UNL A   1      39.538  27.678  31.398  1.00  0.00    -0.034 C 
ATOM     70  C   UNL A   1      40.461  28.171  26.749  1.00  0.00    -0.036 A 
ATOM     71  N   UNL A   1      42.013  27.540  28.181  1.00  0.00    -0.354 N 
ATOM     72  C   UNL A   1      41.371  28.344  32.580  1.00  0.00     0.074 A 
ATOM     73  C   UNL A   1      40.073  27.723  32.619  1.00  0.00    -0.034 C 
ATOM     74  H   UNL A   1      38.674  27.210  31.081  1.00  0.00     0.065 H 
ATOM     75  C   UNL A   1      41.254  27.296  26.094  1.00  0.00    -0.036 A 
ATOM     76  H   UNL A   1      39.696  28.714  26.318  1.00  0.00     0.065 H 
ATOM     77  C   UNL A   1      42.317  26.890  26.991  1.00  0.00     0.049 A 
ATOM     78  H   UNL A   1      42.598  27.499  28.973  1.00  0.00     0.167 HD
ATOM     79  C   UNL A   1      42.447  28.239  33.407  1.00  0.00     0.037 A 
ATOM     80  H   UNL A   1      39.620  27.362  33.474  1.00  0.00     0.065 H 
ATOM     81  H   UNL A   1      41.127  26.973  25.123  1.00  0.00     0.065 H 
ATOM     82  C   UNL A   1      43.369  26.065  26.779  1.00  0.00     0.037 A 
ATOM     83  C   UNL A   1      43.518  29.097  32.966  1.00  0.00     0.049 A 
ATOM     84  C   UNL A   1      44.363  26.369  27.838  1.00  0.00     0.074 A 
ATOM     85  C   UNL A   1      43.708  30.461  32.894  1.00  0.00    -0.036 A 
ATOM     86  N   UNL A   1      44.457  28.537  32.138  1.00  0.00    -0.354 N 
ATOM     87  N   UNL A   1      44.992  27.508  27.942  1.00  0.00    -0.248 NA
ATOM     88  C   UNL A   1      44.330  25.561  29.044  1.00  0.00    -0.034 C 
ATOM     89  C   UNL A   1      44.460  30.671  31.697  1.00  0.00    -0.036 A 
ATOM     90  H   UNL A   1      43.378  31.177  33.560  1.00  0.00     0.065 H 
ATOM     91  C   UNL A   1      44.742  29.425  31.132  1.00  0.00     0.049 A 
ATOM     92  H   UNL A   1      44.861  27.646  32.247  1.00  0.00     0.167 HD
ATOM     93  C   UNL A   1      45.068  27.749  29.306  1.00  0.00     0.074 A 
ATOM     94  C   UNL A   1      44.741  26.470  29.931  1.00  0.00    -0.034 C 
ATOM     95  H   UNL A   1      44.066  24.572  29.177  1.00  0.00     0.065 H 
ATOM     96  H   UNL A   1      44.746  31.586  31.316  1.00  0.00     0.065 H 
ATOM     97  C   UNL A   1      45.110  29.027  29.788  1.00  0.00     0.037 A 
ATOM     98  H   UNL A   1      44.821  26.289  30.944  1.00  0.00     0.065 H 
BRANCH  79  99
ATOM     99  C   UNL A   1      42.669  27.116  34.390  1.00  0.00     0.064 A 
ATOM    100  C   UNL A   1      42.478  27.355  35.766  1.00  0.00     0.173 A 
ATOM    101  C   UNL A   1      43.326  25.907  34.072  1.00  0.00     0.173 A 
ATOM    102  F   UNL A   1      41.890  28.483  36.189  1.00  0.00    -0.203 F 
ATOM    103  C   UNL A   1      42.958  26.477  36.744  1.00  0.00     0.198 A 
ATOM    104  C   UNL A   1      43.755  25.008  35.046  1.00  0.00     0.198 A 
ATOM    105  F   UNL A   1      43.678  25.596  32.818  1.00  0.00    -0.203 F 
ATOM    106  F   UNL A   1      42.853  26.802  38.039  1.00  0.00    -0.200 F 
ATOM    107  C   UNL A   1      43.598  25.305  36.383  1.00  0.00     0.200 A 
ATOM    108  F   UNL A   1      44.391  23.888  34.676  1.00  0.00    -0.200 F 
ATOM    109  F   UNL A   1      44.103  24.488  37.316  1.00  0.00    -0.200 F 
ENDBRANCH  79  99
BRANCH  82 110
ATOM    110  C   UNL A   1      43.397  24.795  26.013  1.00  0.00     0.064 A 
ATOM    111  C   UNL A   1      44.390  24.566  25.048  1.00  0.00     0.173 A 
ATOM    112  C   UNL A   1      42.659  23.672  26.436  1.00  0.00     0.173 A 
ATOM    113  F   UNL A   1      45.161  25.577  24.622  1.00  0.00    -0.203 F 
ATOM    114  C   UNL A   1      44.666  23.280  24.569  1.00  0.00     0.198 A 
ATOM    115  C   UNL A   1      42.934  22.389  25.955  1.00  0.00     0.198 A 
ATOM    116  F   UNL A   1      41.733  23.780  27.398  1.00  0.00    -0.203 F 
ATOM    117  F   UNL A   1      45.673  23.089  23.706  1.00  0.00    -0.200 F 
ATOM    118  C   UNL A   1      43.948  22.191  25.037  1.00  0.00     0.200 A 
ATOM    119  F   UNL A   1      42.258  21.338  26.442  1.00  0.00    -0.200 F 
ATOM    120  F   UNL A   1      44.262  20.951  24.638  1.00  0.00    -0.200 F 
ENDBRANCH  82 110
BRANCH  97 121
ATOM    121  C   UNL A   1      45.363  30.133  28.795  1.00  0.00     0.064 A 
ATOM    122  C   UNL A   1      44.354  30.849  28.126  1.00  0.00     0.173 A 
ATOM    123  C   UNL A   1      46.681  30.573  28.613  1.00  0.00     0.173 A 
ATOM    124  F   UNL A   1      43.063  30.556  28.310  1.00  0.00    -0.203 F 
ATOM    125  C   UNL A   1      44.654  31.926  27.289  1.00  0.00     0.198 A 
ATOM    126  C   UNL A   1      46.977  31.670  27.807  1.00  0.00     0.198 A 
ATOM    127  F   UNL A   1      47.686  29.963  29.261  1.00  0.00    -0.203 F 
ATOM    128  F   UNL A   1      43.671  32.582  26.655  1.00  0.00    -0.200 F 
ATOM    129  C   UNL A   1      45.966  32.340  27.138  1.00  0.00     0.200 A 
ATOM    130  F   UNL A   1      48.244  32.096  27.702  1.00  0.00    -0.200 F 
ATOM    131  F   UNL A   1      46.253  33.400  26.369  1.00  0.00    -0.200 F 
ENDBRANCH  97 121
ENDBRANCH  62  65
ENDBRANCH  52  55
ENDBRANCH  48  51
ENDBRANCH  45  48
ENDBRANCH  42  45
ENDBRANCH  39  42
ENDBRANCH   1  39
TORSDOF 18
ENDMDL
