MODEL 1
REMARK VINA RESULT:     -12.2      0.000      0.000
REMARK SMILES CC(C)(C)c1cc(Nc2ccccc2C(=O)NCCCCCCNC(=O)c2ccc(-c3c4nc(c(-c5c(F)c(F)c(F)c(F)c5F)c5ccc([nH]5)c(-c5c(F)c(F)c(F)c(F)c5F)c5nc(c(-c6c(F)c(F)c(F)c(F)c6F)c6ccc3[nH]6)C=C5)C=C4)cc2)cc2c1OCC2(C)C
REMARK SMILES IDX 19 1 18 4 17 7 15 8 16 9 14 11 9 12 10 13 11 14 13 16 12 17
REMARK SMILES IDX 8 21 7 23 5 24 6 25 92 26 91 28 93 29 90 30 95 31 94 32 2 36
REMARK SMILES IDX 1 37 3 41 4 45 96 49 97 53 20 57 21 60 22 63 23 66 24 69
REMARK SMILES IDX 25 70 26 72 27 73 28 74 89 75 29 76 88 78 30 80 31 83 32 84
REMARK SMILES IDX 82 85 33 86 87 87 81 88 83 89 34 90 86 91 80 93 79 95 35 97
REMARK SMILES IDX 67 100 47 101 66 102 48 103 51 104 65 105 84 106 49 107
REMARK SMILES IDX 50 109 64 111 85 112 52 115 36 117 37 118 45 119 38 120
REMARK SMILES IDX 39 121 43 122 46 123 40 124 41 125 44 126 42 127 68 128
REMARK SMILES IDX 69 129 77 130 70 131 71 132 75 133 78 134 72 135 73 136
REMARK SMILES IDX 76 137 74 138 53 139 54 140 62 141 55 142 56 143 60 144
REMARK SMILES IDX 63 145 57 146 58 147 61 148 59 149
REMARK H PARENT 19 2 19 3 18 5 18 6 17 10 10 15 11 18 13 19 12 20 8 22 6 27
REMARK H PARENT 90 33 94 34 94 35 1 38 1 39 1 40 3 42 3 43 3 44 4 46 4 47 4 48
REMARK H PARENT 96 50 96 51 96 52 97 54 97 55 97 56 20 58 20 59 21 61 21 62
REMARK H PARENT 22 64 22 65 23 67 23 68 24 71 28 77 89 79 29 81 88 82 87 92
REMARK H PARENT 81 94 83 96 86 98 80 99 48 108 51 110 84 113 49 114 85 116
REMARK Flexibility Score: inf
ROOT
ATOM      1  C   UNL A   1      33.713  24.300  26.509  1.00  0.00    -0.036 C 
ATOM      2  H   UNL A   1      33.700  25.086  27.236  1.00  0.00     0.028 H 
ATOM      3  H   UNL A   1      33.026  24.373  25.692  1.00  0.00     0.028 H 
ENDROOT
BRANCH   1   4
ATOM      4  C   UNL A   1      33.269  23.030  27.228  1.00  0.00     0.018 C 
ATOM      5  H   UNL A   1      33.812  22.213  26.801  1.00  0.00     0.049 H 
ATOM      6  H   UNL A   1      33.467  23.219  28.263  1.00  0.00     0.049 H 
BRANCH   4   7
ATOM      7  N   UNL A   1      31.873  22.694  27.178  1.00  0.00    -0.352 N 
ATOM      8  C   UNL A   1      31.034  22.518  26.101  1.00  0.00     0.253 C 
ATOM      9  O   UNL A   1      29.877  22.179  26.382  1.00  0.00    -0.269 OA
ATOM     10  H   UNL A   1      31.448  22.568  28.057  1.00  0.00     0.163 HD
BRANCH   8  11
ATOM     11  C   UNL A   1      31.354  22.747  24.644  1.00  0.00     0.063 A 
ATOM     12  C   UNL A   1      30.963  23.794  23.780  1.00  0.00     0.051 A 
ATOM     13  C   UNL A   1      31.531  23.852  22.479  1.00  0.00    -0.038 A 
ATOM     14  C   UNL A   1      32.390  22.873  21.992  1.00  0.00    -0.060 A 
ATOM     15  H   UNL A   1      31.296  24.652  21.871  1.00  0.00     0.064 H 
ATOM     16  C   UNL A   1      32.238  21.767  24.121  1.00  0.00    -0.047 A 
ATOM     17  C   UNL A   1      32.731  21.814  22.812  1.00  0.00    -0.061 A 
ATOM     18  H   UNL A   1      32.767  22.936  21.033  1.00  0.00     0.062 H 
ATOM     19  H   UNL A   1      32.529  20.987  24.731  1.00  0.00     0.063 H 
ATOM     20  H   UNL A   1      33.347  21.063  22.462  1.00  0.00     0.062 H 
BRANCH  12  21
ATOM     21  N   UNL A   1      29.962  24.755  24.047  1.00  0.00    -0.355 N 
ATOM     22  H   UNL A   1      29.027  24.449  24.035  1.00  0.00     0.167 HD
BRANCH  21  23
ATOM     23  C   UNL A   1      30.196  26.126  24.332  1.00  0.00     0.039 A 
ATOM     24  C   UNL A   1      29.776  28.511  23.791  1.00  0.00     0.002 A 
ATOM     25  C   UNL A   1      29.451  27.133  23.679  1.00  0.00    -0.031 A 
ATOM     26  C   UNL A   1      30.837  28.826  24.638  1.00  0.00     0.127 A 
ATOM     27  H   UNL A   1      28.642  26.857  23.100  1.00  0.00     0.065 H 
ATOM     28  C   UNL A   1      31.549  27.862  25.319  1.00  0.00     0.006 A 
ATOM     29  O   UNL A   1      31.330  30.087  24.835  1.00  0.00    -0.492 OA
ATOM     30  C   UNL A   1      31.248  26.522  25.167  1.00  0.00    -0.031 A 
ATOM     31  C   UNL A   1      32.628  28.477  26.139  1.00  0.00     0.028 C 
ATOM     32  C   UNL A   1      32.408  29.960  25.785  1.00  0.00     0.097 C 
ATOM     33  H   UNL A   1      31.801  25.810  25.670  1.00  0.00     0.065 H 
ATOM     34  H   UNL A   1      32.163  30.504  26.674  1.00  0.00     0.072 H 
ATOM     35  H   UNL A   1      33.304  30.355  25.354  1.00  0.00     0.072 H 
BRANCH  24  36
ATOM     36  C   UNL A   1      29.143  29.584  22.893  1.00  0.00    -0.009 C 
BRANCH  36  37
ATOM     37  C   UNL A   1      29.033  30.979  23.549  1.00  0.00    -0.056 C 
ATOM     38  H   UNL A   1      28.964  31.726  22.788  1.00  0.00     0.024 H 
ATOM     39  H   UNL A   1      29.901  31.160  24.150  1.00  0.00     0.024 H 
ATOM     40  H   UNL A   1      28.159  31.015  24.165  1.00  0.00     0.024 H 
ENDBRANCH  36  37
BRANCH  36  41
ATOM     41  C   UNL A   1      27.720  29.216  22.422  1.00  0.00    -0.056 C 
ATOM     42  H   UNL A   1      27.267  30.067  21.955  1.00  0.00     0.024 H 
ATOM     43  H   UNL A   1      27.131  28.916  23.264  1.00  0.00     0.024 H 
ATOM     44  H   UNL A   1      27.774  28.411  21.719  1.00  0.00     0.024 H 
ENDBRANCH  36  41
BRANCH  36  45
ATOM     45  C   UNL A   1      30.083  29.703  21.679  1.00  0.00    -0.056 C 
ATOM     46  H   UNL A   1      29.679  29.147  20.860  1.00  0.00     0.024 H 
ATOM     47  H   UNL A   1      31.046  29.313  21.934  1.00  0.00     0.024 H 
ATOM     48  H   UNL A   1      30.177  30.732  21.401  1.00  0.00     0.024 H 
ENDBRANCH  36  45
ENDBRANCH  24  36
BRANCH  31  49
ATOM     49  C   UNL A   1      32.384  28.210  27.626  1.00  0.00    -0.052 C 
ATOM     50  H   UNL A   1      32.227  29.139  28.135  1.00  0.00     0.024 H 
ATOM     51  H   UNL A   1      33.235  27.714  28.043  1.00  0.00     0.024 H 
ATOM     52  H   UNL A   1      31.518  27.592  27.739  1.00  0.00     0.024 H 
ENDBRANCH  31  49
BRANCH  31  53
ATOM     53  C   UNL A   1      34.024  28.008  25.722  1.00  0.00    -0.052 C 
ATOM     54  H   UNL A   1      34.037  27.818  24.668  1.00  0.00     0.024 H 
ATOM     55  H   UNL A   1      34.270  27.109  26.248  1.00  0.00     0.024 H 
ATOM     56  H   UNL A   1      34.742  28.766  25.957  1.00  0.00     0.024 H 
ENDBRANCH  31  53
ENDBRANCH  21  23
ENDBRANCH  12  21
ENDBRANCH   8  11
ENDBRANCH   4   7
ENDBRANCH   1   4
BRANCH   1  57
ATOM     57  C   UNL A   1      35.080  24.353  25.824  1.00  0.00    -0.052 C 
ATOM     58  H   UNL A   1      35.773  23.864  26.478  1.00  0.00     0.027 H 
ATOM     59  H   UNL A   1      35.229  25.399  25.648  1.00  0.00     0.027 H 
BRANCH  57  60
ATOM     60  C   UNL A   1      35.264  23.730  24.437  1.00  0.00    -0.052 C 
ATOM     61  H   UNL A   1      35.828  24.425  23.851  1.00  0.00     0.027 H 
ATOM     62  H   UNL A   1      34.266  23.533  24.105  1.00  0.00     0.027 H 
BRANCH  60  63
ATOM     63  C   UNL A   1      35.966  22.375  24.328  1.00  0.00    -0.036 C 
ATOM     64  H   UNL A   1      36.832  22.513  23.713  1.00  0.00     0.028 H 
ATOM     65  H   UNL A   1      35.218  21.717  23.938  1.00  0.00     0.028 H 
BRANCH  63  66
ATOM     66  C   UNL A   1      36.432  21.698  25.621  1.00  0.00     0.018 C 
ATOM     67  H   UNL A   1      35.607  21.138  26.010  1.00  0.00     0.049 H 
ATOM     68  H   UNL A   1      36.765  22.491  26.257  1.00  0.00     0.049 H 
BRANCH  66  69
ATOM     69  N   UNL A   1      37.561  20.796  25.498  1.00  0.00    -0.352 N 
ATOM     70  C   UNL A   1      38.874  20.961  25.911  1.00  0.00     0.251 C 
ATOM     71  H   UNL A   1      37.367  19.940  25.056  1.00  0.00     0.163 HD
ATOM     72  O   UNL A   1      39.675  20.050  25.771  1.00  0.00    -0.269 OA
BRANCH  70  73
ATOM     73  C   UNL A   1      39.347  22.260  26.464  1.00  0.00     0.039 A 
ATOM     74  C   UNL A   1      38.762  23.473  26.115  1.00  0.00    -0.049 A 
ATOM     75  C   UNL A   1      40.406  22.259  27.375  1.00  0.00    -0.049 A 
ATOM     76  C   UNL A   1      39.361  24.681  26.504  1.00  0.00    -0.053 A 
ATOM     77  H   UNL A   1      37.887  23.485  25.568  1.00  0.00     0.063 H 
ATOM     78  C   UNL A   1      40.956  23.470  27.828  1.00  0.00    -0.053 A 
ATOM     79  H   UNL A   1      40.787  21.362  27.717  1.00  0.00     0.063 H 
ATOM     80  C   UNL A   1      40.495  24.703  27.337  1.00  0.00    -0.014 A 
ATOM     81  H   UNL A   1      38.962  25.572  26.173  1.00  0.00     0.063 H 
ATOM     82  H   UNL A   1      41.710  23.454  28.532  1.00  0.00     0.063 H 
BRANCH  80  83
ATOM     83  C   UNL A   1      41.236  25.978  27.635  1.00  0.00     0.031 A 
ATOM     84  C   UNL A   1      40.587  27.070  28.466  1.00  0.00     0.074 A 
ATOM     85  C   UNL A   1      42.501  26.182  27.209  1.00  0.00     0.049 A 
ATOM     86  N   UNL A   1      41.002  28.291  28.717  1.00  0.00    -0.248 NA
ATOM     87  C   UNL A   1      39.295  26.748  29.093  1.00  0.00    -0.034 C 
ATOM     88  C   UNL A   1      43.303  25.229  26.446  1.00  0.00    -0.036 A 
ATOM     89  N   UNL A   1      43.341  27.264  27.369  1.00  0.00    -0.354 N 
ATOM     90  C   UNL A   1      40.008  28.888  29.487  1.00  0.00     0.074 A 
ATOM     91  C   UNL A   1      38.956  27.906  29.642  1.00  0.00    -0.034 C 
ATOM     92  H   UNL A   1      38.784  25.851  29.103  1.00  0.00     0.065 H 
ATOM     93  C   UNL A   1      44.529  25.739  26.251  1.00  0.00    -0.036 A 
ATOM     94  H   UNL A   1      42.979  24.308  26.110  1.00  0.00     0.065 H 
ATOM     95  C   UNL A   1      44.579  27.095  26.793  1.00  0.00     0.049 A 
ATOM     96  H   UNL A   1      43.080  28.081  27.850  1.00  0.00     0.167 HD
ATOM     97  C   UNL A   1      39.972  30.131  30.029  1.00  0.00     0.037 A 
ATOM     98  H   UNL A   1      38.060  28.084  30.120  1.00  0.00     0.065 H 
ATOM     99  H   UNL A   1      45.312  25.250  25.790  1.00  0.00     0.065 H 
ATOM    100  C   UNL A   1      45.629  27.935  26.678  1.00  0.00     0.037 A 
ATOM    101  C   UNL A   1      41.031  31.106  29.932  1.00  0.00     0.049 A 
ATOM    102  C   UNL A   1      45.539  29.336  27.222  1.00  0.00     0.074 A 
ATOM    103  C   UNL A   1      41.074  32.385  30.464  1.00  0.00    -0.036 A 
ATOM    104  N   UNL A   1      42.237  30.907  29.280  1.00  0.00    -0.354 N 
ATOM    105  N   UNL A   1      44.572  29.901  27.901  1.00  0.00    -0.248 NA
ATOM    106  C   UNL A   1      46.684  30.223  26.965  1.00  0.00    -0.034 C 
ATOM    107  C   UNL A   1      42.285  32.976  30.094  1.00  0.00    -0.036 A 
ATOM    108  H   UNL A   1      40.336  32.826  31.034  1.00  0.00     0.065 H 
ATOM    109  C   UNL A   1      43.021  32.047  29.380  1.00  0.00     0.049 A 
ATOM    110  H   UNL A   1      42.498  30.079  28.814  1.00  0.00     0.167 HD
ATOM    111  C   UNL A   1      44.997  31.197  28.165  1.00  0.00     0.074 A 
ATOM    112  C   UNL A   1      46.318  31.332  27.592  1.00  0.00    -0.034 C 
ATOM    113  H   UNL A   1      47.548  30.032  26.433  1.00  0.00     0.065 H 
ATOM    114  H   UNL A   1      42.581  33.940  30.318  1.00  0.00     0.065 H 
ATOM    115  C   UNL A   1      44.340  32.185  28.820  1.00  0.00     0.037 A 
ATOM    116  H   UNL A   1      46.900  32.182  27.663  1.00  0.00     0.065 H 
BRANCH  97 117
ATOM    117  C   UNL A   1      38.736  30.536  30.785  1.00  0.00     0.064 A 
ATOM    118  C   UNL A   1      38.672  30.469  32.184  1.00  0.00     0.173 A 
ATOM    119  C   UNL A   1      37.633  31.078  30.104  1.00  0.00     0.173 A 
ATOM    120  F   UNL A   1      39.694  29.953  32.883  1.00  0.00    -0.203 F 
ATOM    121  C   UNL A   1      37.544  30.912  32.872  1.00  0.00     0.198 A 
ATOM    122  C   UNL A   1      36.521  31.548  30.797  1.00  0.00     0.198 A 
ATOM    123  F   UNL A   1      37.646  31.179  28.766  1.00  0.00    -0.203 F 
ATOM    124  F   UNL A   1      37.491  30.803  34.207  1.00  0.00    -0.200 F 
ATOM    125  C   UNL A   1      36.474  31.460  32.180  1.00  0.00     0.200 A 
ATOM    126  F   UNL A   1      35.497  32.096  30.127  1.00  0.00    -0.200 F 
ATOM    127  F   UNL A   1      35.399  31.902  32.845  1.00  0.00    -0.200 F 
ENDBRANCH  97 117
BRANCH 100 128
ATOM    128  C   UNL A   1      46.869  27.474  25.998  1.00  0.00     0.064 A 
ATOM    129  C   UNL A   1      47.905  26.871  26.726  1.00  0.00     0.173 A 
ATOM    130  C   UNL A   1      47.043  27.618  24.614  1.00  0.00     0.173 A 
ATOM    131  F   UNL A   1      47.802  26.743  28.056  1.00  0.00    -0.203 F 
ATOM    132  C   UNL A   1      49.066  26.429  26.093  1.00  0.00     0.198 A 
ATOM    133  C   UNL A   1      48.189  27.145  23.978  1.00  0.00     0.198 A 
ATOM    134  F   UNL A   1      46.087  28.197  23.873  1.00  0.00    -0.203 F 
ATOM    135  F   UNL A   1      50.057  25.889  26.817  1.00  0.00    -0.200 F 
ATOM    136  C   UNL A   1      49.202  26.556  24.719  1.00  0.00     0.200 A 
ATOM    137  F   UNL A   1      48.311  27.257  22.649  1.00  0.00    -0.200 F 
ATOM    138  F   UNL A   1      50.311  26.114  24.109  1.00  0.00    -0.200 F 
ENDBRANCH 100 128
BRANCH 115 139
ATOM    139  C   UNL A   1      45.040  33.504  28.988  1.00  0.00     0.064 A 
ATOM    140  C   UNL A   1      45.913  33.743  30.060  1.00  0.00     0.173 A 
ATOM    141  C   UNL A   1      44.889  34.518  28.029  1.00  0.00     0.173 A 
ATOM    142  F   UNL A   1      46.082  32.812  31.011  1.00  0.00    -0.203 F 
ATOM    143  C   UNL A   1      46.596  34.951  30.174  1.00  0.00     0.198 A 
ATOM    144  C   UNL A   1      45.596  35.715  28.130  1.00  0.00     0.198 A 
ATOM    145  F   UNL A   1      44.073  34.341  26.979  1.00  0.00    -0.203 F 
ATOM    146  F   UNL A   1      47.397  35.170  31.226  1.00  0.00    -0.200 F 
ATOM    147  C   UNL A   1      46.445  35.932  29.205  1.00  0.00     0.200 A 
ATOM    148  F   UNL A   1      45.461  36.654  27.184  1.00  0.00    -0.200 F 
ATOM    149  F   UNL A   1      47.116  37.087  29.308  1.00  0.00    -0.200 F 
ENDBRANCH 115 139
ENDBRANCH  80  83
ENDBRANCH  70  73
ENDBRANCH  66  69
ENDBRANCH  63  66
ENDBRANCH  60  63
ENDBRANCH  57  60
ENDBRANCH   1  57
TORSDOF 21
ENDMDL
MODEL 2
REMARK VINA RESULT:     -11.9      3.936      9.733
REMARK SMILES CC(C)(C)c1cc(Nc2ccccc2C(=O)NCCCCCCNC(=O)c2ccc(-c3c4nc(c(-c5c(F)c(F)c(F)c(F)c5F)c5ccc([nH]5)c(-c5c(F)c(F)c(F)c(F)c5F)c5nc(c(-c6c(F)c(F)c(F)c(F)c6F)c6ccc3[nH]6)C=C5)C=C4)cc2)cc2c1OCC2(C)C
REMARK SMILES IDX 19 1 18 4 17 7 15 8 16 9 14 11 9 12 10 13 11 14 13 16 12 17
REMARK SMILES IDX 8 21 7 23 5 24 6 25 92 26 91 28 93 29 90 30 95 31 94 32 2 36
REMARK SMILES IDX 1 37 3 41 4 45 96 49 97 53 20 57 21 60 22 63 23 66 24 69
REMARK SMILES IDX 25 70 26 72 27 73 28 74 89 75 29 76 88 78 30 80 31 83 32 84
REMARK SMILES IDX 82 85 33 86 87 87 81 88 83 89 34 90 86 91 80 93 79 95 35 97
REMARK SMILES IDX 67 100 47 101 66 102 48 103 51 104 65 105 84 106 49 107
REMARK SMILES IDX 50 109 64 111 85 112 52 115 36 117 37 118 45 119 38 120
REMARK SMILES IDX 39 121 43 122 46 123 40 124 41 125 44 126 42 127 68 128
REMARK SMILES IDX 69 129 77 130 70 131 71 132 75 133 78 134 72 135 73 136
REMARK SMILES IDX 76 137 74 138 53 139 54 140 62 141 55 142 56 143 60 144
REMARK SMILES IDX 63 145 57 146 58 147 61 148 59 149
REMARK H PARENT 19 2 19 3 18 5 18 6 17 10 10 15 11 18 13 19 12 20 8 22 6 27
REMARK H PARENT 90 33 94 34 94 35 1 38 1 39 1 40 3 42 3 43 3 44 4 46 4 47 4 48
REMARK H PARENT 96 50 96 51 96 52 97 54 97 55 97 56 20 58 20 59 21 61 21 62
REMARK H PARENT 22 64 22 65 23 67 23 68 24 71 28 77 89 79 29 81 88 82 87 92
REMARK H PARENT 81 94 83 96 86 98 80 99 48 108 51 110 84 113 49 114 85 116
REMARK Flexibility Score: inf
ROOT
ATOM      1  C   UNL A   1      34.219  25.609  23.826  1.00  0.00    -0.036 C 
ATOM      2  H   UNL A   1      35.250  25.807  23.617  1.00  0.00     0.028 H 
ATOM      3  H   UNL A   1      33.992  24.743  24.411  1.00  0.00     0.028 H 
ENDROOT
BRANCH   1   4
ATOM      4  C   UNL A   1      33.549  25.314  22.488  1.00  0.00     0.018 C 
ATOM      5  H   UNL A   1      32.788  26.051  22.341  1.00  0.00     0.049 H 
ATOM      6  H   UNL A   1      34.347  25.332  21.774  1.00  0.00     0.049 H 
BRANCH   4   7
ATOM      7  N   UNL A   1      32.938  24.025  22.323  1.00  0.00    -0.352 N 
ATOM      8  C   UNL A   1      31.874  23.449  22.979  1.00  0.00     0.253 C 
ATOM      9  O   UNL A   1      31.546  22.326  22.573  1.00  0.00    -0.269 OA
ATOM     10  H   UNL A   1      33.348  23.461  21.626  1.00  0.00     0.163 HD
BRANCH   8  11
ATOM     11  C   UNL A   1      31.115  24.007  24.158  1.00  0.00     0.063 A 
ATOM     12  C   UNL A   1      30.868  23.445  25.430  1.00  0.00     0.051 A 
ATOM     13  C   UNL A   1      30.248  24.250  26.423  1.00  0.00    -0.038 A 
ATOM     14  C   UNL A   1      29.796  25.540  26.166  1.00  0.00    -0.060 A 
ATOM     15  H   UNL A   1      30.126  23.862  27.371  1.00  0.00     0.064 H 
ATOM     16  C   UNL A   1      30.649  25.328  23.929  1.00  0.00    -0.047 A 
ATOM     17  C   UNL A   1      29.982  26.076  24.906  1.00  0.00    -0.061 A 
ATOM     18  H   UNL A   1      29.329  26.089  26.905  1.00  0.00     0.062 H 
ATOM     19  H   UNL A   1      30.809  25.756  23.003  1.00  0.00     0.063 H 
ATOM     20  H   UNL A   1      29.631  27.022  24.687  1.00  0.00     0.062 H 
BRANCH  12  21
ATOM     21  N   UNL A   1      31.088  22.098  25.795  1.00  0.00    -0.355 N 
ATOM     22  H   UNL A   1      30.334  21.610  26.199  1.00  0.00     0.167 HD
BRANCH  21  23
ATOM     23  C   UNL A   1      32.307  21.390  25.626  1.00  0.00     0.039 A 
ATOM     24  C   UNL A   1      34.775  21.437  25.369  1.00  0.00     0.002 A 
ATOM     25  C   UNL A   1      33.547  22.061  25.714  1.00  0.00    -0.031 A 
ATOM     26  C   UNL A   1      34.699  20.095  24.997  1.00  0.00     0.127 A 
ATOM     27  H   UNL A   1      33.560  23.040  26.041  1.00  0.00     0.065 H 
ATOM     28  C   UNL A   1      33.505  19.409  24.947  1.00  0.00     0.006 A 
ATOM     29  O   UNL A   1      35.762  19.340  24.582  1.00  0.00    -0.492 OA
ATOM     30  C   UNL A   1      32.314  20.042  25.245  1.00  0.00    -0.031 A 
ATOM     31  C   UNL A   1      33.718  18.002  24.511  1.00  0.00     0.028 C 
ATOM     32  C   UNL A   1      35.245  18.022  24.308  1.00  0.00     0.097 C 
ATOM     33  H   UNL A   1      31.425  19.520  25.187  1.00  0.00     0.065 H 
ATOM     34  H   UNL A   1      35.700  17.317  24.972  1.00  0.00     0.072 H 
ATOM     35  H   UNL A   1      35.467  17.761  23.295  1.00  0.00     0.072 H 
BRANCH  24  36
ATOM     36  C   UNL A   1      36.085  22.222  25.214  1.00  0.00    -0.009 C 
BRANCH  36  37
ATOM     37  C   UNL A   1      37.354  21.423  25.590  1.00  0.00    -0.056 C 
ATOM     38  H   UNL A   1      37.288  20.437  25.183  1.00  0.00     0.024 H 
ATOM     39  H   UNL A   1      37.435  21.365  26.656  1.00  0.00     0.024 H 
ATOM     40  H   UNL A   1      38.216  21.916  25.193  1.00  0.00     0.024 H 
ENDBRANCH  36  37
BRANCH  36  41
ATOM     41  C   UNL A   1      36.122  23.511  26.061  1.00  0.00    -0.056 C 
ATOM     42  H   UNL A   1      37.060  24.006  25.918  1.00  0.00     0.024 H 
ATOM     43  H   UNL A   1      36.004  23.263  27.095  1.00  0.00     0.024 H 
ATOM     44  H   UNL A   1      35.326  24.160  25.758  1.00  0.00     0.024 H 
ENDBRANCH  36  41
BRANCH  36  45
ATOM     45  C   UNL A   1      36.173  22.575  23.718  1.00  0.00    -0.056 C 
ATOM     46  H   UNL A   1      36.826  23.412  23.586  1.00  0.00     0.024 H 
ATOM     47  H   UNL A   1      35.198  22.823  23.352  1.00  0.00     0.024 H 
ATOM     48  H   UNL A   1      36.555  21.735  23.175  1.00  0.00     0.024 H 
ENDBRANCH  36  45
ENDBRANCH  24  36
BRANCH  31  49
ATOM     49  C   UNL A   1      33.309  17.033  25.623  1.00  0.00    -0.052 C 
ATOM     50  H   UNL A   1      33.105  17.584  26.519  1.00  0.00     0.024 H 
ATOM     51  H   UNL A   1      34.104  16.341  25.804  1.00  0.00     0.024 H 
ATOM     52  H   UNL A   1      32.431  16.499  25.326  1.00  0.00     0.024 H 
ENDBRANCH  31  49
BRANCH  31  53
ATOM     53  C   UNL A   1      32.988  17.673  23.206  1.00  0.00    -0.052 C 
ATOM     54  H   UNL A   1      33.382  16.766  22.795  1.00  0.00     0.024 H 
ATOM     55  H   UNL A   1      33.130  18.472  22.508  1.00  0.00     0.024 H 
ATOM     56  H   UNL A   1      31.943  17.553  23.402  1.00  0.00     0.024 H 
ENDBRANCH  31  53
ENDBRANCH  21  23
ENDBRANCH  12  21
ENDBRANCH   8  11
ENDBRANCH   4   7
ENDBRANCH   1   4
BRANCH   1  57
ATOM     57  C   UNL A   1      33.716  26.764  24.696  1.00  0.00    -0.052 C 
ATOM     58  H   UNL A   1      34.354  26.805  25.555  1.00  0.00     0.027 H 
ATOM     59  H   UNL A   1      32.687  26.519  24.861  1.00  0.00     0.027 H 
BRANCH  57  60
ATOM     60  C   UNL A   1      33.656  28.183  24.120  1.00  0.00    -0.052 C 
ATOM     61  H   UNL A   1      33.564  28.088  23.059  1.00  0.00     0.027 H 
ATOM     62  H   UNL A   1      34.550  28.647  24.478  1.00  0.00     0.027 H 
BRANCH  60  63
ATOM     63  C   UNL A   1      32.538  29.117  24.588  1.00  0.00    -0.036 C 
ATOM     64  H   UNL A   1      31.613  28.709  24.235  1.00  0.00     0.028 H 
ATOM     65  H   UNL A   1      32.806  30.074  24.191  1.00  0.00     0.028 H 
BRANCH  63  66
ATOM     66  C   UNL A   1      32.382  29.359  26.092  1.00  0.00     0.018 C 
ATOM     67  H   UNL A   1      33.288  29.045  26.568  1.00  0.00     0.049 H 
ATOM     68  H   UNL A   1      31.515  28.805  26.384  1.00  0.00     0.049 H 
BRANCH  66  69
ATOM     69  N   UNL A   1      32.123  30.729  26.495  1.00  0.00    -0.352 N 
ATOM     70  C   UNL A   1      32.956  31.639  27.124  1.00  0.00     0.251 C 
ATOM     71  H   UNL A   1      31.219  31.061  26.291  1.00  0.00     0.163 HD
ATOM     72  O   UNL A   1      32.570  32.780  27.327  1.00  0.00    -0.269 OA
BRANCH  70  73
ATOM     73  C   UNL A   1      34.299  31.233  27.622  1.00  0.00     0.039 A 
ATOM     74  C   UNL A   1      34.666  29.898  27.765  1.00  0.00    -0.049 A 
ATOM     75  C   UNL A   1      35.228  32.226  27.945  1.00  0.00    -0.049 A 
ATOM     76  C   UNL A   1      35.862  29.563  28.419  1.00  0.00    -0.053 A 
ATOM     77  H   UNL A   1      34.057  29.153  27.391  1.00  0.00     0.063 H 
ATOM     78  C   UNL A   1      36.460  31.885  28.526  1.00  0.00    -0.053 A 
ATOM     79  H   UNL A   1      35.006  33.216  27.754  1.00  0.00     0.063 H 
ATOM     80  C   UNL A   1      36.766  30.552  28.848  1.00  0.00    -0.014 A 
ATOM     81  H   UNL A   1      36.083  28.570  28.587  1.00  0.00     0.063 H 
ATOM     82  H   UNL A   1      37.152  32.625  28.721  1.00  0.00     0.063 H 
BRANCH  80  83
ATOM     83  C   UNL A   1      37.972  30.216  29.683  1.00  0.00     0.031 A 
ATOM     84  C   UNL A   1      39.086  29.357  29.115  1.00  0.00     0.074 A 
ATOM     85  C   UNL A   1      38.120  30.687  30.941  1.00  0.00     0.049 A 
ATOM     86  N   UNL A   1      40.137  28.843  29.714  1.00  0.00    -0.248 NA
ATOM     87  C   UNL A   1      39.006  29.025  27.684  1.00  0.00    -0.034 C 
ATOM     88  C   UNL A   1      37.182  31.567  31.632  1.00  0.00    -0.036 A 
ATOM     89  N   UNL A   1      39.131  30.498  31.858  1.00  0.00    -0.354 N 
ATOM     90  C   UNL A   1      40.809  28.100  28.749  1.00  0.00     0.074 A 
ATOM     91  C   UNL A   1      40.037  28.206  27.530  1.00  0.00    -0.034 C 
ATOM     92  H   UNL A   1      38.323  29.348  26.980  1.00  0.00     0.065 H 
ATOM     93  C   UNL A   1      37.681  31.884  32.838  1.00  0.00    -0.036 A 
ATOM     94  H   UNL A   1      36.278  31.893  31.255  1.00  0.00     0.065 H 
ATOM     95  C   UNL A   1      38.932  31.160  33.047  1.00  0.00     0.049 A 
ATOM     96  H   UNL A   1      39.922  29.939  31.680  1.00  0.00     0.167 HD
ATOM     97  C   UNL A   1      41.968  27.401  28.855  1.00  0.00     0.037 A 
ATOM     98  H   UNL A   1      40.260  27.709  26.654  1.00  0.00     0.065 H 
ATOM     99  H   UNL A   1      37.248  32.536  33.510  1.00  0.00     0.065 H 
ATOM    100  C   UNL A   1      39.646  31.167  34.192  1.00  0.00     0.037 A 
ATOM    101  C   UNL A   1      42.781  27.327  30.043  1.00  0.00     0.049 A 
ATOM    102  C   UNL A   1      40.890  30.326  34.312  1.00  0.00     0.074 A 
ATOM    103  C   UNL A   1      43.975  26.648  30.227  1.00  0.00    -0.036 A 
ATOM    104  N   UNL A   1      42.498  27.962  31.242  1.00  0.00    -0.354 N 
ATOM    105  N   UNL A   1      41.482  29.588  33.407  1.00  0.00    -0.248 NA
ATOM    106  C   UNL A   1      41.554  30.306  35.626  1.00  0.00    -0.034 C 
ATOM    107  C   UNL A   1      44.391  26.835  31.548  1.00  0.00    -0.036 A 
ATOM    108  H   UNL A   1      44.472  26.097  29.510  1.00  0.00     0.065 H 
ATOM    109  C   UNL A   1      43.486  27.676  32.173  1.00  0.00     0.049 A 
ATOM    110  H   UNL A   1      41.713  28.533  31.407  1.00  0.00     0.167 HD
ATOM    111  C   UNL A   1      42.591  29.033  34.033  1.00  0.00     0.074 A 
ATOM    112  C   UNL A   1      42.604  29.533  35.390  1.00  0.00    -0.034 C 
ATOM    113  H   UNL A   1      41.273  30.772  36.503  1.00  0.00     0.065 H 
ATOM    114  H   UNL A   1      45.231  26.420  31.983  1.00  0.00     0.065 H 
ATOM    115  C   UNL A   1      43.510  28.177  33.522  1.00  0.00     0.037 A 
ATOM    116  H   UNL A   1      43.337  29.316  36.084  1.00  0.00     0.065 H 
BRANCH  97 117
ATOM    117  C   UNL A   1      42.446  26.641  27.649  1.00  0.00     0.064 A 
ATOM    118  C   UNL A   1      43.396  27.178  26.767  1.00  0.00     0.173 A 
ATOM    119  C   UNL A   1      42.012  25.324  27.422  1.00  0.00     0.173 A 
ATOM    120  F   UNL A   1      43.838  28.432  26.933  1.00  0.00    -0.203 F 
ATOM    121  C   UNL A   1      43.877  26.432  25.693  1.00  0.00     0.198 A 
ATOM    122  C   UNL A   1      42.520  24.571  26.366  1.00  0.00     0.198 A 
ATOM    123  F   UNL A   1      41.115  24.756  28.243  1.00  0.00    -0.203 F 
ATOM    124  F   UNL A   1      44.757  26.979  24.841  1.00  0.00    -0.200 F 
ATOM    125  C   UNL A   1      43.447  25.127  25.499  1.00  0.00     0.200 A 
ATOM    126  F   UNL A   1      42.118  23.304  26.193  1.00  0.00    -0.200 F 
ATOM    127  F   UNL A   1      43.927  24.407  24.477  1.00  0.00    -0.200 F 
ENDBRANCH  97 117
BRANCH 100 128
ATOM    128  C   UNL A   1      39.191  31.997  35.339  1.00  0.00     0.064 A 
ATOM    129  C   UNL A   1      39.529  33.356  35.421  1.00  0.00     0.173 A 
ATOM    130  C   UNL A   1      38.406  31.459  36.369  1.00  0.00     0.173 A 
ATOM    131  F   UNL A   1      40.306  33.910  34.480  1.00  0.00    -0.203 F 
ATOM    132  C   UNL A   1      39.098  34.142  36.488  1.00  0.00     0.198 A 
ATOM    133  C   UNL A   1      37.947  32.253  37.418  1.00  0.00     0.198 A 
ATOM    134  F   UNL A   1      38.063  30.162  36.345  1.00  0.00    -0.203 F 
ATOM    135  F   UNL A   1      39.465  35.429  36.560  1.00  0.00    -0.200 F 
ATOM    136  C   UNL A   1      38.298  33.594  37.479  1.00  0.00     0.200 A 
ATOM    137  F   UNL A   1      37.164  31.722  38.366  1.00  0.00    -0.200 F 
ATOM    138  F   UNL A   1      37.868  34.354  38.495  1.00  0.00    -0.200 F 
ENDBRANCH 100 128
BRANCH 115 139
ATOM    139  C   UNL A   1      44.636  27.738  34.415  1.00  0.00     0.064 A 
ATOM    140  C   UNL A   1      44.559  26.558  35.169  1.00  0.00     0.173 A 
ATOM    141  C   UNL A   1      45.834  28.468  34.464  1.00  0.00     0.173 A 
ATOM    142  F   UNL A   1      43.432  25.830  35.168  1.00  0.00    -0.203 F 
ATOM    143  C   UNL A   1      45.630  26.134  35.951  1.00  0.00     0.198 A 
ATOM    144  C   UNL A   1      46.915  28.027  35.225  1.00  0.00     0.198 A 
ATOM    145  F   UNL A   1      45.965  29.600  33.757  1.00  0.00    -0.203 F 
ATOM    146  F   UNL A   1      45.520  25.023  36.691  1.00  0.00    -0.200 F 
ATOM    147  C   UNL A   1      46.810  26.863  35.970  1.00  0.00     0.200 A 
ATOM    148  F   UNL A   1      48.059  28.724  35.229  1.00  0.00    -0.200 F 
ATOM    149  F   UNL A   1      47.846  26.445  36.711  1.00  0.00    -0.200 F 
ENDBRANCH 115 139
ENDBRANCH  80  83
ENDBRANCH  70  73
ENDBRANCH  66  69
ENDBRANCH  63  66
ENDBRANCH  60  63
ENDBRANCH  57  60
ENDBRANCH   1  57
TORSDOF 21
ENDMDL
MODEL 3
REMARK VINA RESULT:     -11.8      3.608      7.583
REMARK SMILES CC(C)(C)c1cc(Nc2ccccc2C(=O)NCCCCCCNC(=O)c2ccc(-c3c4nc(c(-c5c(F)c(F)c(F)c(F)c5F)c5ccc([nH]5)c(-c5c(F)c(F)c(F)c(F)c5F)c5nc(c(-c6c(F)c(F)c(F)c(F)c6F)c6ccc3[nH]6)C=C5)C=C4)cc2)cc2c1OCC2(C)C
REMARK SMILES IDX 19 1 18 4 17 7 15 8 16 9 14 11 9 12 10 13 11 14 13 16 12 17
REMARK SMILES IDX 8 21 7 23 5 24 6 25 92 26 91 28 93 29 90 30 95 31 94 32 2 36
REMARK SMILES IDX 1 37 3 41 4 45 96 49 97 53 20 57 21 60 22 63 23 66 24 69
REMARK SMILES IDX 25 70 26 72 27 73 28 74 89 75 29 76 88 78 30 80 31 83 32 84
REMARK SMILES IDX 82 85 33 86 87 87 81 88 83 89 34 90 86 91 80 93 79 95 35 97
REMARK SMILES IDX 67 100 47 101 66 102 48 103 51 104 65 105 84 106 49 107
REMARK SMILES IDX 50 109 64 111 85 112 52 115 36 117 37 118 45 119 38 120
REMARK SMILES IDX 39 121 43 122 46 123 40 124 41 125 44 126 42 127 68 128
REMARK SMILES IDX 69 129 77 130 70 131 71 132 75 133 78 134 72 135 73 136
REMARK SMILES IDX 76 137 74 138 53 139 54 140 62 141 55 142 56 143 60 144
REMARK SMILES IDX 63 145 57 146 58 147 61 148 59 149
REMARK H PARENT 19 2 19 3 18 5 18 6 17 10 10 15 11 18 13 19 12 20 8 22 6 27
REMARK H PARENT 90 33 94 34 94 35 1 38 1 39 1 40 3 42 3 43 3 44 4 46 4 47 4 48
REMARK H PARENT 96 50 96 51 96 52 97 54 97 55 97 56 20 58 20 59 21 61 21 62
REMARK H PARENT 22 64 22 65 23 67 23 68 24 71 28 77 89 79 29 81 88 82 87 92
REMARK H PARENT 81 94 83 96 86 98 80 99 48 108 51 110 84 113 49 114 85 116
REMARK Flexibility Score: inf
ROOT
ATOM      1  C   UNL A   1      34.223  26.612  24.194  1.00  0.00    -0.036 C 
ATOM      2  H   UNL A   1      35.264  26.838  24.300  1.00  0.00     0.028 H 
ATOM      3  H   UNL A   1      33.965  25.668  23.763  1.00  0.00     0.028 H 
ENDROOT
BRANCH   1   4
ATOM      4  C   UNL A   1      33.654  27.619  23.200  1.00  0.00     0.018 C 
ATOM      5  H   UNL A   1      32.983  28.256  23.737  1.00  0.00     0.049 H 
ATOM      6  H   UNL A   1      34.512  28.106  22.784  1.00  0.00     0.049 H 
BRANCH   4   7
ATOM      7  N   UNL A   1      32.942  27.101  22.066  1.00  0.00    -0.352 N 
ATOM      8  C   UNL A   1      31.809  26.321  22.001  1.00  0.00     0.253 C 
ATOM      9  O   UNL A   1      31.402  26.073  20.859  1.00  0.00    -0.269 OA
ATOM     10  H   UNL A   1      33.327  27.342  21.192  1.00  0.00     0.163 HD
BRANCH   8  11
ATOM     11  C   UNL A   1      31.058  25.701  23.154  1.00  0.00     0.063 A 
ATOM     12  C   UNL A   1      31.039  24.366  23.614  1.00  0.00     0.051 A 
ATOM     13  C   UNL A   1      30.357  24.072  24.826  1.00  0.00    -0.038 A 
ATOM     14  C   UNL A   1      29.635  25.030  25.531  1.00  0.00    -0.060 A 
ATOM     15  H   UNL A   1      30.397  23.110  25.197  1.00  0.00     0.064 H 
ATOM     16  C   UNL A   1      30.318  26.657  23.899  1.00  0.00    -0.047 A 
ATOM     17  C   UNL A   1      29.601  26.327  25.054  1.00  0.00    -0.061 A 
ATOM     18  H   UNL A   1      29.133  24.776  26.396  1.00  0.00     0.062 H 
ATOM     19  H   UNL A   1      30.309  27.637  23.574  1.00  0.00     0.063 H 
ATOM     20  H   UNL A   1      29.050  27.047  25.547  1.00  0.00     0.062 H 
BRANCH  12  21
ATOM     21  N   UNL A   1      31.555  23.246  22.924  1.00  0.00    -0.355 N 
ATOM     22  H   UNL A   1      31.120  22.999  22.076  1.00  0.00     0.167 HD
BRANCH  21  23
ATOM     23  C   UNL A   1      32.648  22.449  23.353  1.00  0.00     0.039 A 
ATOM     24  C   UNL A   1      33.524  20.227  24.027  1.00  0.00     0.002 A 
ATOM     25  C   UNL A   1      32.527  21.044  23.430  1.00  0.00    -0.031 A 
ATOM     26  C   UNL A   1      34.667  20.884  24.480  1.00  0.00     0.127 A 
ATOM     27  H   UNL A   1      31.684  20.595  23.037  1.00  0.00     0.065 H 
ATOM     28  C   UNL A   1      34.825  22.249  24.375  1.00  0.00     0.006 A 
ATOM     29  O   UNL A   1      35.709  20.278  25.127  1.00  0.00    -0.492 OA
ATOM     30  C   UNL A   1      33.828  23.036  23.829  1.00  0.00    -0.031 A 
ATOM     31  C   UNL A   1      36.130  22.680  24.945  1.00  0.00     0.028 C 
ATOM     32  C   UNL A   1      36.674  21.314  25.406  1.00  0.00     0.097 C 
ATOM     33  H   UNL A   1      33.953  24.058  23.773  1.00  0.00     0.065 H 
ATOM     34  H   UNL A   1      37.583  21.101  24.885  1.00  0.00     0.072 H 
ATOM     35  H   UNL A   1      36.858  21.347  26.459  1.00  0.00     0.072 H 
BRANCH  24  36
ATOM     36  C   UNL A   1      33.293  18.744  24.346  1.00  0.00    -0.009 C 
BRANCH  36  37
ATOM     37  C   UNL A   1      32.706  18.479  25.751  1.00  0.00    -0.056 C 
ATOM     38  H   UNL A   1      32.871  19.332  26.373  1.00  0.00     0.024 H 
ATOM     39  H   UNL A   1      33.186  17.624  26.182  1.00  0.00     0.024 H 
ATOM     40  H   UNL A   1      31.655  18.294  25.670  1.00  0.00     0.024 H 
ENDBRANCH  36  37
BRANCH  36  41
ATOM     41  C   UNL A   1      34.580  17.896  24.252  1.00  0.00    -0.056 C 
ATOM     42  H   UNL A   1      34.881  17.818  23.228  1.00  0.00     0.024 H 
ATOM     43  H   UNL A   1      34.394  16.919  24.645  1.00  0.00     0.024 H 
ATOM     44  H   UNL A   1      35.358  18.366  24.817  1.00  0.00     0.024 H 
ENDBRANCH  36  41
BRANCH  36  45
ATOM     45  C   UNL A   1      32.268  18.259  23.305  1.00  0.00    -0.056 C 
ATOM     46  H   UNL A   1      31.829  19.103  22.816  1.00  0.00     0.024 H 
ATOM     47  H   UNL A   1      31.502  17.694  23.794  1.00  0.00     0.024 H 
ATOM     48  H   UNL A   1      32.759  17.642  22.581  1.00  0.00     0.024 H 
ENDBRANCH  36  45
ENDBRANCH  24  36
BRANCH  31  49
ATOM     49  C   UNL A   1      37.008  23.298  23.855  1.00  0.00    -0.052 C 
ATOM     50  H   UNL A   1      36.416  23.950  23.247  1.00  0.00     0.024 H 
ATOM     51  H   UNL A   1      37.422  22.521  23.247  1.00  0.00     0.024 H 
ATOM     52  H   UNL A   1      37.800  23.856  24.310  1.00  0.00     0.024 H 
ENDBRANCH  31  49
BRANCH  31  53
ATOM     53  C   UNL A   1      35.968  23.640  26.126  1.00  0.00    -0.052 C 
ATOM     54  H   UNL A   1      36.892  24.155  26.297  1.00  0.00     0.024 H 
ATOM     55  H   UNL A   1      35.701  23.087  27.002  1.00  0.00     0.024 H 
ATOM     56  H   UNL A   1      35.199  24.351  25.905  1.00  0.00     0.024 H 
ENDBRANCH  31  53
ENDBRANCH  21  23
ENDBRANCH  12  21
ENDBRANCH   8  11
ENDBRANCH   4   7
ENDBRANCH   1   4
BRANCH   1  57
ATOM     57  C   UNL A   1      33.644  26.522  25.608  1.00  0.00    -0.052 C 
ATOM     58  H   UNL A   1      34.470  26.358  26.271  1.00  0.00     0.027 H 
ATOM     59  H   UNL A   1      32.917  25.741  25.529  1.00  0.00     0.027 H 
BRANCH  57  60
ATOM     60  C   UNL A   1      32.844  27.696  26.181  1.00  0.00    -0.052 C 
ATOM     61  H   UNL A   1      31.955  27.289  26.616  1.00  0.00     0.027 H 
ATOM     62  H   UNL A   1      32.704  28.349  25.346  1.00  0.00     0.027 H 
BRANCH  60  63
ATOM     63  C   UNL A   1      33.499  28.583  27.242  1.00  0.00    -0.036 C 
ATOM     64  H   UNL A   1      34.374  28.072  27.588  1.00  0.00     0.028 H 
ATOM     65  H   UNL A   1      32.732  28.738  27.972  1.00  0.00     0.028 H 
BRANCH  63  66
ATOM     66  C   UNL A   1      33.929  29.996  26.837  1.00  0.00     0.018 C 
ATOM     67  H   UNL A   1      33.285  30.317  26.045  1.00  0.00     0.049 H 
ATOM     68  H   UNL A   1      34.959  29.914  26.561  1.00  0.00     0.049 H 
BRANCH  66  69
ATOM     69  N   UNL A   1      33.883  31.001  27.881  1.00  0.00    -0.352 N 
ATOM     70  C   UNL A   1      34.839  31.342  28.824  1.00  0.00     0.251 C 
ATOM     71  H   UNL A   1      33.048  31.519  27.928  1.00  0.00     0.163 HD
ATOM     72  O   UNL A   1      34.635  32.271  29.591  1.00  0.00    -0.269 OA
BRANCH  70  73
ATOM     73  C   UNL A   1      36.092  30.550  28.967  1.00  0.00     0.039 A 
ATOM     74  C   UNL A   1      36.285  29.646  30.007  1.00  0.00    -0.049 A 
ATOM     75  C   UNL A   1      37.104  30.712  28.017  1.00  0.00    -0.049 A 
ATOM     76  C   UNL A   1      37.548  29.071  30.214  1.00  0.00    -0.053 A 
ATOM     77  H   UNL A   1      35.498  29.399  30.628  1.00  0.00     0.063 H 
ATOM     78  C   UNL A   1      38.343  30.071  28.183  1.00  0.00    -0.053 A 
ATOM     79  H   UNL A   1      36.939  31.305  27.189  1.00  0.00     0.063 H 
ATOM     80  C   UNL A   1      38.615  29.303  29.328  1.00  0.00    -0.014 A 
ATOM     81  H   UNL A   1      37.697  28.464  31.035  1.00  0.00     0.063 H 
ATOM     82  H   UNL A   1      39.066  30.167  27.453  1.00  0.00     0.063 H 
BRANCH  80  83
ATOM     83  C   UNL A   1      40.010  28.820  29.620  1.00  0.00     0.031 A 
ATOM     84  C   UNL A   1      40.918  29.606  30.547  1.00  0.00     0.074 A 
ATOM     85  C   UNL A   1      40.487  27.667  29.102  1.00  0.00     0.049 A 
ATOM     86  N   UNL A   1      42.192  29.433  30.817  1.00  0.00    -0.248 NA
ATOM     87  C   UNL A   1      40.316  30.743  31.261  1.00  0.00    -0.034 C 
ATOM     88  C   UNL A   1      39.743  26.755  28.237  1.00  0.00    -0.036 A 
ATOM     89  N   UNL A   1      41.716  27.059  29.242  1.00  0.00    -0.354 N 
ATOM     90  C   UNL A   1      42.547  30.458  31.689  1.00  0.00     0.074 A 
ATOM     91  C   UNL A   1      41.362  31.265  31.886  1.00  0.00    -0.034 C 
ATOM     92  H   UNL A   1      39.331  31.054  31.273  1.00  0.00     0.065 H 
ATOM     93  C   UNL A   1      40.505  25.683  27.966  1.00  0.00    -0.036 A 
ATOM     94  H   UNL A   1      38.784  26.909  27.888  1.00  0.00     0.065 H 
ATOM     95  C   UNL A   1      41.826  25.869  28.562  1.00  0.00     0.049 A 
ATOM     96  H   UNL A   1      42.448  27.441  29.777  1.00  0.00     0.167 HD
ATOM     97  C   UNL A   1      43.741  30.704  32.286  1.00  0.00     0.037 A 
ATOM     98  H   UNL A   1      41.335  32.134  32.441  1.00  0.00     0.065 H 
ATOM     99  H   UNL A   1      40.204  24.859  27.424  1.00  0.00     0.065 H 
ATOM    100  C   UNL A   1      42.871  25.030  28.399  1.00  0.00     0.037 A 
ATOM    101  C   UNL A   1      44.918  29.883  32.147  1.00  0.00     0.049 A 
ATOM    102  C   UNL A   1      44.207  25.361  29.009  1.00  0.00     0.074 A 
ATOM    103  C   UNL A   1      46.163  30.060  32.728  1.00  0.00    -0.036 A 
ATOM    104  N   UNL A   1      44.995  28.724  31.391  1.00  0.00    -0.354 N 
ATOM    105  N   UNL A   1      44.539  26.361  29.787  1.00  0.00    -0.248 NA
ATOM    106  C   UNL A   1      45.323  24.452  28.699  1.00  0.00    -0.034 C 
ATOM    107  C   UNL A   1      47.006  29.035  32.289  1.00  0.00    -0.036 A 
ATOM    108  H   UNL A   1      46.425  30.821  33.375  1.00  0.00     0.065 H 
ATOM    109  C   UNL A   1      46.271  28.188  31.478  1.00  0.00     0.049 A 
ATOM    110  H   UNL A   1      44.253  28.338  30.871  1.00  0.00     0.167 HD
ATOM    111  C   UNL A   1      45.888  26.193  30.072  1.00  0.00     0.074 A 
ATOM    112  C   UNL A   1      46.313  24.984  29.402  1.00  0.00    -0.034 C 
ATOM    113  H   UNL A   1      45.331  23.617  28.092  1.00  0.00     0.065 H 
ATOM    114  H   UNL A   1      48.005  28.928  32.529  1.00  0.00     0.065 H 
ATOM    115  C   UNL A   1      46.699  26.980  30.820  1.00  0.00     0.037 A 
ATOM    116  H   UNL A   1      47.265  24.587  29.462  1.00  0.00     0.065 H 
BRANCH  97 117
ATOM    117  C   UNL A   1      43.856  31.926  33.155  1.00  0.00     0.064 A 
ATOM    118  C   UNL A   1      44.209  33.176  32.628  1.00  0.00     0.173 A 
ATOM    119  C   UNL A   1      43.524  31.860  34.519  1.00  0.00     0.173 A 
ATOM    120  F   UNL A   1      44.543  33.294  31.335  1.00  0.00    -0.203 F 
ATOM    121  C   UNL A   1      44.245  34.310  33.437  1.00  0.00     0.198 A 
ATOM    122  C   UNL A   1      43.529  33.001  35.316  1.00  0.00     0.198 A 
ATOM    123  F   UNL A   1      43.164  30.692  35.072  1.00  0.00    -0.203 F 
ATOM    124  F   UNL A   1      44.622  35.488  32.919  1.00  0.00    -0.200 F 
ATOM    125  C   UNL A   1      43.896  34.225  34.776  1.00  0.00     0.200 A 
ATOM    126  F   UNL A   1      43.172  32.920  36.605  1.00  0.00    -0.200 F 
ATOM    127  F   UNL A   1      43.912  35.321  35.546  1.00  0.00    -0.200 F 
ENDBRANCH  97 117
BRANCH 100 128
ATOM    128  C   UNL A   1      42.700  23.786  27.602  1.00  0.00     0.064 A 
ATOM    129  C   UNL A   1      43.023  23.757  26.237  1.00  0.00     0.173 A 
ATOM    130  C   UNL A   1      42.221  22.603  28.182  1.00  0.00     0.173 A 
ATOM    131  F   UNL A   1      43.451  24.871  25.627  1.00  0.00    -0.203 F 
ATOM    132  C   UNL A   1      42.873  22.592  25.487  1.00  0.00     0.198 A 
ATOM    133  C   UNL A   1      42.104  21.430  27.440  1.00  0.00     0.198 A 
ATOM    134  F   UNL A   1      41.888  22.579  29.482  1.00  0.00    -0.203 F 
ATOM    135  F   UNL A   1      43.155  22.601  24.176  1.00  0.00    -0.200 F 
ATOM    136  C   UNL A   1      42.426  21.427  26.091  1.00  0.00     0.200 A 
ATOM    137  F   UNL A   1      41.684  20.304  28.030  1.00  0.00    -0.200 F 
ATOM    138  F   UNL A   1      42.300  20.302  25.373  1.00  0.00    -0.200 F 
ENDBRANCH 100 128
BRANCH 115 139
ATOM    139  C   UNL A   1      48.131  26.558  30.989  1.00  0.00     0.064 A 
ATOM    140  C   UNL A   1      48.518  25.653  31.987  1.00  0.00     0.173 A 
ATOM    141  C   UNL A   1      49.117  27.010  30.098  1.00  0.00     0.173 A 
ATOM    142  F   UNL A   1      47.618  25.201  32.873  1.00  0.00    -0.203 F 
ATOM    143  C   UNL A   1      49.840  25.229  32.099  1.00  0.00     0.198 A 
ATOM    144  C   UNL A   1      50.433  26.562  30.193  1.00  0.00     0.198 A 
ATOM    145  F   UNL A   1      48.801  27.870  29.118  1.00  0.00    -0.203 F 
ATOM    146  F   UNL A   1      50.193  24.392  33.084  1.00  0.00    -0.200 F 
ATOM    147  C   UNL A   1      50.794  25.675  31.196  1.00  0.00     0.200 A 
ATOM    148  F   UNL A   1      51.349  26.982  29.309  1.00  0.00    -0.200 F 
ATOM    149  F   UNL A   1      52.062  25.253  31.294  1.00  0.00    -0.200 F 
ENDBRANCH 115 139
ENDBRANCH  80  83
ENDBRANCH  70  73
ENDBRANCH  66  69
ENDBRANCH  63  66
ENDBRANCH  60  63
ENDBRANCH  57  60
ENDBRANCH   1  57
TORSDOF 21
ENDMDL
MODEL 4
REMARK VINA RESULT:     -11.7      3.518      7.344
REMARK SMILES CC(C)(C)c1cc(Nc2ccccc2C(=O)NCCCCCCNC(=O)c2ccc(-c3c4nc(c(-c5c(F)c(F)c(F)c(F)c5F)c5ccc([nH]5)c(-c5c(F)c(F)c(F)c(F)c5F)c5nc(c(-c6c(F)c(F)c(F)c(F)c6F)c6ccc3[nH]6)C=C5)C=C4)cc2)cc2c1OCC2(C)C
REMARK SMILES IDX 19 1 18 4 17 7 15 8 16 9 14 11 9 12 10 13 11 14 13 16 12 17
REMARK SMILES IDX 8 21 7 23 5 24 6 25 92 26 91 28 93 29 90 30 95 31 94 32 2 36
REMARK SMILES IDX 1 37 3 41 4 45 96 49 97 53 20 57 21 60 22 63 23 66 24 69
REMARK SMILES IDX 25 70 26 72 27 73 28 74 89 75 29 76 88 78 30 80 31 83 32 84
REMARK SMILES IDX 82 85 33 86 87 87 81 88 83 89 34 90 86 91 80 93 79 95 35 97
REMARK SMILES IDX 67 100 47 101 66 102 48 103 51 104 65 105 84 106 49 107
REMARK SMILES IDX 50 109 64 111 85 112 52 115 36 117 37 118 45 119 38 120
REMARK SMILES IDX 39 121 43 122 46 123 40 124 41 125 44 126 42 127 68 128
REMARK SMILES IDX 69 129 77 130 70 131 71 132 75 133 78 134 72 135 73 136
REMARK SMILES IDX 76 137 74 138 53 139 54 140 62 141 55 142 56 143 60 144
REMARK SMILES IDX 63 145 57 146 58 147 61 148 59 149
REMARK H PARENT 19 2 19 3 18 5 18 6 17 10 10 15 11 18 13 19 12 20 8 22 6 27
REMARK H PARENT 90 33 94 34 94 35 1 38 1 39 1 40 3 42 3 43 3 44 4 46 4 47 4 48
REMARK H PARENT 96 50 96 51 96 52 97 54 97 55 97 56 20 58 20 59 21 61 21 62
REMARK H PARENT 22 64 22 65 23 67 23 68 24 71 28 77 89 79 29 81 88 82 87 92
REMARK H PARENT 81 94 83 96 86 98 80 99 48 108 51 110 84 113 49 114 85 116
REMARK Flexibility Score: inf
ROOT
ATOM      1  C   UNL A   1      34.193  25.446  23.934  1.00  0.00    -0.036 C 
ATOM      2  H   UNL A   1      35.261  25.502  23.873  1.00  0.00     0.028 H 
ATOM      3  H   UNL A   1      33.775  24.681  24.553  1.00  0.00     0.028 H 
ENDROOT
BRANCH   1   4
ATOM      4  C   UNL A   1      33.693  25.084  22.540  1.00  0.00     0.018 C 
ATOM      5  H   UNL A   1      33.007  25.848  22.237  1.00  0.00     0.049 H 
ATOM      6  H   UNL A   1      34.578  25.003  21.945  1.00  0.00     0.049 H 
BRANCH   4   7
ATOM      7  N   UNL A   1      33.028  23.821  22.381  1.00  0.00    -0.352 N 
ATOM      8  C   UNL A   1      31.915  23.310  23.012  1.00  0.00     0.253 C 
ATOM      9  O   UNL A   1      31.550  22.195  22.619  1.00  0.00    -0.269 OA
ATOM     10  H   UNL A   1      33.435  23.222  21.714  1.00  0.00     0.163 HD
BRANCH   8  11
ATOM     11  C   UNL A   1      31.142  23.932  24.149  1.00  0.00     0.063 A 
ATOM     12  C   UNL A   1      30.907  23.454  25.458  1.00  0.00     0.051 A 
ATOM     13  C   UNL A   1      30.266  24.312  26.391  1.00  0.00    -0.038 A 
ATOM     14  C   UNL A   1      29.784  25.570  26.045  1.00  0.00    -0.060 A 
ATOM     15  H   UNL A   1      30.153  23.989  27.365  1.00  0.00     0.064 H 
ATOM     16  C   UNL A   1      30.644  25.222  23.828  1.00  0.00    -0.047 A 
ATOM     17  C   UNL A   1      29.958  26.020  24.750  1.00  0.00    -0.061 A 
ATOM     18  H   UNL A   1      29.303  26.157  26.744  1.00  0.00     0.062 H 
ATOM     19  H   UNL A   1      30.795  25.587  22.874  1.00  0.00     0.063 H 
ATOM     20  H   UNL A   1      29.585  26.939  24.465  1.00  0.00     0.062 H 
BRANCH  12  21
ATOM     21  N   UNL A   1      31.159  22.142  25.916  1.00  0.00    -0.355 N 
ATOM     22  H   UNL A   1      30.440  21.692  26.416  1.00  0.00     0.167 HD
BRANCH  21  23
ATOM     23  C   UNL A   1      32.364  21.419  25.713  1.00  0.00     0.039 A 
ATOM     24  C   UNL A   1      34.827  21.433  25.410  1.00  0.00     0.002 A 
ATOM     25  C   UNL A   1      33.615  22.071  25.787  1.00  0.00    -0.031 A 
ATOM     26  C   UNL A   1      34.724  20.098  25.022  1.00  0.00     0.127 A 
ATOM     27  H   UNL A   1      33.649  23.045  26.127  1.00  0.00     0.065 H 
ATOM     28  C   UNL A   1      33.519  19.430  24.985  1.00  0.00     0.006 A 
ATOM     29  O   UNL A   1      35.768  19.334  24.576  1.00  0.00    -0.492 OA
ATOM     30  C   UNL A   1      32.343  20.076  25.315  1.00  0.00    -0.031 A 
ATOM     31  C   UNL A   1      33.703  18.026  24.526  1.00  0.00     0.028 C 
ATOM     32  C   UNL A   1      35.226  18.027  24.294  1.00  0.00     0.097 C 
ATOM     33  H   UNL A   1      31.446  19.568  25.267  1.00  0.00     0.065 H 
ATOM     34  H   UNL A   1      35.683  17.307  24.940  1.00  0.00     0.072 H 
ATOM     35  H   UNL A   1      35.425  17.777  23.274  1.00  0.00     0.072 H 
BRANCH  24  36
ATOM     36  C   UNL A   1      36.145  22.201  25.240  1.00  0.00    -0.009 C 
BRANCH  36  37
ATOM     37  C   UNL A   1      37.405  21.395  25.629  1.00  0.00    -0.056 C 
ATOM     38  H   UNL A   1      37.423  21.249  26.688  1.00  0.00     0.024 H 
ATOM     39  H   UNL A   1      38.280  21.936  25.329  1.00  0.00     0.024 H 
ATOM     40  H   UNL A   1      37.387  20.445  25.138  1.00  0.00     0.024 H 
ENDBRANCH  36  37
BRANCH  36  41
ATOM     41  C   UNL A   1      36.197  23.505  26.066  1.00  0.00    -0.056 C 
ATOM     42  H   UNL A   1      35.327  23.570  26.685  1.00  0.00     0.024 H 
ATOM     43  H   UNL A   1      36.229  24.345  25.405  1.00  0.00     0.024 H 
ATOM     44  H   UNL A   1      37.073  23.502  26.681  1.00  0.00     0.024 H 
ENDBRANCH  36  41
BRANCH  36  45
ATOM     45  C   UNL A   1      36.235  22.527  23.738  1.00  0.00    -0.056 C 
ATOM     46  H   UNL A   1      35.521  23.286  23.494  1.00  0.00     0.024 H 
ATOM     47  H   UNL A   1      36.027  21.646  23.169  1.00  0.00     0.024 H 
ATOM     48  H   UNL A   1      37.220  22.877  23.508  1.00  0.00     0.024 H 
ENDBRANCH  36  45
ENDBRANCH  24  36
BRANCH  31  49
ATOM     49  C   UNL A   1      33.301  17.049  25.633  1.00  0.00    -0.052 C 
ATOM     50  H   UNL A   1      33.414  16.044  25.280  1.00  0.00     0.024 H 
ATOM     51  H   UNL A   1      32.281  17.218  25.906  1.00  0.00     0.024 H 
ATOM     52  H   UNL A   1      33.930  17.199  26.486  1.00  0.00     0.024 H 
ENDBRANCH  31  49
BRANCH  31  53
ATOM     53  C   UNL A   1      32.943  17.727  23.232  1.00  0.00    -0.052 C 
ATOM     54  H   UNL A   1      33.500  17.025  22.645  1.00  0.00     0.024 H 
ATOM     55  H   UNL A   1      32.815  18.632  22.676  1.00  0.00     0.024 H 
ATOM     56  H   UNL A   1      31.984  17.314  23.467  1.00  0.00     0.024 H 
ENDBRANCH  31  53
ENDBRANCH  21  23
ENDBRANCH  12  21
ENDBRANCH   8  11
ENDBRANCH   4   7
ENDBRANCH   1   4
BRANCH   1  57
ATOM     57  C   UNL A   1      33.721  26.738  24.605  1.00  0.00    -0.052 C 
ATOM     58  H   UNL A   1      32.827  27.041  24.100  1.00  0.00     0.027 H 
ATOM     59  H   UNL A   1      34.571  27.384  24.525  1.00  0.00     0.027 H 
BRANCH  57  60
ATOM     60  C   UNL A   1      33.408  26.748  26.105  1.00  0.00    -0.052 C 
ATOM     61  H   UNL A   1      34.271  26.369  26.610  1.00  0.00     0.027 H 
ATOM     62  H   UNL A   1      32.516  26.163  26.189  1.00  0.00     0.027 H 
BRANCH  60  63
ATOM     63  C   UNL A   1      33.044  28.078  26.769  1.00  0.00    -0.036 C 
ATOM     64  H   UNL A   1      33.167  27.950  27.825  1.00  0.00     0.028 H 
ATOM     65  H   UNL A   1      32.046  28.278  26.437  1.00  0.00     0.028 H 
BRANCH  63  66
ATOM     66  C   UNL A   1      33.836  29.325  26.368  1.00  0.00     0.018 C 
ATOM     67  H   UNL A   1      33.472  29.649  25.415  1.00  0.00     0.049 H 
ATOM     68  H   UNL A   1      34.863  29.026  26.370  1.00  0.00     0.049 H 
BRANCH  66  69
ATOM     69  N   UNL A   1      33.756  30.452  27.277  1.00  0.00    -0.352 N 
ATOM     70  C   UNL A   1      34.700  30.940  28.166  1.00  0.00     0.251 C 
ATOM     71  H   UNL A   1      32.904  30.943  27.262  1.00  0.00     0.163 HD
ATOM     72  O   UNL A   1      34.465  31.951  28.811  1.00  0.00    -0.269 OA
BRANCH  70  73
ATOM     73  C   UNL A   1      35.979  30.215  28.403  1.00  0.00     0.039 A 
ATOM     74  C   UNL A   1      36.204  29.462  29.551  1.00  0.00    -0.049 A 
ATOM     75  C   UNL A   1      36.982  30.283  27.432  1.00  0.00    -0.049 A 
ATOM     76  C   UNL A   1      37.486  28.960  29.823  1.00  0.00    -0.053 A 
ATOM     77  H   UNL A   1      35.428  29.274  30.204  1.00  0.00     0.063 H 
ATOM     78  C   UNL A   1      38.242  29.710  27.672  1.00  0.00    -0.053 A 
ATOM     79  H   UNL A   1      36.796  30.757  26.534  1.00  0.00     0.063 H 
ATOM     80  C   UNL A   1      38.542  29.108  28.905  1.00  0.00    -0.014 A 
ATOM     81  H   UNL A   1      37.657  28.471  30.715  1.00  0.00     0.063 H 
ATOM     82  H   UNL A   1      38.959  29.732  26.930  1.00  0.00     0.063 H 
BRANCH  80  83
ATOM     83  C   UNL A   1      39.953  28.712  29.249  1.00  0.00     0.031 A 
ATOM     84  C   UNL A   1      40.788  29.571  30.180  1.00  0.00     0.074 A 
ATOM     85  C   UNL A   1      40.509  27.576  28.774  1.00  0.00     0.049 A 
ATOM     86  N   UNL A   1      42.062  29.478  30.489  1.00  0.00    -0.248 NA
ATOM     87  C   UNL A   1      40.102  30.689  30.848  1.00  0.00    -0.034 C 
ATOM     88  C   UNL A   1      39.843  26.603  27.913  1.00  0.00    -0.036 A 
ATOM     89  N   UNL A   1      41.766  27.043  28.963  1.00  0.00    -0.354 N 
ATOM     90  C   UNL A   1      42.332  30.542  31.344  1.00  0.00     0.074 A 
ATOM     91  C   UNL A   1      41.099  31.285  31.487  1.00  0.00    -0.034 C 
ATOM     92  H   UNL A   1      39.102  30.943  30.824  1.00  0.00     0.065 H 
ATOM     93  C   UNL A   1      40.672  25.570  27.691  1.00  0.00    -0.036 A 
ATOM     94  H   UNL A   1      38.888  26.693  27.534  1.00  0.00     0.065 H 
ATOM     95  C   UNL A   1      41.963  25.845  28.317  1.00  0.00     0.049 A 
ATOM     96  H   UNL A   1      42.459  27.480  29.509  1.00  0.00     0.167 HD
ATOM     97  C   UNL A   1      43.492  30.870  31.967  1.00  0.00     0.037 A 
ATOM     98  H   UNL A   1      41.006  32.164  32.019  1.00  0.00     0.065 H 
ATOM     99  H   UNL A   1      40.434  24.717  27.162  1.00  0.00     0.065 H 
ATOM    100  C   UNL A   1      43.058  25.064  28.205  1.00  0.00     0.037 A 
ATOM    101  C   UNL A   1      44.718  30.115  31.882  1.00  0.00     0.049 A 
ATOM    102  C   UNL A   1      44.355  25.485  28.843  1.00  0.00     0.074 A 
ATOM    103  C   UNL A   1      45.934  30.377  32.493  1.00  0.00    -0.036 A 
ATOM    104  N   UNL A   1      44.882  28.944  31.159  1.00  0.00    -0.354 N 
ATOM    105  N   UNL A   1      44.606  26.521  29.604  1.00  0.00    -0.248 NA
ATOM    106  C   UNL A   1      45.528  24.634  28.588  1.00  0.00    -0.034 C 
ATOM    107  C   UNL A   1      46.845  29.392  32.104  1.00  0.00    -0.036 A 
ATOM    108  H   UNL A   1      46.133  31.167  33.127  1.00  0.00     0.065 H 
ATOM    109  C   UNL A   1      46.183  28.484  31.295  1.00  0.00     0.049 A 
ATOM    110  H   UNL A   1      44.178  28.505  30.628  1.00  0.00     0.167 HD
ATOM    111  C   UNL A   1      45.954  26.437  29.931  1.00  0.00     0.074 A 
ATOM    112  C   UNL A   1      46.466  25.239  29.304  1.00  0.00    -0.034 C 
ATOM    113  H   UNL A   1      45.601  23.787  28.003  1.00  0.00     0.065 H 
ATOM    114  H   UNL A   1      47.841  29.347  32.374  1.00  0.00     0.065 H 
ATOM    115  C   UNL A   1      46.697  27.287  30.681  1.00  0.00     0.037 A 
ATOM    116  H   UNL A   1      47.437  24.899  29.401  1.00  0.00     0.065 H 
BRANCH  97 117
ATOM    117  C   UNL A   1      43.513  32.117  32.808  1.00  0.00     0.064 A 
ATOM    118  C   UNL A   1      43.266  32.081  34.188  1.00  0.00     0.173 A 
ATOM    119  C   UNL A   1      43.871  33.351  32.239  1.00  0.00     0.173 A 
ATOM    120  F   UNL A   1      42.914  30.931  34.781  1.00  0.00    -0.203 F 
ATOM    121  C   UNL A   1      43.357  33.236  34.963  1.00  0.00     0.198 A 
ATOM    122  C   UNL A   1      43.991  34.496  33.022  1.00  0.00     0.198 A 
ATOM    123  F   UNL A   1      44.132  33.440  30.926  1.00  0.00    -0.203 F 
ATOM    124  F   UNL A   1      43.079  33.184  36.273  1.00  0.00    -0.200 F 
ATOM    125  C   UNL A   1      43.728  34.439  34.382  1.00  0.00     0.200 A 
ATOM    126  F   UNL A   1      44.371  35.654  32.462  1.00  0.00    -0.200 F 
ATOM    127  F   UNL A   1      43.834  35.543  35.133  1.00  0.00    -0.200 F 
ENDBRANCH  97 117
BRANCH 100 128
ATOM    128  C   UNL A   1      42.980  23.793  27.436  1.00  0.00     0.064 A 
ATOM    129  C   UNL A   1      42.538  22.610  28.047  1.00  0.00     0.173 A 
ATOM    130  C   UNL A   1      43.336  23.732  26.081  1.00  0.00     0.173 A 
ATOM    131  F   UNL A   1      42.220  22.608  29.349  1.00  0.00    -0.203 F 
ATOM    132  C   UNL A   1      42.454  21.418  27.330  1.00  0.00     0.198 A 
ATOM    133  C   UNL A   1      43.220  22.548  25.356  1.00  0.00     0.198 A 
ATOM    134  F   UNL A   1      43.775  24.833  25.452  1.00  0.00    -0.203 F 
ATOM    135  F   UNL A   1      42.063  20.294  27.946  1.00  0.00    -0.200 F 
ATOM    136  C   UNL A   1      42.784  21.390  25.983  1.00  0.00     0.200 A 
ATOM    137  F   UNL A   1      43.526  22.529  24.053  1.00  0.00    -0.200 F 
ATOM    138  F   UNL A   1      42.685  20.248  25.289  1.00  0.00    -0.200 F 
ENDBRANCH 100 128
BRANCH 115 139
ATOM    139  C   UNL A   1      48.146  26.952  30.899  1.00  0.00     0.064 A 
ATOM    140  C   UNL A   1      48.551  26.068  31.909  1.00  0.00     0.173 A 
ATOM    141  C   UNL A   1      49.133  27.467  30.045  1.00  0.00     0.173 A 
ATOM    142  F   UNL A   1      47.649  25.558  32.761  1.00  0.00    -0.203 F 
ATOM    143  C   UNL A   1      49.891  25.724  32.067  1.00  0.00     0.198 A 
ATOM    144  C   UNL A   1      50.470  27.099  30.187  1.00  0.00     0.198 A 
ATOM    145  F   UNL A   1      48.801  28.311  29.057  1.00  0.00    -0.203 F 
ATOM    146  F   UNL A   1      50.259  24.905  33.062  1.00  0.00    -0.200 F 
ATOM    147  C   UNL A   1      50.848  26.231  31.200  1.00  0.00     0.200 A 
ATOM    148  F   UNL A   1      51.390  27.578  29.338  1.00  0.00    -0.200 F 
ATOM    149  F   UNL A   1      52.135  25.886  31.343  1.00  0.00    -0.200 F 
ENDBRANCH 115 139
ENDBRANCH  80  83
ENDBRANCH  70  73
ENDBRANCH  66  69
ENDBRANCH  63  66
ENDBRANCH  60  63
ENDBRANCH  57  60
ENDBRANCH   1  57
TORSDOF 21
ENDMDL
MODEL 5
REMARK VINA RESULT:     -11.7      1.847      7.634
REMARK SMILES CC(C)(C)c1cc(Nc2ccccc2C(=O)NCCCCCCNC(=O)c2ccc(-c3c4nc(c(-c5c(F)c(F)c(F)c(F)c5F)c5ccc([nH]5)c(-c5c(F)c(F)c(F)c(F)c5F)c5nc(c(-c6c(F)c(F)c(F)c(F)c6F)c6ccc3[nH]6)C=C5)C=C4)cc2)cc2c1OCC2(C)C
REMARK SMILES IDX 19 1 18 4 17 7 15 8 16 9 14 11 9 12 10 13 11 14 13 16 12 17
REMARK SMILES IDX 8 21 7 23 5 24 6 25 92 26 91 28 93 29 90 30 95 31 94 32 2 36
REMARK SMILES IDX 1 37 3 41 4 45 96 49 97 53 20 57 21 60 22 63 23 66 24 69
REMARK SMILES IDX 25 70 26 72 27 73 28 74 89 75 29 76 88 78 30 80 31 83 32 84
REMARK SMILES IDX 82 85 33 86 87 87 81 88 83 89 34 90 86 91 80 93 79 95 35 97
REMARK SMILES IDX 67 100 47 101 66 102 48 103 51 104 65 105 84 106 49 107
REMARK SMILES IDX 50 109 64 111 85 112 52 115 36 117 37 118 45 119 38 120
REMARK SMILES IDX 39 121 43 122 46 123 40 124 41 125 44 126 42 127 68 128
REMARK SMILES IDX 69 129 77 130 70 131 71 132 75 133 78 134 72 135 73 136
REMARK SMILES IDX 76 137 74 138 53 139 54 140 62 141 55 142 56 143 60 144
REMARK SMILES IDX 63 145 57 146 58 147 61 148 59 149
REMARK H PARENT 19 2 19 3 18 5 18 6 17 10 10 15 11 18 13 19 12 20 8 22 6 27
REMARK H PARENT 90 33 94 34 94 35 1 38 1 39 1 40 3 42 3 43 3 44 4 46 4 47 4 48
REMARK H PARENT 96 50 96 51 96 52 97 54 97 55 97 56 20 58 20 59 21 61 21 62
REMARK H PARENT 22 64 22 65 23 67 23 68 24 71 28 77 89 79 29 81 88 82 87 92
REMARK H PARENT 81 94 83 96 86 98 80 99 48 108 51 110 84 113 49 114 85 116
REMARK Flexibility Score: inf
ROOT
ATOM      1  C   UNL A   1      37.212  23.165  25.201  1.00  0.00    -0.036 C 
ATOM      2  H   UNL A   1      37.744  23.775  25.901  1.00  0.00     0.028 H 
ATOM      3  H   UNL A   1      37.705  22.923  24.283  1.00  0.00     0.028 H 
ENDROOT
BRANCH   1   4
ATOM      4  C   UNL A   1      36.000  23.972  24.747  1.00  0.00     0.018 C 
ATOM      5  H   UNL A   1      35.222  23.813  25.464  1.00  0.00     0.049 H 
ATOM      6  H   UNL A   1      36.355  24.978  24.674  1.00  0.00     0.049 H 
BRANCH   4   7
ATOM      7  N   UNL A   1      35.458  23.680  23.450  1.00  0.00    -0.352 N 
ATOM      8  C   UNL A   1      34.151  23.534  23.039  1.00  0.00     0.253 C 
ATOM      9  O   UNL A   1      33.997  23.329  21.828  1.00  0.00    -0.269 OA
ATOM     10  H   UNL A   1      36.129  23.564  22.739  1.00  0.00     0.163 HD
BRANCH   8  11
ATOM     11  C   UNL A   1      32.914  23.541  23.902  1.00  0.00     0.063 A 
ATOM     12  C   UNL A   1      31.719  24.282  23.774  1.00  0.00     0.051 A 
ATOM     13  C   UNL A   1      30.637  23.989  24.646  1.00  0.00    -0.038 A 
ATOM     14  C   UNL A   1      30.737  23.061  25.678  1.00  0.00    -0.060 A 
ATOM     15  H   UNL A   1      29.741  24.484  24.510  1.00  0.00     0.064 H 
ATOM     16  C   UNL A   1      32.983  22.596  24.960  1.00  0.00    -0.047 A 
ATOM     17  C   UNL A   1      31.923  22.373  25.847  1.00  0.00    -0.061 A 
ATOM     18  H   UNL A   1      29.936  22.889  26.307  1.00  0.00     0.062 H 
ATOM     19  H   UNL A   1      33.851  22.051  25.080  1.00  0.00     0.063 H 
ATOM     20  H   UNL A   1      32.027  21.700  26.622  1.00  0.00     0.062 H 
BRANCH  12  21
ATOM     21  N   UNL A   1      31.518  25.383  22.911  1.00  0.00    -0.355 N 
ATOM     22  H   UNL A   1      31.484  25.199  21.945  1.00  0.00     0.167 HD
BRANCH  21  23
ATOM     23  C   UNL A   1      31.363  26.732  23.324  1.00  0.00     0.039 A 
ATOM     24  C   UNL A   1      31.870  28.526  24.963  1.00  0.00     0.002 A 
ATOM     25  C   UNL A   1      32.124  27.248  24.397  1.00  0.00    -0.031 A 
ATOM     26  C   UNL A   1      30.865  29.278  24.357  1.00  0.00     0.127 A 
ATOM     27  H   UNL A   1      32.891  26.675  24.783  1.00  0.00     0.065 H 
ATOM     28  C   UNL A   1      30.140  28.812  23.281  1.00  0.00     0.006 A 
ATOM     29  O   UNL A   1      30.442  30.505  24.789  1.00  0.00    -0.492 OA
ATOM     30  C   UNL A   1      30.370  27.550  22.768  1.00  0.00    -0.031 A 
ATOM     31  C   UNL A   1      29.131  29.814  22.845  1.00  0.00     0.028 C 
ATOM     32  C   UNL A   1      29.404  30.923  23.878  1.00  0.00     0.097 C 
ATOM     33  H   UNL A   1      29.809  27.207  21.973  1.00  0.00     0.065 H 
ATOM     34  H   UNL A   1      29.715  31.812  23.370  1.00  0.00     0.072 H 
ATOM     35  H   UNL A   1      28.509  31.116  24.431  1.00  0.00     0.072 H 
BRANCH  24  36
ATOM     36  C   UNL A   1      32.510  28.987  26.280  1.00  0.00    -0.009 C 
BRANCH  36  37
ATOM     37  C   UNL A   1      31.777  28.498  27.549  1.00  0.00    -0.056 C 
ATOM     38  H   UNL A   1      31.878  27.436  27.632  1.00  0.00     0.024 H 
ATOM     39  H   UNL A   1      30.740  28.754  27.483  1.00  0.00     0.024 H 
ATOM     40  H   UNL A   1      32.206  28.965  28.411  1.00  0.00     0.024 H 
ENDBRANCH  36  37
BRANCH  36  41
ATOM     41  C   UNL A   1      32.603  30.523  26.402  1.00  0.00    -0.056 C 
ATOM     42  H   UNL A   1      31.937  30.861  27.169  1.00  0.00     0.024 H 
ATOM     43  H   UNL A   1      32.332  30.973  25.470  1.00  0.00     0.024 H 
ATOM     44  H   UNL A   1      33.606  30.801  26.654  1.00  0.00     0.024 H 
ENDBRANCH  36  41
BRANCH  36  45
ATOM     45  C   UNL A   1      33.923  28.375  26.282  1.00  0.00    -0.056 C 
ATOM     46  H   UNL A   1      34.198  28.108  25.282  1.00  0.00     0.024 H 
ATOM     47  H   UNL A   1      33.931  27.501  26.898  1.00  0.00     0.024 H 
ATOM     48  H   UNL A   1      34.621  29.089  26.665  1.00  0.00     0.024 H 
ENDBRANCH  36  45
ENDBRANCH  24  36
BRANCH  31  49
ATOM     49  C   UNL A   1      29.430  30.285  21.420  1.00  0.00    -0.052 C 
ATOM     50  H   UNL A   1      30.146  29.628  20.970  1.00  0.00     0.024 H 
ATOM     51  H   UNL A   1      29.826  31.278  21.448  1.00  0.00     0.024 H 
ATOM     52  H   UNL A   1      28.528  30.276  20.845  1.00  0.00     0.024 H 
ENDBRANCH  31  49
BRANCH  31  53
ATOM     53  C   UNL A   1      27.697  29.292  22.957  1.00  0.00    -0.052 C 
ATOM     54  H   UNL A   1      27.548  28.862  23.926  1.00  0.00     0.024 H 
ATOM     55  H   UNL A   1      27.530  28.546  22.208  1.00  0.00     0.024 H 
ATOM     56  H   UNL A   1      27.009  30.099  22.815  1.00  0.00     0.024 H 
ENDBRANCH  31  53
ENDBRANCH  21  23
ENDBRANCH  12  21
ENDBRANCH   8  11
ENDBRANCH   4   7
ENDBRANCH   1   4
BRANCH   1  57
ATOM     57  C   UNL A   1      37.017  21.799  25.865  1.00  0.00    -0.052 C 
ATOM     58  H   UNL A   1      36.135  21.871  26.468  1.00  0.00     0.027 H 
ATOM     59  H   UNL A   1      37.945  21.636  26.373  1.00  0.00     0.027 H 
BRANCH  57  60
ATOM     60  C   UNL A   1      36.862  20.545  24.999  1.00  0.00    -0.052 C 
ATOM     61  H   UNL A   1      36.667  20.874  24.000  1.00  0.00     0.027 H 
ATOM     62  H   UNL A   1      36.079  19.994  25.476  1.00  0.00     0.027 H 
BRANCH  60  63
ATOM     63  C   UNL A   1      38.026  19.554  24.928  1.00  0.00    -0.036 C 
ATOM     64  H   UNL A   1      38.329  19.491  23.904  1.00  0.00     0.028 H 
ATOM     65  H   UNL A   1      37.635  18.653  25.354  1.00  0.00     0.028 H 
BRANCH  63  66
ATOM     66  C   UNL A   1      39.279  19.852  25.756  1.00  0.00     0.018 C 
ATOM     67  H   UNL A   1      38.972  20.002  26.770  1.00  0.00     0.049 H 
ATOM     68  H   UNL A   1      39.726  20.710  25.300  1.00  0.00     0.049 H 
BRANCH  66  69
ATOM     69  N   UNL A   1      40.306  18.828  25.751  1.00  0.00    -0.352 N 
ATOM     70  C   UNL A   1      41.646  18.918  26.091  1.00  0.00     0.251 C 
ATOM     71  H   UNL A   1      40.007  17.937  25.461  1.00  0.00     0.163 HD
ATOM     72  O   UNL A   1      42.345  17.916  26.081  1.00  0.00    -0.269 OA
BRANCH  70  73
ATOM     73  C   UNL A   1      42.271  20.231  26.409  1.00  0.00     0.039 A 
ATOM     74  C   UNL A   1      42.279  20.758  27.696  1.00  0.00    -0.049 A 
ATOM     75  C   UNL A   1      42.884  20.952  25.380  1.00  0.00    -0.049 A 
ATOM     76  C   UNL A   1      42.702  22.079  27.913  1.00  0.00    -0.053 A 
ATOM     77  H   UNL A   1      41.971  20.178  28.492  1.00  0.00     0.063 H 
ATOM     78  C   UNL A   1      43.380  22.245  25.617  1.00  0.00    -0.053 A 
ATOM     79  H   UNL A   1      42.971  20.532  24.441  1.00  0.00     0.063 H 
ATOM     80  C   UNL A   1      43.225  22.863  26.869  1.00  0.00    -0.014 A 
ATOM     81  H   UNL A   1      42.628  22.483  28.859  1.00  0.00     0.063 H 
ATOM     82  H   UNL A   1      43.866  22.749  24.859  1.00  0.00     0.063 H 
BRANCH  80  83
ATOM     83  C   UNL A   1      43.537  24.323  27.054  1.00  0.00     0.031 A 
ATOM     84  C   UNL A   1      44.917  24.863  26.724  1.00  0.00     0.074 A 
ATOM     85  C   UNL A   1      42.604  25.202  27.481  1.00  0.00     0.049 A 
ATOM     86  N   UNL A   1      45.424  26.055  26.943  1.00  0.00    -0.248 NA
ATOM     87  C   UNL A   1      45.854  23.938  26.068  1.00  0.00    -0.034 C 
ATOM     88  C   UNL A   1      41.215  24.878  27.794  1.00  0.00    -0.036 A 
ATOM     89  N   UNL A   1      42.686  26.558  27.715  1.00  0.00    -0.354 N 
ATOM     90  C   UNL A   1      46.741  26.004  26.495  1.00  0.00     0.074 A 
ATOM     91  C   UNL A   1      46.965  24.658  26.014  1.00  0.00    -0.034 C 
ATOM     92  H   UNL A   1      45.688  22.974  25.736  1.00  0.00     0.065 H 
ATOM     93  C   UNL A   1      40.563  26.004  28.125  1.00  0.00    -0.036 A 
ATOM     94  H   UNL A   1      40.799  23.934  27.765  1.00  0.00     0.065 H 
ATOM     95  C   UNL A   1      41.505  27.120  28.139  1.00  0.00     0.049 A 
ATOM     96  H   UNL A   1      43.514  27.077  27.591  1.00  0.00     0.167 HD
ATOM     97  C   UNL A   1      47.678  26.986  26.469  1.00  0.00     0.037 A 
ATOM     98  H   UNL A   1      47.872  24.305  25.672  1.00  0.00     0.065 H 
ATOM     99  H   UNL A   1      39.555  26.069  28.337  1.00  0.00     0.065 H 
ATOM    100  C   UNL A   1      41.207  28.377  28.528  1.00  0.00     0.037 A 
ATOM    101  C   UNL A   1      47.461  28.347  26.892  1.00  0.00     0.049 A 
ATOM    102  C   UNL A   1      42.281  29.433  28.562  1.00  0.00     0.074 A 
ATOM    103  C   UNL A   1      48.358  29.403  26.886  1.00  0.00    -0.036 A 
ATOM    104  N   UNL A   1      46.263  28.847  27.376  1.00  0.00    -0.354 N 
ATOM    105  N   UNL A   1      43.533  29.354  28.184  1.00  0.00    -0.248 NA
ATOM    106  C   UNL A   1      41.901  30.750  29.097  1.00  0.00    -0.034 C 
ATOM    107  C   UNL A   1      47.718  30.529  27.410  1.00  0.00    -0.036 A 
ATOM    108  H   UNL A   1      49.334  29.364  26.553  1.00  0.00     0.065 H 
ATOM    109  C   UNL A   1      46.405  30.191  27.690  1.00  0.00     0.049 A 
ATOM    110  H   UNL A   1      45.434  28.326  27.482  1.00  0.00     0.167 HD
ATOM    111  C   UNL A   1      44.082  30.608  28.419  1.00  0.00     0.074 A 
ATOM    112  C   UNL A   1      43.025  31.438  28.953  1.00  0.00    -0.034 C 
ATOM    113  H   UNL A   1      40.995  31.058  29.485  1.00  0.00     0.065 H 
ATOM    114  H   UNL A   1      48.149  31.456  27.560  1.00  0.00     0.065 H 
ATOM    115  C   UNL A   1      45.355  31.026  28.213  1.00  0.00     0.037 A 
ATOM    116  H   UNL A   1      43.132  32.438  29.191  1.00  0.00     0.065 H 
BRANCH  97 117
ATOM    117  C   UNL A   1      49.052  26.635  25.968  1.00  0.00     0.064 A 
ATOM    118  C   UNL A   1      49.463  26.945  24.663  1.00  0.00     0.173 A 
ATOM    119  C   UNL A   1      49.998  26.059  26.833  1.00  0.00     0.173 A 
ATOM    120  F   UNL A   1      48.599  27.489  23.795  1.00  0.00    -0.203 F 
ATOM    121  C   UNL A   1      50.762  26.674  24.238  1.00  0.00     0.198 A 
ATOM    122  C   UNL A   1      51.304  25.819  26.414  1.00  0.00     0.198 A 
ATOM    123  F   UNL A   1      49.662  25.755  28.096  1.00  0.00    -0.203 F 
ATOM    124  F   UNL A   1      51.122  26.945  22.975  1.00  0.00    -0.200 F 
ATOM    125  C   UNL A   1      51.684  26.121  25.116  1.00  0.00     0.200 A 
ATOM    126  F   UNL A   1      52.198  25.304  27.270  1.00  0.00    -0.200 F 
ATOM    127  F   UNL A   1      52.937  25.880  24.710  1.00  0.00    -0.200 F 
ENDBRANCH  97 117
BRANCH 100 128
ATOM    128  C   UNL A   1      39.816  28.712  28.937  1.00  0.00     0.064 A 
ATOM    129  C   UNL A   1      38.894  29.212  28.006  1.00  0.00     0.173 A 
ATOM    130  C   UNL A   1      39.377  28.533  30.257  1.00  0.00     0.173 A 
ATOM    131  F   UNL A   1      39.276  29.435  26.740  1.00  0.00    -0.203 F 
ATOM    132  C   UNL A   1      37.588  29.519  28.381  1.00  0.00     0.198 A 
ATOM    133  C   UNL A   1      38.061  28.807  30.623  1.00  0.00     0.198 A 
ATOM    134  F   UNL A   1      40.221  28.066  31.189  1.00  0.00    -0.203 F 
ATOM    135  F   UNL A   1      36.737  30.030  27.480  1.00  0.00    -0.200 F 
ATOM    136  C   UNL A   1      37.168  29.305  29.685  1.00  0.00     0.200 A 
ATOM    137  F   UNL A   1      37.656  28.586  31.880  1.00  0.00    -0.200 F 
ATOM    138  F   UNL A   1      35.906  29.583  30.041  1.00  0.00    -0.200 F 
ENDBRANCH 100 128
BRANCH 115 139
ATOM    139  C   UNL A   1      45.688  32.455  28.536  1.00  0.00     0.064 A 
ATOM    140  C   UNL A   1      46.239  32.820  29.773  1.00  0.00     0.173 A 
ATOM    141  C   UNL A   1      45.519  33.461  27.572  1.00  0.00     0.173 A 
ATOM    142  F   UNL A   1      46.408  31.900  30.734  1.00  0.00    -0.203 F 
ATOM    143  C   UNL A   1      46.593  34.141  30.039  1.00  0.00     0.198 A 
ATOM    144  C   UNL A   1      45.901  34.776  27.830  1.00  0.00     0.198 A 
ATOM    145  F   UNL A   1      45.005  33.166  26.369  1.00  0.00    -0.203 F 
ATOM    146  F   UNL A   1      47.084  34.473  31.241  1.00  0.00    -0.200 F 
ATOM    147  C   UNL A   1      46.434  35.115  29.065  1.00  0.00     0.200 A 
ATOM    148  F   UNL A   1      45.761  35.713  26.882  1.00  0.00    -0.200 F 
ATOM    149  F   UNL A   1      46.790  36.382  29.317  1.00  0.00    -0.200 F 
ENDBRANCH 115 139
ENDBRANCH  80  83
ENDBRANCH  70  73
ENDBRANCH  66  69
ENDBRANCH  63  66
ENDBRANCH  60  63
ENDBRANCH  57  60
ENDBRANCH   1  57
TORSDOF 21
ENDMDL
MODEL 6
REMARK VINA RESULT:     -11.6      5.170      9.701
REMARK SMILES CC(C)(C)c1cc(Nc2ccccc2C(=O)NCCCCCCNC(=O)c2ccc(-c3c4nc(c(-c5c(F)c(F)c(F)c(F)c5F)c5ccc([nH]5)c(-c5c(F)c(F)c(F)c(F)c5F)c5nc(c(-c6c(F)c(F)c(F)c(F)c6F)c6ccc3[nH]6)C=C5)C=C4)cc2)cc2c1OCC2(C)C
REMARK SMILES IDX 19 1 18 4 17 7 15 8 16 9 14 11 9 12 10 13 11 14 13 16 12 17
REMARK SMILES IDX 8 21 7 23 5 24 6 25 92 26 91 28 93 29 90 30 95 31 94 32 2 36
REMARK SMILES IDX 1 37 3 41 4 45 96 49 97 53 20 57 21 60 22 63 23 66 24 69
REMARK SMILES IDX 25 70 26 72 27 73 28 74 89 75 29 76 88 78 30 80 31 83 32 84
REMARK SMILES IDX 82 85 33 86 87 87 81 88 83 89 34 90 86 91 80 93 79 95 35 97
REMARK SMILES IDX 67 100 47 101 66 102 48 103 51 104 65 105 84 106 49 107
REMARK SMILES IDX 50 109 64 111 85 112 52 115 36 117 37 118 45 119 38 120
REMARK SMILES IDX 39 121 43 122 46 123 40 124 41 125 44 126 42 127 68 128
REMARK SMILES IDX 69 129 77 130 70 131 71 132 75 133 78 134 72 135 73 136
REMARK SMILES IDX 76 137 74 138 53 139 54 140 62 141 55 142 56 143 60 144
REMARK SMILES IDX 63 145 57 146 58 147 61 148 59 149
REMARK H PARENT 19 2 19 3 18 5 18 6 17 10 10 15 11 18 13 19 12 20 8 22 6 27
REMARK H PARENT 90 33 94 34 94 35 1 38 1 39 1 40 3 42 3 43 3 44 4 46 4 47 4 48
REMARK H PARENT 96 50 96 51 96 52 97 54 97 55 97 56 20 58 20 59 21 61 21 62
REMARK H PARENT 22 64 22 65 23 67 23 68 24 71 28 77 89 79 29 81 88 82 87 92
REMARK H PARENT 81 94 83 96 86 98 80 99 48 108 51 110 84 113 49 114 85 116
REMARK Flexibility Score: inf
ROOT
ATOM      1  C   UNL A   1      35.043  31.235  28.162  1.00  0.00    -0.036 C 
ATOM      2  H   UNL A   1      35.933  30.739  27.835  1.00  0.00     0.028 H 
ATOM      3  H   UNL A   1      34.654  30.965  29.122  1.00  0.00     0.028 H 
ENDROOT
BRANCH   1   4
ATOM      4  C   UNL A   1      33.932  30.821  27.203  1.00  0.00     0.018 C 
ATOM      5  H   UNL A   1      33.417  31.710  26.906  1.00  0.00     0.049 H 
ATOM      6  H   UNL A   1      34.433  30.298  26.415  1.00  0.00     0.049 H 
BRANCH   4   7
ATOM      7  N   UNL A   1      32.948  29.894  27.689  1.00  0.00    -0.352 N 
ATOM      8  C   UNL A   1      32.146  29.004  27.011  1.00  0.00     0.253 C 
ATOM      9  O   UNL A   1      31.421  28.296  27.723  1.00  0.00    -0.269 OA
ATOM     10  H   UNL A   1      32.827  29.897  28.667  1.00  0.00     0.163 HD
BRANCH   8  11
ATOM     11  C   UNL A   1      32.017  28.844  25.516  1.00  0.00     0.063 A 
ATOM     12  C   UNL A   1      32.683  27.963  24.635  1.00  0.00     0.051 A 
ATOM     13  C   UNL A   1      32.265  27.910  23.278  1.00  0.00    -0.038 A 
ATOM     14  C   UNL A   1      31.285  28.752  22.763  1.00  0.00    -0.060 A 
ATOM     15  H   UNL A   1      32.707  27.221  22.650  1.00  0.00     0.064 H 
ATOM     16  C   UNL A   1      31.016  29.684  24.962  1.00  0.00    -0.047 A 
ATOM     17  C   UNL A   1      30.669  29.657  23.607  1.00  0.00    -0.061 A 
ATOM     18  H   UNL A   1      31.022  28.701  21.766  1.00  0.00     0.062 H 
ATOM     19  H   UNL A   1      30.524  30.344  25.585  1.00  0.00     0.063 H 
ATOM     20  H   UNL A   1      29.958  30.309  23.239  1.00  0.00     0.062 H 
BRANCH  12  21
ATOM     21  N   UNL A   1      33.819  27.183  24.949  1.00  0.00    -0.355 N 
ATOM     22  H   UNL A   1      34.668  27.660  25.093  1.00  0.00     0.167 HD
BRANCH  21  23
ATOM     23  C   UNL A   1      33.835  25.769  25.072  1.00  0.00     0.039 A 
ATOM     24  C   UNL A   1      35.136  23.656  25.147  1.00  0.00     0.002 A 
ATOM     25  C   UNL A   1      35.057  25.074  25.208  1.00  0.00    -0.031 A 
ATOM     26  C   UNL A   1      33.925  22.980  25.010  1.00  0.00     0.127 A 
ATOM     27  H   UNL A   1      35.924  25.614  25.357  1.00  0.00     0.065 H 
ATOM     28  C   UNL A   1      32.717  23.637  24.920  1.00  0.00     0.006 A 
ATOM     29  O   UNL A   1      33.801  21.623  24.881  1.00  0.00    -0.492 OA
ATOM     30  C   UNL A   1      32.661  25.017  24.939  1.00  0.00    -0.031 A 
ATOM     31  C   UNL A   1      31.595  22.671  24.770  1.00  0.00     0.028 C 
ATOM     32  C   UNL A   1      32.388  21.350  24.775  1.00  0.00     0.097 C 
ATOM     33  H   UNL A   1      31.751  25.497  24.854  1.00  0.00     0.065 H 
ATOM     34  H   UNL A   1      32.079  20.754  25.608  1.00  0.00     0.072 H 
ATOM     35  H   UNL A   1      32.200  20.825  23.863  1.00  0.00     0.072 H 
BRANCH  24  36
ATOM     36  C   UNL A   1      36.471  22.908  25.035  1.00  0.00    -0.009 C 
BRANCH  36  37
ATOM     37  C   UNL A   1      36.473  21.508  25.691  1.00  0.00    -0.056 C 
ATOM     38  H   UNL A   1      37.164  21.498  26.506  1.00  0.00     0.024 H 
ATOM     39  H   UNL A   1      36.765  20.776  24.966  1.00  0.00     0.024 H 
ATOM     40  H   UNL A   1      35.492  21.282  26.051  1.00  0.00     0.024 H 
ENDBRANCH  36  37
BRANCH  36  41
ATOM     41  C   UNL A   1      37.652  23.679  25.664  1.00  0.00    -0.056 C 
ATOM     42  H   UNL A   1      38.575  23.240  25.346  1.00  0.00     0.024 H 
ATOM     43  H   UNL A   1      37.582  23.629  26.731  1.00  0.00     0.024 H 
ATOM     44  H   UNL A   1      37.616  24.702  25.352  1.00  0.00     0.024 H 
ENDBRANCH  36  41
BRANCH  36  45
ATOM     45  C   UNL A   1      36.709  22.725  23.525  1.00  0.00    -0.056 C 
ATOM     46  H   UNL A   1      35.792  22.881  22.998  1.00  0.00     0.024 H 
ATOM     47  H   UNL A   1      37.063  21.733  23.338  1.00  0.00     0.024 H 
ATOM     48  H   UNL A   1      37.438  23.433  23.191  1.00  0.00     0.024 H 
ENDBRANCH  36  45
ENDBRANCH  24  36
BRANCH  31  49
ATOM     49  C   UNL A   1      30.649  22.765  25.970  1.00  0.00    -0.052 C 
ATOM     50  H   UNL A   1      30.964  22.077  26.727  1.00  0.00     0.024 H 
ATOM     51  H   UNL A   1      29.654  22.524  25.660  1.00  0.00     0.024 H 
ATOM     52  H   UNL A   1      30.670  23.760  26.362  1.00  0.00     0.024 H 
ENDBRANCH  31  49
BRANCH  31  53
ATOM     53  C   UNL A   1      30.831  22.855  23.457  1.00  0.00    -0.052 C 
ATOM     54  H   UNL A   1      31.018  22.020  22.814  1.00  0.00     0.024 H 
ATOM     55  H   UNL A   1      31.159  23.754  22.977  1.00  0.00     0.024 H 
ATOM     56  H   UNL A   1      29.782  22.922  23.659  1.00  0.00     0.024 H 
ENDBRANCH  31  53
ENDBRANCH  21  23
ENDBRANCH  12  21
ENDBRANCH   8  11
ENDBRANCH   4   7
ENDBRANCH   1   4
BRANCH   1  57
ATOM     57  C   UNL A   1      35.398  32.714  28.330  1.00  0.00    -0.052 C 
ATOM     58  H   UNL A   1      35.224  33.184  27.384  1.00  0.00     0.027 H 
ATOM     59  H   UNL A   1      36.407  32.688  28.685  1.00  0.00     0.027 H 
BRANCH  57  60
ATOM     60  C   UNL A   1      34.673  33.558  29.384  1.00  0.00    -0.052 C 
ATOM     61  H   UNL A   1      35.402  34.203  29.827  1.00  0.00     0.027 H 
ATOM     62  H   UNL A   1      34.224  32.836  30.032  1.00  0.00     0.027 H 
BRANCH  60  63
ATOM     63  C   UNL A   1      33.502  34.438  28.939  1.00  0.00    -0.036 C 
ATOM     64  H   UNL A   1      32.600  33.923  29.198  1.00  0.00     0.028 H 
ATOM     65  H   UNL A   1      33.667  34.593  27.893  1.00  0.00     0.028 H 
BRANCH  63  66
ATOM     66  C   UNL A   1      33.400  35.851  29.521  1.00  0.00     0.018 C 
ATOM     67  H   UNL A   1      33.204  36.523  28.711  1.00  0.00     0.049 H 
ATOM     68  H   UNL A   1      34.330  36.023  30.021  1.00  0.00     0.049 H 
BRANCH  66  69
ATOM     69  N   UNL A   1      32.373  36.056  30.525  1.00  0.00    -0.352 N 
ATOM     70  C   UNL A   1      32.422  35.852  31.894  1.00  0.00     0.251 C 
ATOM     71  H   UNL A   1      31.514  36.389  30.182  1.00  0.00     0.163 HD
ATOM     72  O   UNL A   1      31.460  36.145  32.588  1.00  0.00    -0.269 OA
BRANCH  70  73
ATOM     73  C   UNL A   1      33.606  35.216  32.534  1.00  0.00     0.039 A 
ATOM     74  C   UNL A   1      34.804  35.899  32.723  1.00  0.00    -0.049 A 
ATOM     75  C   UNL A   1      33.508  33.892  32.971  1.00  0.00    -0.049 A 
ATOM     76  C   UNL A   1      35.949  35.207  33.148  1.00  0.00    -0.053 A 
ATOM     77  H   UNL A   1      34.851  36.915  32.550  1.00  0.00     0.063 H 
ATOM     78  C   UNL A   1      34.637  33.223  33.471  1.00  0.00    -0.053 A 
ATOM     79  H   UNL A   1      32.600  33.404  32.925  1.00  0.00     0.063 H 
ATOM     80  C   UNL A   1      35.897  33.844  33.493  1.00  0.00    -0.014 A 
ATOM     81  H   UNL A   1      36.848  35.709  33.209  1.00  0.00     0.063 H 
ATOM     82  H   UNL A   1      34.540  32.259  33.828  1.00  0.00     0.063 H 
BRANCH  80  83
ATOM     83  C   UNL A   1      37.142  33.056  33.800  1.00  0.00     0.031 A 
ATOM     84  C   UNL A   1      37.869  33.249  35.118  1.00  0.00     0.074 A 
ATOM     85  C   UNL A   1      37.632  32.136  32.941  1.00  0.00     0.049 A 
ATOM     86  N   UNL A   1      39.027  32.770  35.514  1.00  0.00    -0.248 NA
ATOM     87  C   UNL A   1      37.211  34.098  36.123  1.00  0.00    -0.034 C 
ATOM     88  C   UNL A   1      37.039  31.777  31.655  1.00  0.00    -0.036 A 
ATOM     89  N   UNL A   1      38.741  31.323  33.030  1.00  0.00    -0.354 N 
ATOM     90  C   UNL A   1      39.250  33.294  36.783  1.00  0.00     0.074 A 
ATOM     91  C   UNL A   1      38.121  34.148  37.085  1.00  0.00    -0.034 C 
ATOM     92  H   UNL A   1      36.279  34.542  36.087  1.00  0.00     0.065 H 
ATOM     93  C   UNL A   1      37.754  30.785  31.101  1.00  0.00    -0.036 A 
ATOM     94  H   UNL A   1      36.203  32.216  31.238  1.00  0.00     0.065 H 
ATOM     95  C   UNL A   1      38.911  30.495  31.945  1.00  0.00     0.049 A 
ATOM     96  H   UNL A   1      39.357  31.334  33.798  1.00  0.00     0.167 HD
ATOM     97  C   UNL A   1      40.288  33.080  37.631  1.00  0.00     0.037 A 
ATOM     98  H   UNL A   1      38.035  34.720  37.939  1.00  0.00     0.065 H 
ATOM     99  H   UNL A   1      37.523  30.304  30.218  1.00  0.00     0.065 H 
ATOM    100  C   UNL A   1      39.894  29.624  31.635  1.00  0.00     0.037 A 
ATOM    101  C   UNL A   1      41.395  32.192  37.374  1.00  0.00     0.049 A 
ATOM    102  C   UNL A   1      41.073  29.456  32.556  1.00  0.00     0.074 A 
ATOM    103  C   UNL A   1      42.481  31.913  38.189  1.00  0.00    -0.036 A 
ATOM    104  N   UNL A   1      41.552  31.428  36.229  1.00  0.00    -0.354 N 
ATOM    105  N   UNL A   1      41.293  29.999  33.728  1.00  0.00    -0.248 NA
ATOM    106  C   UNL A   1      42.153  28.567  32.099  1.00  0.00    -0.034 C 
ATOM    107  C   UNL A   1      43.317  31.016  37.518  1.00  0.00    -0.036 A 
ATOM    108  H   UNL A   1      42.644  32.302  39.130  1.00  0.00     0.065 H 
ATOM    109  C   UNL A   1      42.725  30.693  36.309  1.00  0.00     0.049 A 
ATOM    110  H   UNL A   1      40.923  31.410  35.471  1.00  0.00     0.167 HD
ATOM    111  C   UNL A   1      42.521  29.506  34.153  1.00  0.00     0.074 A 
ATOM    112  C   UNL A   1      42.991  28.604  33.125  1.00  0.00    -0.034 C 
ATOM    113  H   UNL A   1      42.235  28.049  31.209  1.00  0.00     0.065 H 
ATOM    114  H   UNL A   1      44.220  30.655  37.866  1.00  0.00     0.065 H 
ATOM    115  C   UNL A   1      43.195  29.787  35.294  1.00  0.00     0.037 A 
ATOM    116  H   UNL A   1      43.868  28.060  33.182  1.00  0.00     0.065 H 
BRANCH  97 117
ATOM    117  C   UNL A   1      40.295  33.823  38.939  1.00  0.00     0.064 A 
ATOM    118  C   UNL A   1      40.967  35.046  39.089  1.00  0.00     0.173 A 
ATOM    119  C   UNL A   1      39.549  33.348  40.030  1.00  0.00     0.173 A 
ATOM    120  F   UNL A   1      41.700  35.541  38.082  1.00  0.00    -0.203 F 
ATOM    121  C   UNL A   1      40.906  35.754  40.287  1.00  0.00     0.198 A 
ATOM    122  C   UNL A   1      39.465  34.074  41.215  1.00  0.00     0.198 A 
ATOM    123  F   UNL A   1      38.875  32.192  39.936  1.00  0.00    -0.203 F 
ATOM    124  F   UNL A   1      41.587  36.901  40.420  1.00  0.00    -0.200 F 
ATOM    125  C   UNL A   1      40.148  35.274  41.345  1.00  0.00     0.200 A 
ATOM    126  F   UNL A   1      38.715  33.619  42.228  1.00  0.00    -0.200 F 
ATOM    127  F   UNL A   1      40.076  35.967  42.489  1.00  0.00    -0.200 F 
ENDBRANCH  97 117
BRANCH 100 128
ATOM    128  C   UNL A   1      39.813  28.841  30.373  1.00  0.00     0.064 A 
ATOM    129  C   UNL A   1      40.274  29.380  29.163  1.00  0.00     0.173 A 
ATOM    130  C   UNL A   1      39.285  27.542  30.348  1.00  0.00     0.173 A 
ATOM    131  F   UNL A   1      40.754  30.631  29.128  1.00  0.00    -0.203 F 
ATOM    132  C   UNL A   1      40.209  28.648  27.979  1.00  0.00     0.198 A 
ATOM    133  C   UNL A   1      39.253  26.798  29.170  1.00  0.00     0.198 A 
ATOM    134  F   UNL A   1      38.822  26.983  31.476  1.00  0.00    -0.203 F 
ATOM    135  F   UNL A   1      40.623  29.200  26.829  1.00  0.00    -0.200 F 
ATOM    136  C   UNL A   1      39.711  27.354  27.985  1.00  0.00     0.200 A 
ATOM    137  F   UNL A   1      38.783  25.544  29.184  1.00  0.00    -0.200 F 
ATOM    138  F   UNL A   1      39.666  26.644  26.849  1.00  0.00    -0.200 F 
ENDBRANCH 100 128
BRANCH 115 139
ATOM    139  C   UNL A   1      44.510  29.096  35.523  1.00  0.00     0.064 A 
ATOM    140  C   UNL A   1      45.723  29.670  35.117  1.00  0.00     0.173 A 
ATOM    141  C   UNL A   1      44.563  27.877  36.219  1.00  0.00     0.173 A 
ATOM    142  F   UNL A   1      45.727  30.826  34.436  1.00  0.00    -0.203 F 
ATOM    143  C   UNL A   1      46.939  29.043  35.383  1.00  0.00     0.198 A 
ATOM    144  C   UNL A   1      45.782  27.268  36.509  1.00  0.00     0.198 A 
ATOM    145  F   UNL A   1      43.434  27.288  36.638  1.00  0.00    -0.203 F 
ATOM    146  F   UNL A   1      48.083  29.593  34.953  1.00  0.00    -0.200 F 
ATOM    147  C   UNL A   1      46.968  27.849  36.087  1.00  0.00     0.200 A 
ATOM    148  F   UNL A   1      45.809  26.122  37.204  1.00  0.00    -0.200 F 
ATOM    149  F   UNL A   1      48.139  27.257  36.357  1.00  0.00    -0.200 F 
ENDBRANCH 115 139
ENDBRANCH  80  83
ENDBRANCH  70  73
ENDBRANCH  66  69
ENDBRANCH  63  66
ENDBRANCH  60  63
ENDBRANCH  57  60
ENDBRANCH   1  57
TORSDOF 21
ENDMDL
MODEL 7
REMARK VINA RESULT:     -11.6      1.868      7.400
REMARK SMILES CC(C)(C)c1cc(Nc2ccccc2C(=O)NCCCCCCNC(=O)c2ccc(-c3c4nc(c(-c5c(F)c(F)c(F)c(F)c5F)c5ccc([nH]5)c(-c5c(F)c(F)c(F)c(F)c5F)c5nc(c(-c6c(F)c(F)c(F)c(F)c6F)c6ccc3[nH]6)C=C5)C=C4)cc2)cc2c1OCC2(C)C
REMARK SMILES IDX 19 1 18 4 17 7 15 8 16 9 14 11 9 12 10 13 11 14 13 16 12 17
REMARK SMILES IDX 8 21 7 23 5 24 6 25 92 26 91 28 93 29 90 30 95 31 94 32 2 36
REMARK SMILES IDX 1 37 3 41 4 45 96 49 97 53 20 57 21 60 22 63 23 66 24 69
REMARK SMILES IDX 25 70 26 72 27 73 28 74 89 75 29 76 88 78 30 80 31 83 32 84
REMARK SMILES IDX 82 85 33 86 87 87 81 88 83 89 34 90 86 91 80 93 79 95 35 97
REMARK SMILES IDX 67 100 47 101 66 102 48 103 51 104 65 105 84 106 49 107
REMARK SMILES IDX 50 109 64 111 85 112 52 115 36 117 37 118 45 119 38 120
REMARK SMILES IDX 39 121 43 122 46 123 40 124 41 125 44 126 42 127 68 128
REMARK SMILES IDX 69 129 77 130 70 131 71 132 75 133 78 134 72 135 73 136
REMARK SMILES IDX 76 137 74 138 53 139 54 140 62 141 55 142 56 143 60 144
REMARK SMILES IDX 63 145 57 146 58 147 61 148 59 149
REMARK H PARENT 19 2 19 3 18 5 18 6 17 10 10 15 11 18 13 19 12 20 8 22 6 27
REMARK H PARENT 90 33 94 34 94 35 1 38 1 39 1 40 3 42 3 43 3 44 4 46 4 47 4 48
REMARK H PARENT 96 50 96 51 96 52 97 54 97 55 97 56 20 58 20 59 21 61 21 62
REMARK H PARENT 22 64 22 65 23 67 23 68 24 71 28 77 89 79 29 81 88 82 87 92
REMARK H PARENT 81 94 83 96 86 98 80 99 48 108 51 110 84 113 49 114 85 116
REMARK Flexibility Score: inf
ROOT
ATOM      1  C   UNL A   1      37.014  23.311  25.470  1.00  0.00    -0.036 C 
ATOM      2  H   UNL A   1      36.714  22.913  26.417  1.00  0.00     0.028 H 
ATOM      3  H   UNL A   1      37.846  23.984  25.459  1.00  0.00     0.028 H 
ENDROOT
BRANCH   1   4
ATOM      4  C   UNL A   1      35.859  24.172  24.970  1.00  0.00     0.018 C 
ATOM      5  H   UNL A   1      35.058  24.073  25.672  1.00  0.00     0.049 H 
ATOM      6  H   UNL A   1      36.271  25.156  24.882  1.00  0.00     0.049 H 
BRANCH   4   7
ATOM      7  N   UNL A   1      35.329  23.880  23.668  1.00  0.00    -0.352 N 
ATOM      8  C   UNL A   1      34.048  23.565  23.274  1.00  0.00     0.253 C 
ATOM      9  O   UNL A   1      33.892  23.412  22.055  1.00  0.00    -0.269 OA
ATOM     10  H   UNL A   1      35.990  23.909  22.938  1.00  0.00     0.163 HD
BRANCH   8  11
ATOM     11  C   UNL A   1      32.849  23.335  24.160  1.00  0.00     0.063 A 
ATOM     12  C   UNL A   1      31.566  23.927  24.128  1.00  0.00     0.051 A 
ATOM     13  C   UNL A   1      30.559  23.419  24.990  1.00  0.00    -0.038 A 
ATOM     14  C   UNL A   1      30.807  22.420  25.926  1.00  0.00    -0.060 A 
ATOM     15  H   UNL A   1      29.605  23.807  24.922  1.00  0.00     0.064 H 
ATOM     16  C   UNL A   1      33.069  22.313  25.121  1.00  0.00    -0.047 A 
ATOM     17  C   UNL A   1      32.075  21.877  26.004  1.00  0.00    -0.061 A 
ATOM     18  H   UNL A   1      30.056  22.091  26.553  1.00  0.00     0.062 H 
ATOM     19  H   UNL A   1      34.002  21.874  25.170  1.00  0.00     0.063 H 
ATOM     20  H   UNL A   1      32.288  21.153  26.709  1.00  0.00     0.062 H 
BRANCH  12  21
ATOM     21  N   UNL A   1      31.203  25.069  23.379  1.00  0.00    -0.355 N 
ATOM     22  H   UNL A   1      31.045  24.945  22.415  1.00  0.00     0.167 HD
BRANCH  21  23
ATOM     23  C   UNL A   1      31.045  26.379  23.903  1.00  0.00     0.039 A 
ATOM     24  C   UNL A   1      30.057  28.646  23.698  1.00  0.00     0.002 A 
ATOM     25  C   UNL A   1      30.115  27.275  23.331  1.00  0.00    -0.031 A 
ATOM     26  C   UNL A   1      30.929  29.049  24.709  1.00  0.00     0.127 A 
ATOM     27  H   UNL A   1      29.455  26.921  22.620  1.00  0.00     0.065 H 
ATOM     28  C   UNL A   1      31.813  28.181  25.311  1.00  0.00     0.006 A 
ATOM     29  O   UNL A   1      31.056  30.334  25.161  1.00  0.00    -0.492 OA
ATOM     30  C   UNL A   1      31.888  26.860  24.914  1.00  0.00    -0.031 A 
ATOM     31  C   UNL A   1      32.625  28.880  26.344  1.00  0.00     0.028 C 
ATOM     32  C   UNL A   1      32.052  30.303  26.204  1.00  0.00     0.097 C 
ATOM     33  H   UNL A   1      32.566  26.225  25.362  1.00  0.00     0.065 H 
ATOM     34  H   UNL A   1      31.604  30.597  27.131  1.00  0.00     0.072 H 
ATOM     35  H   UNL A   1      32.844  30.977  25.954  1.00  0.00     0.072 H 
BRANCH  24  36
ATOM     36  C   UNL A   1      29.238  29.677  22.910  1.00  0.00    -0.009 C 
BRANCH  36  37
ATOM     37  C   UNL A   1      29.010  31.013  23.654  1.00  0.00    -0.056 C 
ATOM     38  H   UNL A   1      28.868  31.798  22.942  1.00  0.00     0.024 H 
ATOM     39  H   UNL A   1      29.865  31.232  24.261  1.00  0.00     0.024 H 
ATOM     40  H   UNL A   1      28.143  30.932  24.275  1.00  0.00     0.024 H 
ENDBRANCH  36  37
BRANCH  36  41
ATOM     41  C   UNL A   1      27.837  29.163  22.513  1.00  0.00    -0.056 C 
ATOM     42  H   UNL A   1      27.635  28.245  23.026  1.00  0.00     0.024 H 
ATOM     43  H   UNL A   1      27.804  28.997  21.457  1.00  0.00     0.024 H 
ATOM     44  H   UNL A   1      27.100  29.891  22.783  1.00  0.00     0.024 H 
ENDBRANCH  36  41
BRANCH  36  45
ATOM     45  C   UNL A   1      30.065  29.974  21.646  1.00  0.00    -0.056 C 
ATOM     46  H   UNL A   1      30.781  30.739  21.860  1.00  0.00     0.024 H 
ATOM     47  H   UNL A   1      29.414  30.303  20.864  1.00  0.00     0.024 H 
ATOM     48  H   UNL A   1      30.574  29.085  21.336  1.00  0.00     0.024 H 
ENDBRANCH  36  45
ENDBRANCH  24  36
BRANCH  31  49
ATOM     49  C   UNL A   1      32.344  28.292  27.729  1.00  0.00    -0.052 C 
ATOM     50  H   UNL A   1      31.323  27.976  27.782  1.00  0.00     0.024 H 
ATOM     51  H   UNL A   1      32.527  29.035  28.476  1.00  0.00     0.024 H 
ATOM     52  H   UNL A   1      32.986  27.452  27.896  1.00  0.00     0.024 H 
ENDBRANCH  31  49
BRANCH  31  53
ATOM     53  C   UNL A   1      34.124  28.852  26.033  1.00  0.00    -0.052 C 
ATOM     54  H   UNL A   1      34.290  29.224  25.043  1.00  0.00     0.024 H 
ATOM     55  H   UNL A   1      34.483  27.846  26.100  1.00  0.00     0.024 H 
ATOM     56  H   UNL A   1      34.647  29.464  26.737  1.00  0.00     0.024 H 
ENDBRANCH  31  53
ENDBRANCH  21  23
ENDBRANCH  12  21
ENDBRANCH   8  11
ENDBRANCH   4   7
ENDBRANCH   1   4
BRANCH   1  57
ATOM     57  C   UNL A   1      37.507  22.129  24.631  1.00  0.00    -0.052 C 
ATOM     58  H   UNL A   1      38.576  22.123  24.703  1.00  0.00     0.027 H 
ATOM     59  H   UNL A   1      37.084  22.317  23.666  1.00  0.00     0.027 H 
BRANCH  57  60
ATOM     60  C   UNL A   1      37.032  20.710  24.958  1.00  0.00    -0.052 C 
ATOM     61  H   UNL A   1      36.333  20.429  24.198  1.00  0.00     0.027 H 
ATOM     62  H   UNL A   1      36.643  20.787  25.951  1.00  0.00     0.027 H 
BRANCH  60  63
ATOM     63  C   UNL A   1      38.072  19.591  25.050  1.00  0.00    -0.036 C 
ATOM     64  H   UNL A   1      38.371  19.351  24.051  1.00  0.00     0.028 H 
ATOM     65  H   UNL A   1      37.576  18.810  25.588  1.00  0.00     0.028 H 
BRANCH  63  66
ATOM     66  C   UNL A   1      39.347  19.856  25.856  1.00  0.00     0.018 C 
ATOM     67  H   UNL A   1      39.070  19.938  26.886  1.00  0.00     0.049 H 
ATOM     68  H   UNL A   1      39.768  20.748  25.441  1.00  0.00     0.049 H 
BRANCH  66  69
ATOM     69  N   UNL A   1      40.387  18.850  25.754  1.00  0.00    -0.352 N 
ATOM     70  C   UNL A   1      41.737  18.940  26.053  1.00  0.00     0.251 C 
ATOM     71  H   UNL A   1      40.090  17.973  25.423  1.00  0.00     0.163 HD
ATOM     72  O   UNL A   1      42.448  17.951  25.959  1.00  0.00    -0.269 OA
BRANCH  70  73
ATOM     73  C   UNL A   1      42.356  20.241  26.426  1.00  0.00     0.039 A 
ATOM     74  C   UNL A   1      42.343  20.723  27.731  1.00  0.00    -0.049 A 
ATOM     75  C   UNL A   1      42.982  21.000  25.433  1.00  0.00    -0.049 A 
ATOM     76  C   UNL A   1      42.761  22.035  28.001  1.00  0.00    -0.053 A 
ATOM     77  H   UNL A   1      42.025  20.115  28.502  1.00  0.00     0.063 H 
ATOM     78  C   UNL A   1      43.473  22.283  25.723  1.00  0.00    -0.053 A 
ATOM     79  H   UNL A   1      43.084  20.613  24.481  1.00  0.00     0.063 H 
ATOM     80  C   UNL A   1      43.299  22.856  26.994  1.00  0.00    -0.014 A 
ATOM     81  H   UNL A   1      42.673  22.405  28.960  1.00  0.00     0.063 H 
ATOM     82  H   UNL A   1      43.969  22.815  24.990  1.00  0.00     0.063 H 
BRANCH  80  83
ATOM     83  C   UNL A   1      43.606  24.310  27.235  1.00  0.00     0.031 A 
ATOM     84  C   UNL A   1      45.008  24.846  27.015  1.00  0.00     0.074 A 
ATOM     85  C   UNL A   1      42.651  25.185  27.617  1.00  0.00     0.049 A 
ATOM     86  N   UNL A   1      45.507  26.029  27.296  1.00  0.00    -0.248 NA
ATOM     87  C   UNL A   1      45.983  23.929  26.403  1.00  0.00    -0.034 C 
ATOM     88  C   UNL A   1      41.241  24.864  27.826  1.00  0.00    -0.036 A 
ATOM     89  N   UNL A   1      42.725  26.535  27.889  1.00  0.00    -0.354 N 
ATOM     90  C   UNL A   1      46.850  25.979  26.939  1.00  0.00     0.074 A 
ATOM     91  C   UNL A   1      47.099  24.643  26.443  1.00  0.00    -0.034 C 
ATOM     92  H   UNL A   1      45.835  22.975  26.037  1.00  0.00     0.065 H 
ATOM     93  C   UNL A   1      40.574  25.987  28.138  1.00  0.00    -0.036 A 
ATOM     94  H   UNL A   1      40.823  23.924  27.746  1.00  0.00     0.065 H 
ATOM     95  C   UNL A   1      41.520  27.095  28.244  1.00  0.00     0.049 A 
ATOM     96  H   UNL A   1      43.562  27.050  27.835  1.00  0.00     0.167 HD
ATOM     97  C   UNL A   1      47.793  26.953  27.002  1.00  0.00     0.037 A 
ATOM     98  H   UNL A   1      48.025  24.291  26.156  1.00  0.00     0.065 H 
ATOM     99  H   UNL A   1      39.555  26.055  28.281  1.00  0.00     0.065 H 
ATOM    100  C   UNL A   1      41.203  28.345  28.642  1.00  0.00     0.037 A 
ATOM    101  C   UNL A   1      47.555  28.306  27.441  1.00  0.00     0.049 A 
ATOM    102  C   UNL A   1      42.279  29.391  28.775  1.00  0.00     0.074 A 
ATOM    103  C   UNL A   1      48.457  29.355  27.524  1.00  0.00    -0.036 A 
ATOM    104  N   UNL A   1      46.330  28.803  27.854  1.00  0.00    -0.354 N 
ATOM    105  N   UNL A   1      43.553  29.312  28.483  1.00  0.00    -0.248 NA
ATOM    106  C   UNL A   1      41.871  30.699  29.315  1.00  0.00    -0.034 C 
ATOM    107  C   UNL A   1      47.789  30.473  28.029  1.00  0.00    -0.036 A 
ATOM    108  H   UNL A   1      49.454  29.316  27.258  1.00  0.00     0.065 H 
ATOM    109  C   UNL A   1      46.458  30.138  28.209  1.00  0.00     0.049 A 
ATOM    110  H   UNL A   1      45.492  28.286  27.890  1.00  0.00     0.167 HD
ATOM    111  C   UNL A   1      44.092  30.556  28.785  1.00  0.00     0.074 A 
ATOM    112  C   UNL A   1      43.006  31.381  29.265  1.00  0.00    -0.034 C 
ATOM    113  H   UNL A   1      40.942  31.004  29.646  1.00  0.00     0.065 H 
ATOM    114  H   UNL A   1      48.214  31.392  28.231  1.00  0.00     0.065 H 
ATOM    115  C   UNL A   1      45.379  30.968  28.679  1.00  0.00     0.037 A 
ATOM    116  H   UNL A   1      43.102  32.374  29.534  1.00  0.00     0.065 H 
BRANCH  97 117
ATOM    117  C   UNL A   1      49.197  26.604  26.589  1.00  0.00     0.064 A 
ATOM    118  C   UNL A   1      49.642  26.775  25.270  1.00  0.00     0.173 A 
ATOM    119  C   UNL A   1      50.132  26.174  27.546  1.00  0.00     0.173 A 
ATOM    120  F   UNL A   1      48.789  27.176  24.316  1.00  0.00    -0.203 F 
ATOM    121  C   UNL A   1      50.965  26.511  24.921  1.00  0.00     0.198 A 
ATOM    122  C   UNL A   1      51.460  25.942  27.199  1.00  0.00     0.198 A 
ATOM    123  F   UNL A   1      49.764  26.008  28.825  1.00  0.00    -0.203 F 
ATOM    124  F   UNL A   1      51.358  26.646  23.646  1.00  0.00    -0.200 F 
ATOM    125  C   UNL A   1      51.875  26.105  25.886  1.00  0.00     0.200 A 
ATOM    126  F   UNL A   1      52.342  25.569  28.137  1.00  0.00    -0.200 F 
ATOM    127  F   UNL A   1      53.150  25.870  25.550  1.00  0.00    -0.200 F 
ENDBRANCH  97 117
BRANCH 100 128
ATOM    128  C   UNL A   1      39.790  28.681  28.962  1.00  0.00     0.064 A 
ATOM    129  C   UNL A   1      39.274  28.466  30.248  1.00  0.00     0.173 A 
ATOM    130  C   UNL A   1      38.929  29.227  27.999  1.00  0.00     0.173 A 
ATOM    131  F   UNL A   1      40.046  27.913  31.194  1.00  0.00    -0.203 F 
ATOM    132  C   UNL A   1      37.954  28.786  30.557  1.00  0.00     0.198 A 
ATOM    133  C   UNL A   1      37.619  29.579  28.317  1.00  0.00     0.198 A 
ATOM    134  F   UNL A   1      39.369  29.443  26.750  1.00  0.00    -0.203 F 
ATOM    135  F   UNL A   1      37.476  28.537  31.784  1.00  0.00    -0.200 F 
ATOM    136  C   UNL A   1      37.131  29.353  29.596  1.00  0.00     0.200 A 
ATOM    137  F   UNL A   1      36.833  30.138  27.389  1.00  0.00    -0.200 F 
ATOM    138  F   UNL A   1      35.866  29.678  29.898  1.00  0.00    -0.200 F 
ENDBRANCH 100 128
BRANCH 115 139
ATOM    139  C   UNL A   1      45.698  32.387  29.058  1.00  0.00     0.064 A 
ATOM    140  C   UNL A   1      45.580  33.438  28.138  1.00  0.00     0.173 A 
ATOM    141  C   UNL A   1      46.059  32.708  30.376  1.00  0.00     0.173 A 
ATOM    142  F   UNL A   1      45.251  33.184  26.862  1.00  0.00    -0.203 F 
ATOM    143  C   UNL A   1      45.827  34.756  28.517  1.00  0.00     0.198 A 
ATOM    144  C   UNL A   1      46.277  34.030  30.760  1.00  0.00     0.198 A 
ATOM    145  F   UNL A   1      46.179  31.743  31.300  1.00  0.00    -0.203 F 
ATOM    146  F   UNL A   1      45.744  35.740  27.611  1.00  0.00    -0.200 F 
ATOM    147  C   UNL A   1      46.165  35.052  29.829  1.00  0.00     0.200 A 
ATOM    148  F   UNL A   1      46.588  34.315  32.032  1.00  0.00    -0.200 F 
ATOM    149  F   UNL A   1      46.387  36.321  30.196  1.00  0.00    -0.200 F 
ENDBRANCH 115 139
ENDBRANCH  80  83
ENDBRANCH  70  73
ENDBRANCH  66  69
ENDBRANCH  63  66
ENDBRANCH  60  63
ENDBRANCH  57  60
ENDBRANCH   1  57
TORSDOF 21
ENDMDL
MODEL 8
REMARK VINA RESULT:     -11.5      5.171      9.572
REMARK SMILES CC(C)(C)c1cc(Nc2ccccc2C(=O)NCCCCCCNC(=O)c2ccc(-c3c4nc(c(-c5c(F)c(F)c(F)c(F)c5F)c5ccc([nH]5)c(-c5c(F)c(F)c(F)c(F)c5F)c5nc(c(-c6c(F)c(F)c(F)c(F)c6F)c6ccc3[nH]6)C=C5)C=C4)cc2)cc2c1OCC2(C)C
REMARK SMILES IDX 19 1 18 4 17 7 15 8 16 9 14 11 9 12 10 13 11 14 13 16 12 17
REMARK SMILES IDX 8 21 7 23 5 24 6 25 92 26 91 28 93 29 90 30 95 31 94 32 2 36
REMARK SMILES IDX 1 37 3 41 4 45 96 49 97 53 20 57 21 60 22 63 23 66 24 69
REMARK SMILES IDX 25 70 26 72 27 73 28 74 89 75 29 76 88 78 30 80 31 83 32 84
REMARK SMILES IDX 82 85 33 86 87 87 81 88 83 89 34 90 86 91 80 93 79 95 35 97
REMARK SMILES IDX 67 100 47 101 66 102 48 103 51 104 65 105 84 106 49 107
REMARK SMILES IDX 50 109 64 111 85 112 52 115 36 117 37 118 45 119 38 120
REMARK SMILES IDX 39 121 43 122 46 123 40 124 41 125 44 126 42 127 68 128
REMARK SMILES IDX 69 129 77 130 70 131 71 132 75 133 78 134 72 135 73 136
REMARK SMILES IDX 76 137 74 138 53 139 54 140 62 141 55 142 56 143 60 144
REMARK SMILES IDX 63 145 57 146 58 147 61 148 59 149
REMARK H PARENT 19 2 19 3 18 5 18 6 17 10 10 15 11 18 13 19 12 20 8 22 6 27
REMARK H PARENT 90 33 94 34 94 35 1 38 1 39 1 40 3 42 3 43 3 44 4 46 4 47 4 48
REMARK H PARENT 96 50 96 51 96 52 97 54 97 55 97 56 20 58 20 59 21 61 21 62
REMARK H PARENT 22 64 22 65 23 67 23 68 24 71 28 77 89 79 29 81 88 82 87 92
REMARK H PARENT 81 94 83 96 86 98 80 99 48 108 51 110 84 113 49 114 85 116
REMARK Flexibility Score: inf
ROOT
ATOM      1  C   UNL A   1      34.882  31.076  28.267  1.00  0.00    -0.036 C 
ATOM      2  H   UNL A   1      35.803  30.534  28.200  1.00  0.00     0.028 H 
ATOM      3  H   UNL A   1      34.318  30.977  29.171  1.00  0.00     0.028 H 
ENDROOT
BRANCH   1   4
ATOM      4  C   UNL A   1      33.952  30.495  27.208  1.00  0.00     0.018 C 
ATOM      5  H   UNL A   1      33.409  31.309  26.776  1.00  0.00     0.049 H 
ATOM      6  H   UNL A   1      34.599  29.970  26.536  1.00  0.00     0.049 H 
BRANCH   4   7
ATOM      7  N   UNL A   1      32.993  29.514  27.633  1.00  0.00    -0.352 N 
ATOM      8  C   UNL A   1      32.156  28.705  26.898  1.00  0.00     0.253 C 
ATOM      9  O   UNL A   1      31.468  27.916  27.559  1.00  0.00    -0.269 OA
ATOM     10  H   UNL A   1      32.923  29.402  28.609  1.00  0.00     0.163 HD
BRANCH   8  11
ATOM     11  C   UNL A   1      31.950  28.718  25.404  1.00  0.00     0.063 A 
ATOM     12  C   UNL A   1      32.608  27.991  24.387  1.00  0.00     0.051 A 
ATOM     13  C   UNL A   1      32.115  28.077  23.058  1.00  0.00    -0.038 A 
ATOM     14  C   UNL A   1      31.065  28.917  22.701  1.00  0.00    -0.060 A 
ATOM     15  H   UNL A   1      32.554  27.496  22.327  1.00  0.00     0.064 H 
ATOM     16  C   UNL A   1      30.876  29.560  25.009  1.00  0.00    -0.047 A 
ATOM     17  C   UNL A   1      30.454  29.676  23.680  1.00  0.00    -0.061 A 
ATOM     18  H   UNL A   1      30.748  28.971  21.720  1.00  0.00     0.062 H 
ATOM     19  H   UNL A   1      30.387  30.110  25.733  1.00  0.00     0.063 H 
ATOM     20  H   UNL A   1      29.690  30.325  23.433  1.00  0.00     0.062 H 
BRANCH  12  21
ATOM     21  N   UNL A   1      33.798  27.246  24.544  1.00  0.00    -0.355 N 
ATOM     22  H   UNL A   1      34.648  27.742  24.518  1.00  0.00     0.167 HD
BRANCH  21  23
ATOM     23  C   UNL A   1      33.869  25.841  24.737  1.00  0.00     0.039 A 
ATOM     24  C   UNL A   1      32.833  23.759  25.604  1.00  0.00     0.002 A 
ATOM     25  C   UNL A   1      32.752  25.125  25.220  1.00  0.00    -0.031 A 
ATOM     26  C   UNL A   1      34.068  23.141  25.415  1.00  0.00     0.127 A 
ATOM     27  H   UNL A   1      31.844  25.611  25.297  1.00  0.00     0.065 H 
ATOM     28  C   UNL A   1      35.159  23.809  24.904  1.00  0.00     0.006 A 
ATOM     29  O   UNL A   1      34.355  21.851  25.771  1.00  0.00    -0.492 OA
ATOM     30  C   UNL A   1      35.076  25.149  24.575  1.00  0.00    -0.031 A 
ATOM     31  C   UNL A   1      36.343  22.911  24.821  1.00  0.00     0.028 C 
ATOM     32  C   UNL A   1      35.728  21.620  25.393  1.00  0.00     0.097 C 
ATOM     33  H   UNL A   1      35.906  25.641  24.209  1.00  0.00     0.065 H 
ATOM     34  H   UNL A   1      35.767  20.850  24.651  1.00  0.00     0.072 H 
ATOM     35  H   UNL A   1      36.284  21.320  26.257  1.00  0.00     0.072 H 
BRANCH  24  36
ATOM     36  C   UNL A   1      31.706  23.048  26.364  1.00  0.00    -0.009 C 
BRANCH  36  37
ATOM     37  C   UNL A   1      31.174  21.774  25.668  1.00  0.00    -0.056 C 
ATOM     38  H   UNL A   1      30.170  21.586  25.987  1.00  0.00     0.024 H 
ATOM     39  H   UNL A   1      31.793  20.940  25.929  1.00  0.00     0.024 H 
ATOM     40  H   UNL A   1      31.191  21.914  24.608  1.00  0.00     0.024 H 
ENDBRANCH  36  37
BRANCH  36  41
ATOM     41  C   UNL A   1      30.476  23.949  26.608  1.00  0.00    -0.056 C 
ATOM     42  H   UNL A   1      30.777  24.976  26.587  1.00  0.00     0.024 H 
ATOM     43  H   UNL A   1      30.050  23.721  27.562  1.00  0.00     0.024 H 
ATOM     44  H   UNL A   1      29.749  23.775  25.842  1.00  0.00     0.024 H 
ENDBRANCH  36  41
BRANCH  36  45
ATOM     45  C   UNL A   1      32.324  22.629  27.710  1.00  0.00    -0.056 C 
ATOM     46  H   UNL A   1      32.956  21.778  27.563  1.00  0.00     0.024 H 
ATOM     47  H   UNL A   1      31.544  22.379  28.398  1.00  0.00     0.024 H 
ATOM     48  H   UNL A   1      32.902  23.438  28.104  1.00  0.00     0.024 H 
ENDBRANCH  36  45
ENDBRANCH  24  36
BRANCH  31  49
ATOM     49  C   UNL A   1      36.774  22.733  23.364  1.00  0.00    -0.052 C 
ATOM     50  H   UNL A   1      36.897  23.694  22.908  1.00  0.00     0.024 H 
ATOM     51  H   UNL A   1      36.027  22.180  22.835  1.00  0.00     0.024 H 
ATOM     52  H   UNL A   1      37.703  22.202  23.330  1.00  0.00     0.024 H 
ENDBRANCH  31  49
BRANCH  31  53
ATOM     53  C   UNL A   1      37.512  23.399  25.681  1.00  0.00    -0.052 C 
ATOM     54  H   UNL A   1      38.397  23.457  25.080  1.00  0.00     0.024 H 
ATOM     55  H   UNL A   1      37.673  22.713  26.486  1.00  0.00     0.024 H 
ATOM     56  H   UNL A   1      37.285  24.367  26.077  1.00  0.00     0.024 H 
ENDBRANCH  31  53
ENDBRANCH  21  23
ENDBRANCH  12  21
ENDBRANCH   8  11
ENDBRANCH   4   7
ENDBRANCH   1   4
BRANCH   1  57
ATOM     57  C   UNL A   1      35.241  32.563  28.239  1.00  0.00    -0.052 C 
ATOM     58  H   UNL A   1      34.947  32.934  27.279  1.00  0.00     0.027 H 
ATOM     59  H   UNL A   1      36.287  32.570  28.466  1.00  0.00     0.027 H 
BRANCH  57  60
ATOM     60  C   UNL A   1      34.645  33.512  29.283  1.00  0.00    -0.052 C 
ATOM     61  H   UNL A   1      35.436  34.152  29.615  1.00  0.00     0.027 H 
ATOM     62  H   UNL A   1      34.224  32.860  30.018  1.00  0.00     0.027 H 
BRANCH  60  63
ATOM     63  C   UNL A   1      33.479  34.414  28.873  1.00  0.00    -0.036 C 
ATOM     64  H   UNL A   1      32.575  33.909  29.146  1.00  0.00     0.028 H 
ATOM     65  H   UNL A   1      33.622  34.577  27.825  1.00  0.00     0.028 H 
BRANCH  63  66
ATOM     66  C   UNL A   1      33.410  35.822  29.471  1.00  0.00     0.018 C 
ATOM     67  H   UNL A   1      33.230  36.508  28.669  1.00  0.00     0.049 H 
ATOM     68  H   UNL A   1      34.344  35.967  29.972  1.00  0.00     0.049 H 
BRANCH  66  69
ATOM     69  N   UNL A   1      32.389  36.040  30.477  1.00  0.00    -0.352 N 
ATOM     70  C   UNL A   1      32.444  35.848  31.848  1.00  0.00     0.251 C 
ATOM     71  H   UNL A   1      31.529  36.374  30.136  1.00  0.00     0.163 HD
ATOM     72  O   UNL A   1      31.486  36.151  32.544  1.00  0.00    -0.269 OA
BRANCH  70  73
ATOM     73  C   UNL A   1      33.628  35.213  32.488  1.00  0.00     0.039 A 
ATOM     74  C   UNL A   1      34.832  35.890  32.658  1.00  0.00    -0.049 A 
ATOM     75  C   UNL A   1      33.524  33.896  32.944  1.00  0.00    -0.049 A 
ATOM     76  C   UNL A   1      35.976  35.196  33.084  1.00  0.00    -0.053 A 
ATOM     77  H   UNL A   1      34.885  36.903  32.471  1.00  0.00     0.063 H 
ATOM     78  C   UNL A   1      34.653  33.226  33.446  1.00  0.00    -0.053 A 
ATOM     79  H   UNL A   1      32.612  33.413  32.912  1.00  0.00     0.063 H 
ATOM     80  C   UNL A   1      35.917  33.839  33.449  1.00  0.00    -0.014 A 
ATOM     81  H   UNL A   1      36.878  35.693  33.131  1.00  0.00     0.063 H 
ATOM     82  H   UNL A   1      34.552  32.269  33.816  1.00  0.00     0.063 H 
BRANCH  80  83
ATOM     83  C   UNL A   1      37.158  33.046  33.758  1.00  0.00     0.031 A 
ATOM     84  C   UNL A   1      37.885  33.236  35.077  1.00  0.00     0.074 A 
ATOM     85  C   UNL A   1      37.646  32.125  32.899  1.00  0.00     0.049 A 
ATOM     86  N   UNL A   1      39.040  32.754  35.474  1.00  0.00    -0.248 NA
ATOM     87  C   UNL A   1      37.228  34.088  36.081  1.00  0.00    -0.034 C 
ATOM     88  C   UNL A   1      37.055  31.768  31.612  1.00  0.00    -0.036 A 
ATOM     89  N   UNL A   1      38.753  31.308  32.990  1.00  0.00    -0.354 N 
ATOM     90  C   UNL A   1      39.263  33.277  36.744  1.00  0.00     0.074 A 
ATOM     91  C   UNL A   1      38.137  34.134  37.045  1.00  0.00    -0.034 C 
ATOM     92  H   UNL A   1      36.297  34.534  36.044  1.00  0.00     0.065 H 
ATOM     93  C   UNL A   1      37.767  30.774  31.059  1.00  0.00    -0.036 A 
ATOM     94  H   UNL A   1      36.221  32.210  31.194  1.00  0.00     0.065 H 
ATOM     95  C   UNL A   1      38.922  30.480  31.905  1.00  0.00     0.049 A 
ATOM     96  H   UNL A   1      39.367  31.317  33.759  1.00  0.00     0.167 HD
ATOM     97  C   UNL A   1      40.299  33.058  37.594  1.00  0.00     0.037 A 
ATOM     98  H   UNL A   1      38.051  34.706  37.899  1.00  0.00     0.065 H 
ATOM     99  H   UNL A   1      37.536  30.294  30.175  1.00  0.00     0.065 H 
ATOM    100  C   UNL A   1      39.902  29.605  31.596  1.00  0.00     0.037 A 
ATOM    101  C   UNL A   1      41.403  32.167  37.338  1.00  0.00     0.049 A 
ATOM    102  C   UNL A   1      41.079  29.434  32.519  1.00  0.00     0.074 A 
ATOM    103  C   UNL A   1      42.487  31.884  38.154  1.00  0.00    -0.036 A 
ATOM    104  N   UNL A   1      41.559  31.403  36.193  1.00  0.00    -0.354 N 
ATOM    105  N   UNL A   1      41.300  29.975  33.691  1.00  0.00    -0.248 NA
ATOM    106  C   UNL A   1      42.157  28.541  32.063  1.00  0.00    -0.034 C 
ATOM    107  C   UNL A   1      43.321  30.984  37.485  1.00  0.00    -0.036 A 
ATOM    108  H   UNL A   1      42.650  32.273  39.096  1.00  0.00     0.065 H 
ATOM    109  C   UNL A   1      42.730  30.663  36.275  1.00  0.00     0.049 A 
ATOM    110  H   UNL A   1      40.932  31.387  35.434  1.00  0.00     0.167 HD
ATOM    111  C   UNL A   1      42.525  29.478  34.118  1.00  0.00     0.074 A 
ATOM    112  C   UNL A   1      42.994  28.575  33.090  1.00  0.00    -0.034 C 
ATOM    113  H   UNL A   1      42.239  28.023  31.173  1.00  0.00     0.065 H 
ATOM    114  H   UNL A   1      44.222  30.620  37.834  1.00  0.00     0.065 H 
ATOM    115  C   UNL A   1      43.199  29.756  35.260  1.00  0.00     0.037 A 
ATOM    116  H   UNL A   1      43.868  28.028  33.149  1.00  0.00     0.065 H 
BRANCH  97 117
ATOM    117  C   UNL A   1      40.307  33.802  38.901  1.00  0.00     0.064 A 
ATOM    118  C   UNL A   1      39.634  33.314  40.031  1.00  0.00     0.173 A 
ATOM    119  C   UNL A   1      41.070  34.972  39.048  1.00  0.00     0.173 A 
ATOM    120  F   UNL A   1      38.886  32.205  39.945  1.00  0.00    -0.203 F 
ATOM    121  C   UNL A   1      39.709  33.980  41.253  1.00  0.00     0.198 A 
ATOM    122  C   UNL A   1      41.167  35.618  40.278  1.00  0.00     0.198 A 
ATOM    123  F   UNL A   1      41.745  35.475  38.003  1.00  0.00    -0.203 F 
ATOM    124  F   UNL A   1      39.027  33.516  42.310  1.00  0.00    -0.200 F 
ATOM    125  C   UNL A   1      40.482  35.125  41.378  1.00  0.00     0.200 A 
ATOM    126  F   UNL A   1      41.932  36.712  40.401  1.00  0.00    -0.200 F 
ATOM    127  F   UNL A   1      40.568  35.753  42.558  1.00  0.00    -0.200 F 
ENDBRANCH  97 117
BRANCH 100 128
ATOM    128  C   UNL A   1      39.821  28.823  30.333  1.00  0.00     0.064 A 
ATOM    129  C   UNL A   1      40.286  29.361  29.124  1.00  0.00     0.173 A 
ATOM    130  C   UNL A   1      39.288  27.526  30.307  1.00  0.00     0.173 A 
ATOM    131  F   UNL A   1      40.771  30.610  29.090  1.00  0.00    -0.203 F 
ATOM    132  C   UNL A   1      40.221  28.629  27.940  1.00  0.00     0.198 A 
ATOM    133  C   UNL A   1      39.255  26.783  29.129  1.00  0.00     0.198 A 
ATOM    134  F   UNL A   1      38.820  26.968  31.434  1.00  0.00    -0.203 F 
ATOM    135  F   UNL A   1      40.638  29.180  26.791  1.00  0.00    -0.200 F 
ATOM    136  C   UNL A   1      39.717  27.338  27.945  1.00  0.00     0.200 A 
ATOM    137  F   UNL A   1      38.780  25.531  29.141  1.00  0.00    -0.200 F 
ATOM    138  F   UNL A   1      39.672  26.628  26.809  1.00  0.00    -0.200 F 
ENDBRANCH 100 128
BRANCH 115 139
ATOM    139  C   UNL A   1      44.511  29.060  35.491  1.00  0.00     0.064 A 
ATOM    140  C   UNL A   1      45.727  29.634  35.093  1.00  0.00     0.173 A 
ATOM    141  C   UNL A   1      44.558  27.838  36.180  1.00  0.00     0.173 A 
ATOM    142  F   UNL A   1      45.737  30.794  34.419  1.00  0.00    -0.203 F 
ATOM    143  C   UNL A   1      46.940  29.003  35.361  1.00  0.00     0.198 A 
ATOM    144  C   UNL A   1      45.774  27.224  36.472  1.00  0.00     0.198 A 
ATOM    145  F   UNL A   1      43.425  27.249  36.591  1.00  0.00    -0.203 F 
ATOM    146  F   UNL A   1      48.087  29.552  34.938  1.00  0.00    -0.200 F 
ATOM    147  C   UNL A   1      46.963  27.805  36.059  1.00  0.00     0.200 A 
ATOM    148  F   UNL A   1      45.795  26.074  37.161  1.00  0.00    -0.200 F 
ATOM    149  F   UNL A   1      48.132  27.208  36.330  1.00  0.00    -0.200 F 
ENDBRANCH 115 139
ENDBRANCH  80  83
ENDBRANCH  70  73
ENDBRANCH  66  69
ENDBRANCH  63  66
ENDBRANCH  60  63
ENDBRANCH  57  60
ENDBRANCH   1  57
TORSDOF 21
ENDMDL
MODEL 9
REMARK VINA RESULT:     -11.5      4.551     10.197
REMARK SMILES CC(C)(C)c1cc(Nc2ccccc2C(=O)NCCCCCCNC(=O)c2ccc(-c3c4nc(c(-c5c(F)c(F)c(F)c(F)c5F)c5ccc([nH]5)c(-c5c(F)c(F)c(F)c(F)c5F)c5nc(c(-c6c(F)c(F)c(F)c(F)c6F)c6ccc3[nH]6)C=C5)C=C4)cc2)cc2c1OCC2(C)C
REMARK SMILES IDX 19 1 18 4 17 7 15 8 16 9 14 11 9 12 10 13 11 14 13 16 12 17
REMARK SMILES IDX 8 21 7 23 5 24 6 25 92 26 91 28 93 29 90 30 95 31 94 32 2 36
REMARK SMILES IDX 1 37 3 41 4 45 96 49 97 53 20 57 21 60 22 63 23 66 24 69
REMARK SMILES IDX 25 70 26 72 27 73 28 74 89 75 29 76 88 78 30 80 31 83 32 84
REMARK SMILES IDX 82 85 33 86 87 87 81 88 83 89 34 90 86 91 80 93 79 95 35 97
REMARK SMILES IDX 67 100 47 101 66 102 48 103 51 104 65 105 84 106 49 107
REMARK SMILES IDX 50 109 64 111 85 112 52 115 36 117 37 118 45 119 38 120
REMARK SMILES IDX 39 121 43 122 46 123 40 124 41 125 44 126 42 127 68 128
REMARK SMILES IDX 69 129 77 130 70 131 71 132 75 133 78 134 72 135 73 136
REMARK SMILES IDX 76 137 74 138 53 139 54 140 62 141 55 142 56 143 60 144
REMARK SMILES IDX 63 145 57 146 58 147 61 148 59 149
REMARK H PARENT 19 2 19 3 18 5 18 6 17 10 10 15 11 18 13 19 12 20 8 22 6 27
REMARK H PARENT 90 33 94 34 94 35 1 38 1 39 1 40 3 42 3 43 3 44 4 46 4 47 4 48
REMARK H PARENT 96 50 96 51 96 52 97 54 97 55 97 56 20 58 20 59 21 61 21 62
REMARK H PARENT 22 64 22 65 23 67 23 68 24 71 28 77 89 79 29 81 88 82 87 92
REMARK H PARENT 81 94 83 96 86 98 80 99 48 108 51 110 84 113 49 114 85 116
REMARK Flexibility Score: inf
ROOT
ATOM      1  C   UNL A   1      33.448  27.969  26.876  1.00  0.00    -0.036 C 
ATOM      2  H   UNL A   1      33.696  27.122  26.271  1.00  0.00     0.028 H 
ATOM      3  H   UNL A   1      33.498  27.847  27.938  1.00  0.00     0.028 H 
ENDROOT
BRANCH   1   4
ATOM      4  C   UNL A   1      31.974  28.271  26.628  1.00  0.00     0.018 C 
ATOM      5  H   UNL A   1      31.705  29.096  27.254  1.00  0.00     0.049 H 
ATOM      6  H   UNL A   1      31.907  28.456  25.576  1.00  0.00     0.049 H 
BRANCH   4   7
ATOM      7  N   UNL A   1      31.030  27.217  26.875  1.00  0.00    -0.352 N 
ATOM      8  C   UNL A   1      30.702  26.115  26.117  1.00  0.00     0.253 C 
ATOM      9  O   UNL A   1      29.873  25.350  26.627  1.00  0.00    -0.269 OA
ATOM     10  H   UNL A   1      30.538  27.295  27.724  1.00  0.00     0.163 HD
BRANCH   8  11
ATOM     11  C   UNL A   1      31.194  25.777  24.731  1.00  0.00     0.063 A 
ATOM     12  C   UNL A   1      31.342  24.523  24.098  1.00  0.00     0.051 A 
ATOM     13  C   UNL A   1      31.688  24.491  22.721  1.00  0.00    -0.038 A 
ATOM     14  C   UNL A   1      31.971  25.641  21.992  1.00  0.00    -0.060 A 
ATOM     15  H   UNL A   1      31.732  23.578  22.242  1.00  0.00     0.064 H 
ATOM     16  C   UNL A   1      31.483  26.933  23.959  1.00  0.00    -0.047 A 
ATOM     17  C   UNL A   1      31.885  26.869  22.621  1.00  0.00    -0.061 A 
ATOM     18  H   UNL A   1      32.241  25.578  20.998  1.00  0.00     0.062 H 
ATOM     19  H   UNL A   1      31.392  27.860  24.404  1.00  0.00     0.063 H 
ATOM     20  H   UNL A   1      32.117  27.733  22.105  1.00  0.00     0.062 H 
BRANCH  12  21
ATOM     21  N   UNL A   1      31.279  23.264  24.736  1.00  0.00    -0.355 N 
ATOM     22  H   UNL A   1      30.418  23.001  25.134  1.00  0.00     0.167 HD
BRANCH  21  23
ATOM     23  C   UNL A   1      32.356  22.346  24.849  1.00  0.00     0.039 A 
ATOM     24  C   UNL A   1      34.803  21.937  24.914  1.00  0.00     0.002 A 
ATOM     25  C   UNL A   1      33.684  22.809  24.985  1.00  0.00    -0.031 A 
ATOM     26  C   UNL A   1      34.517  20.580  24.766  1.00  0.00     0.127 A 
ATOM     27  H   UNL A   1      33.846  23.816  25.143  1.00  0.00     0.065 H 
ATOM     28  C   UNL A   1      33.228  20.103  24.675  1.00  0.00     0.006 A 
ATOM     29  O   UNL A   1      35.458  19.597  24.626  1.00  0.00    -0.492 OA
ATOM     30  C   UNL A   1      32.150  20.968  24.704  1.00  0.00    -0.031 A 
ATOM     31  C   UNL A   1      33.218  18.624  24.513  1.00  0.00     0.028 C 
ATOM     32  C   UNL A   1      34.735  18.354  24.511  1.00  0.00     0.097 C 
ATOM     33  H   UNL A   1      31.191  20.598  24.618  1.00  0.00     0.065 H 
ATOM     34  H   UNL A   1      34.983  17.722  25.338  1.00  0.00     0.072 H 
ATOM     35  H   UNL A   1      35.004  17.874  23.594  1.00  0.00     0.072 H 
BRANCH  24  36
ATOM     36  C   UNL A   1      36.244  22.452  24.803  1.00  0.00    -0.009 C 
BRANCH  36  37
ATOM     37  C   UNL A   1      37.322  21.419  25.203  1.00  0.00    -0.056 C 
ATOM     38  H   UNL A   1      36.853  20.572  25.655  1.00  0.00     0.024 H 
ATOM     39  H   UNL A   1      38.002  21.865  25.899  1.00  0.00     0.024 H 
ATOM     40  H   UNL A   1      37.858  21.108  24.331  1.00  0.00     0.024 H 
ENDBRANCH  36  37
BRANCH  36  41
ATOM     41  C   UNL A   1      36.508  23.704  25.667  1.00  0.00    -0.056 C 
ATOM     42  H   UNL A   1      36.363  24.584  25.075  1.00  0.00     0.024 H 
ATOM     43  H   UNL A   1      37.514  23.682  26.032  1.00  0.00     0.024 H 
ATOM     44  H   UNL A   1      35.829  23.716  26.494  1.00  0.00     0.024 H 
ENDBRANCH  36  41
BRANCH  36  45
ATOM     45  C   UNL A   1      36.441  22.791  23.314  1.00  0.00    -0.056 C 
ATOM     46  H   UNL A   1      37.026  23.683  23.226  1.00  0.00     0.024 H 
ATOM     47  H   UNL A   1      35.488  22.945  22.854  1.00  0.00     0.024 H 
ATOM     48  H   UNL A   1      36.947  21.983  22.828  1.00  0.00     0.024 H 
ENDBRANCH  36  45
ENDBRANCH  24  36
BRANCH  31  49
ATOM     49  C   UNL A   1      32.528  17.962  25.708  1.00  0.00    -0.052 C 
ATOM     50  H   UNL A   1      32.821  16.934  25.765  1.00  0.00     0.024 H 
ATOM     51  H   UNL A   1      31.468  18.026  25.588  1.00  0.00     0.024 H 
ATOM     52  H   UNL A   1      32.817  18.464  26.608  1.00  0.00     0.024 H 
ENDBRANCH  31  49
BRANCH  31  53
ATOM     53  C   UNL A   1      32.573  18.180  23.197  1.00  0.00    -0.052 C 
ATOM     54  H   UNL A   1      31.663  18.724  23.044  1.00  0.00     0.024 H 
ATOM     55  H   UNL A   1      32.359  17.133  23.240  1.00  0.00     0.024 H 
ATOM     56  H   UNL A   1      33.245  18.374  22.387  1.00  0.00     0.024 H 
ENDBRANCH  31  53
ENDBRANCH  21  23
ENDBRANCH  12  21
ENDBRANCH   8  11
ENDBRANCH   4   7
ENDBRANCH   1   4
BRANCH   1  57
ATOM     57  C   UNL A   1      34.506  29.038  26.595  1.00  0.00    -0.052 C 
ATOM     58  H   UNL A   1      34.220  29.526  25.686  1.00  0.00     0.027 H 
ATOM     59  H   UNL A   1      35.422  28.484  26.585  1.00  0.00     0.027 H 
BRANCH  57  60
ATOM     60  C   UNL A   1      34.770  30.141  27.625  1.00  0.00    -0.052 C 
ATOM     61  H   UNL A   1      35.830  30.198  27.760  1.00  0.00     0.027 H 
ATOM     62  H   UNL A   1      34.201  29.841  28.479  1.00  0.00     0.027 H 
BRANCH  60  63
ATOM     63  C   UNL A   1      34.276  31.557  27.326  1.00  0.00    -0.036 C 
ATOM     64  H   UNL A   1      34.582  31.798  26.329  1.00  0.00     0.028 H 
ATOM     65  H   UNL A   1      34.703  32.159  28.102  1.00  0.00     0.028 H 
BRANCH  63  66
ATOM     66  C   UNL A   1      32.772  31.832  27.417  1.00  0.00     0.018 C 
ATOM     67  H   UNL A   1      32.385  31.257  28.233  1.00  0.00     0.049 H 
ATOM     68  H   UNL A   1      32.373  31.564  26.461  1.00  0.00     0.049 H 
BRANCH  66  69
ATOM     69  N   UNL A   1      32.387  33.214  27.628  1.00  0.00    -0.352 N 
ATOM     70  C   UNL A   1      33.017  34.206  28.362  1.00  0.00     0.251 C 
ATOM     71  H   UNL A   1      31.553  33.488  27.184  1.00  0.00     0.163 HD
ATOM     72  O   UNL A   1      32.563  35.340  28.368  1.00  0.00    -0.269 OA
BRANCH  70  73
ATOM     73  C   UNL A   1      34.207  33.900  29.202  1.00  0.00     0.039 A 
ATOM     74  C   UNL A   1      35.488  34.314  28.853  1.00  0.00    -0.049 A 
ATOM     75  C   UNL A   1      34.028  33.184  30.389  1.00  0.00    -0.049 A 
ATOM     76  C   UNL A   1      36.600  33.839  29.567  1.00  0.00    -0.053 A 
ATOM     77  H   UNL A   1      35.623  34.970  28.068  1.00  0.00     0.063 H 
ATOM     78  C   UNL A   1      35.139  32.777  31.147  1.00  0.00    -0.053 A 
ATOM     79  H   UNL A   1      33.075  32.954  30.710  1.00  0.00     0.063 H 
ATOM     80  C   UNL A   1      36.449  33.028  30.706  1.00  0.00    -0.014 A 
ATOM     81  H   UNL A   1      37.548  34.091  29.249  1.00  0.00     0.063 H 
ATOM     82  H   UNL A   1      34.990  32.284  32.042  1.00  0.00     0.063 H 
BRANCH  80  83
ATOM     83  C   UNL A   1      37.629  32.388  31.387  1.00  0.00     0.031 A 
ATOM     84  C   UNL A   1      38.397  31.270  30.706  1.00  0.00     0.074 A 
ATOM     85  C   UNL A   1      38.062  32.801  32.597  1.00  0.00     0.049 A 
ATOM     86  N   UNL A   1      39.350  30.499  31.179  1.00  0.00    -0.248 NA
ATOM     87  C   UNL A   1      38.041  30.974  29.309  1.00  0.00    -0.034 C 
ATOM     88  C   UNL A   1      37.485  33.893  33.377  1.00  0.00    -0.036 A 
ATOM     89  N   UNL A   1      39.104  32.353  33.381  1.00  0.00    -0.354 N 
ATOM     90  C   UNL A   1      39.670  29.608  30.159  1.00  0.00     0.074 A 
ATOM     91  C   UNL A   1      38.795  29.915  29.049  1.00  0.00    -0.034 C 
ATOM     92  H   UNL A   1      37.376  31.465  28.691  1.00  0.00     0.065 H 
ATOM     93  C   UNL A   1      38.207  34.067  34.495  1.00  0.00    -0.036 A 
ATOM     94  H   UNL A   1      36.654  34.444  33.111  1.00  0.00     0.065 H 
ATOM     95  C   UNL A   1      39.245  33.041  34.563  1.00  0.00     0.049 A 
ATOM     96  H   UNL A   1      39.693  31.609  33.119  1.00  0.00     0.167 HD
ATOM     97  C   UNL A   1      40.613  28.632  30.135  1.00  0.00     0.037 A 
ATOM     98  H   UNL A   1      38.762  29.379  28.168  1.00  0.00     0.065 H 
ATOM     99  H   UNL A   1      38.052  34.808  35.197  1.00  0.00     0.065 H 
ATOM    100  C   UNL A   1      40.085  32.860  35.604  1.00  0.00     0.037 A 
ATOM    101  C   UNL A   1      41.533  28.346  31.209  1.00  0.00     0.049 A 
ATOM    102  C   UNL A   1      41.073  31.724  35.588  1.00  0.00     0.074 A 
ATOM    103  C   UNL A   1      42.525  27.380  31.257  1.00  0.00    -0.036 A 
ATOM    104  N   UNL A   1      41.588  29.030  32.412  1.00  0.00    -0.354 N 
ATOM    105  N   UNL A   1      41.327  30.859  34.637  1.00  0.00    -0.248 NA
ATOM    106  C   UNL A   1      41.881  31.529  36.803  1.00  0.00    -0.034 C 
ATOM    107  C   UNL A   1      43.149  27.449  32.505  1.00  0.00    -0.036 A 
ATOM    108  H   UNL A   1      42.761  26.720  30.499  1.00  0.00     0.065 H 
ATOM    109  C   UNL A   1      42.584  28.495  33.215  1.00  0.00     0.049 A 
ATOM    110  H   UNL A   1      41.006  29.785  32.661  1.00  0.00     0.167 HD
ATOM    111  C   UNL A   1      42.330  30.033  35.130  1.00  0.00     0.074 A 
ATOM    112  C   UNL A   1      42.654  30.509  36.457  1.00  0.00    -0.034 C 
ATOM    113  H   UNL A   1      41.851  32.050  37.694  1.00  0.00     0.065 H 
ATOM    114  H   UNL A   1      43.903  26.828  32.840  1.00  0.00     0.065 H 
ATOM    115  C   UNL A   1      42.919  28.969  34.532  1.00  0.00     0.037 A 
ATOM    116  H   UNL A   1      43.393  30.108  37.056  1.00  0.00     0.065 H 
BRANCH  97 117
ATOM    117  C   UNL A   1      40.712  27.777  28.902  1.00  0.00     0.064 A 
ATOM    118  C   UNL A   1      39.918  26.632  28.733  1.00  0.00     0.173 A 
ATOM    119  C   UNL A   1      41.549  28.156  27.840  1.00  0.00     0.173 A 
ATOM    120  F   UNL A   1      39.107  26.221  29.718  1.00  0.00    -0.203 F 
ATOM    121  C   UNL A   1      39.974  25.890  27.555  1.00  0.00     0.198 A 
ATOM    122  C   UNL A   1      41.578  27.430  26.652  1.00  0.00     0.198 A 
ATOM    123  F   UNL A   1      42.318  29.250  27.943  1.00  0.00    -0.203 F 
ATOM    124  F   UNL A   1      39.234  24.779  27.431  1.00  0.00    -0.200 F 
ATOM    125  C   UNL A   1      40.795  26.294  26.513  1.00  0.00     0.200 A 
ATOM    126  F   UNL A   1      42.356  27.834  25.639  1.00  0.00    -0.200 F 
ATOM    127  F   UNL A   1      40.831  25.589  25.374  1.00  0.00    -0.200 F 
ENDBRANCH  97 117
BRANCH 100 128
ATOM    128  C   UNL A   1      40.018  33.778  36.773  1.00  0.00     0.064 A 
ATOM    129  C   UNL A   1      40.843  34.910  36.844  1.00  0.00     0.173 A 
ATOM    130  C   UNL A   1      39.130  33.551  37.834  1.00  0.00     0.173 A 
ATOM    131  F   UNL A   1      41.734  35.151  35.872  1.00  0.00    -0.203 F 
ATOM    132  C   UNL A   1      40.779  35.779  37.932  1.00  0.00     0.198 A 
ATOM    133  C   UNL A   1      39.043  34.438  38.904  1.00  0.00     0.198 A 
ATOM    134  F   UNL A   1      38.326  32.477  37.820  1.00  0.00    -0.203 F 
ATOM    135  F   UNL A   1      41.604  36.834  37.993  1.00  0.00    -0.200 F 
ATOM    136  C   UNL A   1      39.871  35.549  38.955  1.00  0.00     0.200 A 
ATOM    137  F   UNL A   1      38.155  34.220  39.883  1.00  0.00    -0.200 F 
ATOM    138  F   UNL A   1      39.797  36.395  39.992  1.00  0.00    -0.200 F 
ENDBRANCH 100 128
BRANCH 115 139
ATOM    139  C   UNL A   1      44.003  28.250  35.284  1.00  0.00     0.064 A 
ATOM    140  C   UNL A   1      45.341  28.666  35.223  1.00  0.00     0.173 A 
ATOM    141  C   UNL A   1      43.690  27.174  36.130  1.00  0.00     0.173 A 
ATOM    142  F   UNL A   1      45.695  29.680  34.420  1.00  0.00    -0.203 F 
ATOM    143  C   UNL A   1      46.327  28.023  35.967  1.00  0.00     0.198 A 
ATOM    144  C   UNL A   1      44.674  26.551  36.895  1.00  0.00     0.198 A 
ATOM    145  F   UNL A   1      42.425  26.739  36.233  1.00  0.00    -0.203 F 
ATOM    146  F   UNL A   1      47.604  28.415  35.865  1.00  0.00    -0.200 F 
ATOM    147  C   UNL A   1      45.992  26.973  36.809  1.00  0.00     0.200 A 
ATOM    148  F   UNL A   1      44.345  25.547  37.720  1.00  0.00    -0.200 F 
ATOM    149  F   UNL A   1      46.940  26.366  37.537  1.00  0.00    -0.200 F 
ENDBRANCH 115 139
ENDBRANCH  80  83
ENDBRANCH  70  73
ENDBRANCH  66  69
ENDBRANCH  63  66
ENDBRANCH  60  63
ENDBRANCH  57  60
ENDBRANCH   1  57
TORSDOF 21
ENDMDL
MODEL 10
REMARK VINA RESULT:     -11.3      6.055     12.135
REMARK SMILES CC(C)(C)c1cc(Nc2ccccc2C(=O)NCCCCCCNC(=O)c2ccc(-c3c4nc(c(-c5c(F)c(F)c(F)c(F)c5F)c5ccc([nH]5)c(-c5c(F)c(F)c(F)c(F)c5F)c5nc(c(-c6c(F)c(F)c(F)c(F)c6F)c6ccc3[nH]6)C=C5)C=C4)cc2)cc2c1OCC2(C)C
REMARK SMILES IDX 19 1 18 4 17 7 15 8 16 9 14 11 9 12 10 13 11 14 13 16 12 17
REMARK SMILES IDX 8 21 7 23 5 24 6 25 92 26 91 28 93 29 90 30 95 31 94 32 2 36
REMARK SMILES IDX 1 37 3 41 4 45 96 49 97 53 20 57 21 60 22 63 23 66 24 69
REMARK SMILES IDX 25 70 26 72 27 73 28 74 89 75 29 76 88 78 30 80 31 83 32 84
REMARK SMILES IDX 82 85 33 86 87 87 81 88 83 89 34 90 86 91 80 93 79 95 35 97
REMARK SMILES IDX 67 100 47 101 66 102 48 103 51 104 65 105 84 106 49 107
REMARK SMILES IDX 50 109 64 111 85 112 52 115 36 117 37 118 45 119 38 120
REMARK SMILES IDX 39 121 43 122 46 123 40 124 41 125 44 126 42 127 68 128
REMARK SMILES IDX 69 129 77 130 70 131 71 132 75 133 78 134 72 135 73 136
REMARK SMILES IDX 76 137 74 138 53 139 54 140 62 141 55 142 56 143 60 144
REMARK SMILES IDX 63 145 57 146 58 147 61 148 59 149
REMARK H PARENT 19 2 19 3 18 5 18 6 17 10 10 15 11 18 13 19 12 20 8 22 6 27
REMARK H PARENT 90 33 94 34 94 35 1 38 1 39 1 40 3 42 3 43 3 44 4 46 4 47 4 48
REMARK H PARENT 96 50 96 51 96 52 97 54 97 55 97 56 20 58 20 59 21 61 21 62
REMARK H PARENT 22 64 22 65 23 67 23 68 24 71 28 77 89 79 29 81 88 82 87 92
REMARK H PARENT 81 94 83 96 86 98 80 99 48 108 51 110 84 113 49 114 85 116
REMARK Flexibility Score: inf
ROOT
ATOM      1  C   UNL A   1      35.983  34.034  34.285  1.00  0.00    -0.036 C 
ATOM      2  H   UNL A   1      36.626  34.796  33.897  1.00  0.00     0.028 H 
ATOM      3  H   UNL A   1      35.759  34.065  35.331  1.00  0.00     0.028 H 
ENDROOT
BRANCH   1   4
ATOM      4  C   UNL A   1      36.722  32.710  34.124  1.00  0.00     0.018 C 
ATOM      5  H   UNL A   1      36.060  31.932  34.444  1.00  0.00     0.049 H 
ATOM      6  H   UNL A   1      37.000  32.677  33.091  1.00  0.00     0.049 H 
BRANCH   4   7
ATOM      7  N   UNL A   1      37.956  32.548  34.840  1.00  0.00    -0.352 N 
ATOM      8  C   UNL A   1      38.944  31.597  34.716  1.00  0.00     0.253 C 
ATOM      9  O   UNL A   1      39.925  31.753  35.454  1.00  0.00    -0.269 OA
ATOM     10  H   UNL A   1      38.122  33.227  35.533  1.00  0.00     0.163 HD
BRANCH   8  11
ATOM     11  C   UNL A   1      38.931  30.375  33.831  1.00  0.00     0.063 A 
ATOM     12  C   UNL A   1      39.952  29.437  33.559  1.00  0.00     0.051 A 
ATOM     13  C   UNL A   1      39.632  28.280  32.799  1.00  0.00    -0.038 A 
ATOM     14  C   UNL A   1      38.375  28.076  32.239  1.00  0.00    -0.060 A 
ATOM     15  H   UNL A   1      40.360  27.563  32.656  1.00  0.00     0.064 H 
ATOM     16  C   UNL A   1      37.657  30.135  33.251  1.00  0.00    -0.047 A 
ATOM     17  C   UNL A   1      37.387  29.019  32.452  1.00  0.00    -0.061 A 
ATOM     18  H   UNL A   1      38.184  27.234  31.674  1.00  0.00     0.062 H 
ATOM     19  H   UNL A   1      36.898  30.812  33.427  1.00  0.00     0.063 H 
ATOM     20  H   UNL A   1      36.455  28.900  32.024  1.00  0.00     0.062 H 
BRANCH  12  21
ATOM     21  N   UNL A   1      41.318  29.585  33.888  1.00  0.00    -0.355 N 
ATOM     22  H   UNL A   1      41.847  30.215  33.346  1.00  0.00     0.167 HD
BRANCH  21  23
ATOM     23  C   UNL A   1      41.990  28.901  34.934  1.00  0.00     0.039 A 
ATOM     24  C   UNL A   1      43.786  28.873  36.647  1.00  0.00     0.002 A 
ATOM     25  C   UNL A   1      42.960  29.563  35.720  1.00  0.00    -0.031 A 
ATOM     26  C   UNL A   1      43.543  27.508  36.789  1.00  0.00     0.127 A 
ATOM     27  H   UNL A   1      43.071  30.584  35.617  1.00  0.00     0.065 H 
ATOM     28  C   UNL A   1      42.573  26.850  36.064  1.00  0.00     0.006 A 
ATOM     29  O   UNL A   1      44.267  26.668  37.591  1.00  0.00    -0.492 OA
ATOM     30  C   UNL A   1      41.805  27.527  35.136  1.00  0.00    -0.031 A 
ATOM     31  C   UNL A   1      42.540  25.403  36.409  1.00  0.00     0.028 C 
ATOM     32  C   UNL A   1      43.678  25.358  37.446  1.00  0.00     0.097 C 
ATOM     33  H   UNL A   1      41.094  27.019  34.588  1.00  0.00     0.065 H 
ATOM     34  H   UNL A   1      43.286  25.040  38.389  1.00  0.00     0.072 H 
ATOM     35  H   UNL A   1      44.428  24.671  37.114  1.00  0.00     0.072 H 
BRANCH  24  36
ATOM     36  C   UNL A   1      45.005  29.528  37.312  1.00  0.00    -0.009 C 
BRANCH  36  37
ATOM     37  C   UNL A   1      46.345  29.254  36.593  1.00  0.00    -0.056 C 
ATOM     38  H   UNL A   1      46.980  28.677  37.231  1.00  0.00     0.024 H 
ATOM     39  H   UNL A   1      46.822  30.185  36.363  1.00  0.00     0.024 H 
ATOM     40  H   UNL A   1      46.161  28.714  35.688  1.00  0.00     0.024 H 
ENDBRANCH  36  37
BRANCH  36  41
ATOM     41  C   UNL A   1      45.205  29.086  38.778  1.00  0.00    -0.056 C 
ATOM     42  H   UNL A   1      44.371  28.491  39.089  1.00  0.00     0.024 H 
ATOM     43  H   UNL A   1      45.281  29.950  39.404  1.00  0.00     0.024 H 
ATOM     44  H   UNL A   1      46.104  28.509  38.856  1.00  0.00     0.024 H 
ENDBRANCH  36  41
BRANCH  36  45
ATOM     45  C   UNL A   1      44.735  31.043  37.253  1.00  0.00    -0.056 C 
ATOM     46  H   UNL A   1      45.609  31.547  36.897  1.00  0.00     0.024 H 
ATOM     47  H   UNL A   1      44.492  31.400  38.232  1.00  0.00     0.024 H 
ATOM     48  H   UNL A   1      43.918  31.234  36.590  1.00  0.00     0.024 H 
ENDBRANCH  36  45
ENDBRANCH  24  36
BRANCH  31  49
ATOM     49  C   UNL A   1      41.193  25.036  37.034  1.00  0.00    -0.052 C 
ATOM     50  H   UNL A   1      40.964  24.013  36.813  1.00  0.00     0.024 H 
ATOM     51  H   UNL A   1      40.429  25.667  36.632  1.00  0.00     0.024 H 
ATOM     52  H   UNL A   1      41.244  25.168  38.095  1.00  0.00     0.024 H 
ENDBRANCH  31  49
BRANCH  31  53
ATOM     53  C   UNL A   1      42.848  24.506  35.207  1.00  0.00    -0.052 C 
ATOM     54  H   UNL A   1      43.255  23.577  35.550  1.00  0.00     0.024 H 
ATOM     55  H   UNL A   1      43.558  24.992  34.572  1.00  0.00     0.024 H 
ATOM     56  H   UNL A   1      41.947  24.320  34.660  1.00  0.00     0.024 H 
ENDBRANCH  31  53
ENDBRANCH  21  23
ENDBRANCH  12  21
ENDBRANCH   8  11
ENDBRANCH   4   7
ENDBRANCH   1   4
BRANCH   1  57
ATOM     57  C   UNL A   1      34.615  34.233  33.627  1.00  0.00    -0.052 C 
ATOM     58  H   UNL A   1      33.894  34.271  34.418  1.00  0.00     0.027 H 
ATOM     59  H   UNL A   1      34.548  33.413  32.943  1.00  0.00     0.027 H 
BRANCH  57  60
ATOM     60  C   UNL A   1      34.366  35.457  32.740  1.00  0.00    -0.052 C 
ATOM     61  H   UNL A   1      35.191  35.527  32.062  1.00  0.00     0.027 H 
ATOM     62  H   UNL A   1      34.255  36.264  33.433  1.00  0.00     0.027 H 
BRANCH  60  63
ATOM     63  C   UNL A   1      33.087  35.507  31.902  1.00  0.00    -0.036 C 
ATOM     64  H   UNL A   1      32.366  36.073  32.455  1.00  0.00     0.028 H 
ATOM     65  H   UNL A   1      32.841  34.480  31.730  1.00  0.00     0.028 H 
BRANCH  63  66
ATOM     66  C   UNL A   1      33.166  36.119  30.500  1.00  0.00     0.018 C 
ATOM     67  H   UNL A   1      34.162  36.486  30.361  1.00  0.00     0.049 H 
ATOM     68  H   UNL A   1      32.410  36.875  30.474  1.00  0.00     0.049 H 
BRANCH  66  69
ATOM     69  N   UNL A   1      32.865  35.227  29.396  1.00  0.00    -0.352 N 
ATOM     70  C   UNL A   1      33.579  34.141  28.916  1.00  0.00     0.251 C 
ATOM     71  H   UNL A   1      32.029  35.423  28.916  1.00  0.00     0.163 HD
ATOM     72  O   UNL A   1      33.124  33.469  28.004  1.00  0.00    -0.269 OA
BRANCH  70  73
ATOM     73  C   UNL A   1      34.930  33.815  29.450  1.00  0.00     0.039 A 
ATOM     74  C   UNL A   1      36.070  34.514  29.064  1.00  0.00    -0.049 A 
ATOM     75  C   UNL A   1      35.056  32.778  30.379  1.00  0.00    -0.049 A 
ATOM     76  C   UNL A   1      37.340  34.049  29.438  1.00  0.00    -0.053 A 
ATOM     77  H   UNL A   1      35.981  35.375  28.502  1.00  0.00     0.063 H 
ATOM     78  C   UNL A   1      36.326  32.365  30.815  1.00  0.00    -0.053 A 
ATOM     79  H   UNL A   1      34.211  32.314  30.747  1.00  0.00     0.063 H 
ATOM     80  C   UNL A   1      37.495  32.941  30.290  1.00  0.00    -0.014 A 
ATOM     81  H   UNL A   1      38.179  34.532  29.080  1.00  0.00     0.063 H 
ATOM     82  H   UNL A   1      36.402  31.627  31.532  1.00  0.00     0.063 H 
BRANCH  80  83
ATOM     83  C   UNL A   1      38.846  32.340  30.573  1.00  0.00     0.031 A 
ATOM     84  C   UNL A   1      39.264  31.039  29.913  1.00  0.00     0.074 A 
ATOM     85  C   UNL A   1      39.737  32.946  31.388  1.00  0.00     0.049 A 
ATOM     86  N   UNL A   1      40.322  30.292  30.130  1.00  0.00    -0.248 NA
ATOM     87  C   UNL A   1      38.369  30.503  28.875  1.00  0.00    -0.034 C 
ATOM     88  C   UNL A   1      39.534  34.224  32.066  1.00  0.00    -0.036 A 
ATOM     89  N   UNL A   1      41.005  32.567  31.774  1.00  0.00    -0.354 N 
ATOM     90  C   UNL A   1      40.194  29.187  29.294  1.00  0.00     0.074 A 
ATOM     91  C   UNL A   1      38.945  29.346  28.582  1.00  0.00    -0.034 C 
ATOM     92  H   UNL A   1      37.512  30.921  28.478  1.00  0.00     0.065 H 
ATOM     93  C   UNL A   1      40.649  34.549  32.738  1.00  0.00    -0.036 A 
ATOM     94  H   UNL A   1      38.670  34.787  32.034  1.00  0.00     0.065 H 
ATOM     95  C   UNL A   1      41.619  33.463  32.618  1.00  0.00     0.049 A 
ATOM     96  H   UNL A   1      41.432  31.732  31.475  1.00  0.00     0.167 HD
ATOM     97  C   UNL A   1      41.040  28.140  29.119  1.00  0.00     0.037 A 
ATOM     98  H   UNL A   1      38.553  28.649  27.930  1.00  0.00     0.065 H 
ATOM     99  H   UNL A   1      40.798  35.427  33.259  1.00  0.00     0.065 H 
ATOM    100  C   UNL A   1      42.808  33.415  33.254  1.00  0.00     0.037 A 
ATOM    101  C   UNL A   1      42.315  27.988  29.776  1.00  0.00     0.049 A 
ATOM    102  C   UNL A   1      43.698  32.209  33.103  1.00  0.00     0.074 A 
ATOM    103  C   UNL A   1      43.234  26.960  29.643  1.00  0.00    -0.036 A 
ATOM    104  N   UNL A   1      42.859  28.893  30.673  1.00  0.00    -0.354 N 
ATOM    105  N   UNL A   1      43.538  31.150  32.349  1.00  0.00    -0.248 NA
ATOM    106  C   UNL A   1      44.929  32.186  33.910  1.00  0.00    -0.034 C 
ATOM    107  C   UNL A   1      44.313  27.220  30.492  1.00  0.00    -0.036 A 
ATOM    108  H   UNL A   1      43.138  26.141  29.022  1.00  0.00     0.065 H 
ATOM    109  C   UNL A   1      44.092  28.437  31.114  1.00  0.00     0.049 A 
ATOM    110  H   UNL A   1      42.433  29.735  30.955  1.00  0.00     0.167 HD
ATOM    111  C   UNL A   1      44.649  30.348  32.577  1.00  0.00     0.074 A 
ATOM    112  C   UNL A   1      45.488  31.048  33.524  1.00  0.00    -0.034 C 
ATOM    113  H   UNL A   1      45.267  32.877  34.598  1.00  0.00     0.065 H 
ATOM    114  H   UNL A   1      45.134  26.609  30.631  1.00  0.00     0.065 H 
ATOM    115  C   UNL A   1      44.937  29.133  32.049  1.00  0.00     0.037 A 
ATOM    116  H   UNL A   1      46.404  30.706  33.856  1.00  0.00     0.065 H 
BRANCH  97 117
ATOM    117  C   UNL A   1      40.623  27.047  28.173  1.00  0.00     0.064 A 
ATOM    118  C   UNL A   1      41.235  26.881  26.922  1.00  0.00     0.173 A 
ATOM    119  C   UNL A   1      39.658  26.102  28.561  1.00  0.00     0.173 A 
ATOM    120  F   UNL A   1      42.156  27.758  26.499  1.00  0.00    -0.203 F 
ATOM    121  C   UNL A   1      40.882  25.822  26.087  1.00  0.00     0.198 A 
ATOM    122  C   UNL A   1      39.332  25.028  27.738  1.00  0.00     0.198 A 
ATOM    123  F   UNL A   1      39.052  26.205  29.753  1.00  0.00    -0.203 F 
ATOM    124  F   UNL A   1      41.454  25.704  24.880  1.00  0.00    -0.200 F 
ATOM    125  C   UNL A   1      39.940  24.891  26.499  1.00  0.00     0.200 A 
ATOM    126  F   UNL A   1      38.436  24.119  28.147  1.00  0.00    -0.200 F 
ATOM    127  F   UNL A   1      39.618  23.864  25.703  1.00  0.00    -0.200 F 
ENDBRANCH  97 117
BRANCH 100 128
ATOM    128  C   UNL A   1      43.229  34.552  34.116  1.00  0.00     0.064 A 
ATOM    129  C   UNL A   1      43.016  34.519  35.502  1.00  0.00     0.173 A 
ATOM    130  C   UNL A   1      43.856  35.686  33.581  1.00  0.00     0.173 A 
ATOM    131  F   UNL A   1      42.389  33.472  36.058  1.00  0.00    -0.203 F 
ATOM    132  C   UNL A   1      43.416  35.576  36.317  1.00  0.00     0.198 A 
ATOM    133  C   UNL A   1      44.285  36.728  34.400  1.00  0.00     0.198 A 
ATOM    134  F   UNL A   1      44.074  35.773  32.260  1.00  0.00    -0.203 F 
ATOM    135  F   UNL A   1      43.168  35.536  37.633  1.00  0.00    -0.200 F 
ATOM    136  C   UNL A   1      44.060  36.674  35.767  1.00  0.00     0.200 A 
ATOM    137  F   UNL A   1      44.920  37.780  33.866  1.00  0.00    -0.200 F 
ATOM    138  F   UNL A   1      44.461  37.683  36.553  1.00  0.00    -0.200 F 
ENDBRANCH 100 128
BRANCH 115 139
ATOM    139  C   UNL A   1      46.229  28.479  32.451  1.00  0.00     0.064 A 
ATOM    140  C   UNL A   1      46.270  27.472  33.426  1.00  0.00     0.173 A 
ATOM    141  C   UNL A   1      47.429  28.814  31.805  1.00  0.00     0.173 A 
ATOM    142  F   UNL A   1      45.154  27.123  34.084  1.00  0.00    -0.203 F 
ATOM    143  C   UNL A   1      47.467  26.837  33.751  1.00  0.00     0.198 A 
ATOM    144  C   UNL A   1      48.619  28.157  32.112  1.00  0.00     0.198 A 
ATOM    145  F   UNL A   1      47.446  29.765  30.859  1.00  0.00    -0.203 F 
ATOM    146  F   UNL A   1      47.488  25.902  34.712  1.00  0.00    -0.200 F 
ATOM    147  C   UNL A   1      48.637  27.172  33.087  1.00  0.00     0.200 A 
ATOM    148  F   UNL A   1      49.745  28.472  31.457  1.00  0.00    -0.200 F 
ATOM    149  F   UNL A   1      49.784  26.548  33.390  1.00  0.00    -0.200 F 
ENDBRANCH 115 139
ENDBRANCH  80  83
ENDBRANCH  70  73
ENDBRANCH  66  69
ENDBRANCH  63  66
ENDBRANCH  60  63
ENDBRANCH  57  60
ENDBRANCH   1  57
TORSDOF 21
ENDMDL
