MODEL 1
REMARK VINA RESULT:     -12.0      0.000      0.000
REMARK SMILES O=C(Cc1ccn(C(F)F)c(=O)c1)NCCCCCCNC(=O)c1ccc(-c2c3nc(c(-c4c(F)c(F)c(F)c(F)c4F)c4ccc([nH]4)c(-c4c(F)c(F)c(F)c(F)c4F)c4nc(c(-c5c(F)c(F)c(F)c(F)c5F)c5ccc2[nH]5)C=C4)C=C3)cc1
REMARK SMILES IDX 17 1 16 4 15 7 14 10 1 11 2 12 3 14 4 17 5 18 13 19 6 20
REMARK SMILES IDX 11 22 7 24 12 26 8 27 9 28 10 29 18 31 19 34 20 37 21 40
REMARK SMILES IDX 22 41 23 43 24 44 25 45 86 46 26 47 85 49 27 51 28 54 29 55
REMARK SMILES IDX 79 56 30 57 84 58 78 59 80 60 31 61 83 62 77 64 76 66 32 68
REMARK SMILES IDX 64 71 44 72 63 73 45 74 48 75 62 76 81 77 46 78 47 80 61 82
REMARK SMILES IDX 82 83 49 86 33 88 34 89 42 90 35 91 36 92 40 93 43 94 37 95
REMARK SMILES IDX 38 96 41 97 39 98 65 99 66 100 74 101 67 102 68 103 72 104
REMARK SMILES IDX 75 105 69 106 70 107 73 108 71 109 50 110 51 111 59 112
REMARK SMILES IDX 52 113 53 114 57 115 60 116 54 117 55 118 58 119 56 120
REMARK H PARENT 17 2 17 3 16 5 16 6 15 8 15 9 14 13 3 15 3 16 5 21 13 23 6 25
REMARK H PARENT 8 30 18 32 18 33 19 35 19 36 20 38 20 39 21 42 25 48 86 50
REMARK H PARENT 26 52 85 53 84 63 78 65 80 67 83 69 77 70 45 79 48 81 81 84
REMARK H PARENT 46 85 82 87
REMARK Flexibility Score: inf
ROOT
ATOM      1  C   UNL A   1      31.986  29.526  27.044  1.00  0.00    -0.052 C 
ATOM      2  H   UNL A   1      32.006  29.919  28.038  1.00  0.00     0.027 H 
ATOM      3  H   UNL A   1      31.195  28.827  26.868  1.00  0.00     0.027 H 
ENDROOT
BRANCH   1   4
ATOM      4  C   UNL A   1      33.289  28.747  26.820  1.00  0.00    -0.036 C 
ATOM      5  H   UNL A   1      33.792  29.175  25.978  1.00  0.00     0.028 H 
ATOM      6  H   UNL A   1      33.847  28.825  27.730  1.00  0.00     0.028 H 
BRANCH   4   7
ATOM      7  C   UNL A   1      33.109  27.254  26.556  1.00  0.00     0.017 C 
ATOM      8  H   UNL A   1      34.074  26.793  26.500  1.00  0.00     0.049 H 
ATOM      9  H   UNL A   1      32.533  26.841  27.358  1.00  0.00     0.049 H 
BRANCH   7  10
ATOM     10  N   UNL A   1      32.400  27.010  25.318  1.00  0.00    -0.356 N 
ATOM     11  O   UNL A   1      30.520  26.104  26.278  1.00  0.00    -0.275 OA
ATOM     12  C   UNL A   1      31.143  26.449  25.279  1.00  0.00     0.224 C 
ATOM     13  H   UNL A   1      32.835  27.255  24.469  1.00  0.00     0.163 HD
BRANCH  12  14
ATOM     14  C   UNL A   1      30.572  26.314  23.871  1.00  0.00     0.052 C 
ATOM     15  H   UNL A   1      29.876  25.502  23.876  1.00  0.00     0.042 H 
ATOM     16  H   UNL A   1      31.416  26.161  23.230  1.00  0.00     0.042 H 
BRANCH  14  17
ATOM     17  C   UNL A   1      29.861  27.532  23.326  1.00  0.00    -0.032 A 
ATOM     18  C   UNL A   1      30.573  28.588  22.630  1.00  0.00    -0.042 A 
ATOM     19  C   UNL A   1      28.532  27.657  23.493  1.00  0.00     0.007 A 
ATOM     20  C   UNL A   1      29.915  29.651  22.149  1.00  0.00     0.013 A 
ATOM     21  H   UNL A   1      31.595  28.519  22.503  1.00  0.00     0.064 H 
ATOM     22  C   UNL A   1      27.789  28.845  22.988  1.00  0.00     0.255 A 
ATOM     23  H   UNL A   1      28.015  26.910  23.983  1.00  0.00     0.068 H 
ATOM     24  N   UNL A   1      28.550  29.785  22.315  1.00  0.00    -0.258 N 
ATOM     25  H   UNL A   1      30.439  30.385  21.646  1.00  0.00     0.082 H 
ATOM     26  O   UNL A   1      26.581  28.910  23.192  1.00  0.00    -0.269 OA
BRANCH  24  27
ATOM     27  C   UNL A   1      27.868  30.961  21.840  1.00  0.00     0.321 C 
ATOM     28  F   UNL A   1      27.643  31.841  22.846  1.00  0.00    -0.185 F 
ATOM     29  F   UNL A   1      28.596  31.589  20.886  1.00  0.00    -0.185 F 
ATOM     30  H   UNL A   1      26.933  30.634  21.434  1.00  0.00     0.131 H 
ENDBRANCH  24  27
ENDBRANCH  14  17
ENDBRANCH  12  14
ENDBRANCH   7  10
ENDBRANCH   4   7
ENDBRANCH   1   4
BRANCH   1  31
ATOM     31  C   UNL A   1      31.737  30.691  26.081  1.00  0.00    -0.052 C 
ATOM     32  H   UNL A   1      30.911  30.429  25.453  1.00  0.00     0.027 H 
ATOM     33  H   UNL A   1      32.653  30.833  25.548  1.00  0.00     0.027 H 
BRANCH  31  34
ATOM     34  C   UNL A   1      31.420  32.032  26.741  1.00  0.00    -0.036 C 
ATOM     35  H   UNL A   1      30.791  31.845  27.586  1.00  0.00     0.028 H 
ATOM     36  H   UNL A   1      30.955  32.631  25.986  1.00  0.00     0.028 H 
BRANCH  34  37
ATOM     37  C   UNL A   1      32.633  32.822  27.220  1.00  0.00     0.018 C 
ATOM     38  H   UNL A   1      33.355  32.849  26.430  1.00  0.00     0.049 H 
ATOM     39  H   UNL A   1      33.009  32.328  28.092  1.00  0.00     0.049 H 
BRANCH  37  40
ATOM     40  N   UNL A   1      32.314  34.190  27.602  1.00  0.00    -0.352 N 
ATOM     41  C   UNL A   1      32.918  34.993  28.540  1.00  0.00     0.251 C 
ATOM     42  H   UNL A   1      31.559  34.597  27.120  1.00  0.00     0.163 HD
ATOM     43  O   UNL A   1      32.441  36.090  28.816  1.00  0.00    -0.269 OA
BRANCH  41  44
ATOM     44  C   UNL A   1      34.126  34.517  29.252  1.00  0.00     0.039 A 
ATOM     45  C   UNL A   1      35.391  34.634  28.672  1.00  0.00    -0.049 A 
ATOM     46  C   UNL A   1      33.986  33.922  30.510  1.00  0.00    -0.049 A 
ATOM     47  C   UNL A   1      36.481  34.006  29.266  1.00  0.00    -0.053 A 
ATOM     48  H   UNL A   1      35.516  35.183  27.808  1.00  0.00     0.063 H 
ATOM     49  C   UNL A   1      35.100  33.368  31.146  1.00  0.00    -0.053 A 
ATOM     50  H   UNL A   1      33.060  33.892  30.967  1.00  0.00     0.063 H 
ATOM     51  C   UNL A   1      36.348  33.360  30.506  1.00  0.00    -0.014 A 
ATOM     52  H   UNL A   1      37.396  34.016  28.790  1.00  0.00     0.063 H 
ATOM     53  H   UNL A   1      35.004  32.962  32.090  1.00  0.00     0.063 H 
BRANCH  51  54
ATOM     54  C   UNL A   1      37.531  32.686  31.104  1.00  0.00     0.031 A 
ATOM     55  C   UNL A   1      38.000  33.033  32.490  1.00  0.00     0.074 A 
ATOM     56  C   UNL A   1      38.141  31.703  30.414  1.00  0.00     0.049 A 
ATOM     57  N   UNL A   1      38.972  32.501  33.190  1.00  0.00    -0.248 NA
ATOM     58  C   UNL A   1      37.292  34.119  33.185  1.00  0.00    -0.034 C 
ATOM     59  C   UNL A   1      37.776  31.274  29.064  1.00  0.00    -0.036 A 
ATOM     60  N   UNL A   1      39.171  30.864  30.763  1.00  0.00    -0.354 N 
ATOM     61  C   UNL A   1      38.999  33.191  34.394  1.00  0.00     0.074 A 
ATOM     62  C   UNL A   1      37.969  34.204  34.323  1.00  0.00    -0.034 C 
ATOM     63  H   UNL A   1      36.479  34.672  32.870  1.00  0.00     0.065 H 
ATOM     64  C   UNL A   1      38.523  30.213  28.724  1.00  0.00    -0.036 A 
ATOM     65  H   UNL A   1      37.058  31.717  28.468  1.00  0.00     0.065 H 
ATOM     66  C   UNL A   1      39.458  29.923  29.805  1.00  0.00     0.049 A 
ATOM     67  H   UNL A   1      39.655  30.932  31.617  1.00  0.00     0.167 HD
ATOM     68  C   UNL A   1      39.798  32.986  35.468  1.00  0.00     0.037 A 
ATOM     69  H   UNL A   1      37.785  34.903  35.060  1.00  0.00     0.065 H 
ATOM     70  H   UNL A   1      38.448  29.687  27.839  1.00  0.00     0.065 H 
ATOM     71  C   UNL A   1      40.375  28.937  29.795  1.00  0.00     0.037 A 
ATOM     72  C   UNL A   1      40.807  31.963  35.548  1.00  0.00     0.049 A 
ATOM     73  C   UNL A   1      41.273  28.757  30.985  1.00  0.00     0.074 A 
ATOM     74  C   UNL A   1      41.650  31.663  36.605  1.00  0.00    -0.036 A 
ATOM     75  N   UNL A   1      41.110  31.069  34.531  1.00  0.00    -0.354 N 
ATOM     76  N   UNL A   1      41.276  29.407  32.122  1.00  0.00    -0.248 NA
ATOM     77  C   UNL A   1      42.304  27.714  30.886  1.00  0.00    -0.034 C 
ATOM     78  C   UNL A   1      42.489  30.617  36.214  1.00  0.00    -0.036 A 
ATOM     79  H   UNL A   1      41.655  32.132  37.525  1.00  0.00     0.065 H 
ATOM     80  C   UNL A   1      42.141  30.233  34.929  1.00  0.00     0.049 A 
ATOM     81  H   UNL A   1      40.660  31.035  33.656  1.00  0.00     0.167 HD
ATOM     82  C   UNL A   1      42.296  28.847  32.878  1.00  0.00     0.074 A 
ATOM     83  C   UNL A   1      42.880  27.791  32.078  1.00  0.00    -0.034 C 
ATOM     84  H   UNL A   1      42.522  27.086  30.096  1.00  0.00     0.065 H 
ATOM     85  H   UNL A   1      43.241  30.200  36.786  1.00  0.00     0.065 H 
ATOM     86  C   UNL A   1      42.712  29.185  34.123  1.00  0.00     0.037 A 
ATOM     87  H   UNL A   1      43.646  27.176  32.395  1.00  0.00     0.065 H 
BRANCH  68  88
ATOM     88  C   UNL A   1      39.623  33.888  36.656  1.00  0.00     0.064 A 
ATOM     89  C   UNL A   1      38.829  33.514  37.749  1.00  0.00     0.173 A 
ATOM     90  C   UNL A   1      40.319  35.104  36.736  1.00  0.00     0.173 A 
ATOM     91  F   UNL A   1      38.136  32.366  37.719  1.00  0.00    -0.203 F 
ATOM     92  C   UNL A   1      38.725  34.331  38.872  1.00  0.00     0.198 A 
ATOM     93  C   UNL A   1      40.233  35.906  37.871  1.00  0.00     0.198 A 
ATOM     94  F   UNL A   1      41.099  35.505  35.721  1.00  0.00    -0.203 F 
ATOM     95  F   UNL A   1      37.935  33.967  39.893  1.00  0.00    -0.200 F 
ATOM     96  C   UNL A   1      39.434  35.522  38.936  1.00  0.00     0.200 A 
ATOM     97  F   UNL A   1      40.929  37.050  37.936  1.00  0.00    -0.200 F 
ATOM     98  F   UNL A   1      39.344  36.298  40.024  1.00  0.00    -0.200 F 
ENDBRANCH  68  88
BRANCH  71  99
ATOM     99  C   UNL A   1      40.466  28.037  28.618  1.00  0.00     0.064 A 
ATOM    100  C   UNL A   1      41.248  28.383  27.508  1.00  0.00     0.173 A 
ATOM    101  C   UNL A   1      39.809  26.798  28.595  1.00  0.00     0.173 A 
ATOM    102  F   UNL A   1      41.878  29.567  27.477  1.00  0.00    -0.203 F 
ATOM    103  C   UNL A   1      41.370  27.523  26.419  1.00  0.00     0.198 A 
ATOM    104  C   UNL A   1      39.954  25.927  27.518  1.00  0.00     0.198 A 
ATOM    105  F   UNL A   1      39.052  26.420  29.636  1.00  0.00    -0.203 F 
ATOM    106  F   UNL A   1      42.105  27.887  25.360  1.00  0.00    -0.200 F 
ATOM    107  C   UNL A   1      40.732  26.291  26.429  1.00  0.00     0.200 A 
ATOM    108  F   UNL A   1      39.349  24.732  27.540  1.00  0.00    -0.200 F 
ATOM    109  F   UNL A   1      40.864  25.457  25.390  1.00  0.00    -0.200 F 
ENDBRANCH  71  99
BRANCH  86 110
ATOM    110  C   UNL A   1      43.848  28.402  34.710  1.00  0.00     0.064 A 
ATOM    111  C   UNL A   1      45.172  28.850  34.606  1.00  0.00     0.173 A 
ATOM    112  C   UNL A   1      43.601  27.236  35.450  1.00  0.00     0.173 A 
ATOM    113  F   UNL A   1      45.459  29.952  33.897  1.00  0.00    -0.203 F 
ATOM    114  C   UNL A   1      46.211  28.153  35.215  1.00  0.00     0.198 A 
ATOM    115  C   UNL A   1      44.640  26.555  36.079  1.00  0.00     0.198 A 
ATOM    116  F   UNL A   1      42.350  26.772  35.584  1.00  0.00    -0.203 F 
ATOM    117  F   UNL A   1      47.474  28.583  35.081  1.00  0.00    -0.200 F 
ATOM    118  C   UNL A   1      45.944  27.012  35.959  1.00  0.00     0.200 A 
ATOM    119  F   UNL A   1      44.378  25.461  36.808  1.00  0.00    -0.200 F 
ATOM    120  F   UNL A   1      46.944  26.353  36.559  1.00  0.00    -0.200 F 
ENDBRANCH  86 110
ENDBRANCH  51  54
ENDBRANCH  41  44
ENDBRANCH  37  40
ENDBRANCH  34  37
ENDBRANCH  31  34
ENDBRANCH   1  31
TORSDOF 15
ENDMDL
MODEL 2
REMARK VINA RESULT:     -12.0      0.314      1.650
REMARK SMILES O=C(Cc1ccn(C(F)F)c(=O)c1)NCCCCCCNC(=O)c1ccc(-c2c3nc(c(-c4c(F)c(F)c(F)c(F)c4F)c4ccc([nH]4)c(-c4c(F)c(F)c(F)c(F)c4F)c4nc(c(-c5c(F)c(F)c(F)c(F)c5F)c5ccc2[nH]5)C=C4)C=C3)cc1
REMARK SMILES IDX 17 1 16 4 15 7 14 10 1 11 2 12 3 14 4 17 5 18 13 19 6 20
REMARK SMILES IDX 11 22 7 24 12 26 8 27 9 28 10 29 18 31 19 34 20 37 21 40
REMARK SMILES IDX 22 41 23 43 24 44 25 45 86 46 26 47 85 49 27 51 28 54 29 55
REMARK SMILES IDX 79 56 30 57 84 58 78 59 80 60 31 61 83 62 77 64 76 66 32 68
REMARK SMILES IDX 64 71 44 72 63 73 45 74 48 75 62 76 81 77 46 78 47 80 61 82
REMARK SMILES IDX 82 83 49 86 33 88 34 89 42 90 35 91 36 92 40 93 43 94 37 95
REMARK SMILES IDX 38 96 41 97 39 98 65 99 66 100 74 101 67 102 68 103 72 104
REMARK SMILES IDX 75 105 69 106 70 107 73 108 71 109 50 110 51 111 59 112
REMARK SMILES IDX 52 113 53 114 57 115 60 116 54 117 55 118 58 119 56 120
REMARK H PARENT 17 2 17 3 16 5 16 6 15 8 15 9 14 13 3 15 3 16 5 21 13 23 6 25
REMARK H PARENT 8 30 18 32 18 33 19 35 19 36 20 38 20 39 21 42 25 48 86 50
REMARK H PARENT 26 52 85 53 84 63 78 65 80 67 83 69 77 70 45 79 48 81 81 84
REMARK H PARENT 46 85 82 87
REMARK Flexibility Score: inf
ROOT
ATOM      1  C   UNL A   1      32.852  29.794  25.693  1.00  0.00    -0.052 C 
ATOM      2  H   UNL A   1      32.437  29.261  24.863  1.00  0.00     0.027 H 
ATOM      3  H   UNL A   1      33.448  30.638  25.413  1.00  0.00     0.027 H 
ENDROOT
BRANCH   1   4
ATOM      4  C   UNL A   1      33.797  28.843  26.439  1.00  0.00    -0.036 C 
ATOM      5  H   UNL A   1      34.766  28.921  25.994  1.00  0.00     0.028 H 
ATOM      6  H   UNL A   1      33.777  29.145  27.466  1.00  0.00     0.028 H 
BRANCH   4   7
ATOM      7  C   UNL A   1      33.380  27.375  26.418  1.00  0.00     0.017 C 
ATOM      8  H   UNL A   1      34.259  26.765  26.385  1.00  0.00     0.049 H 
ATOM      9  H   UNL A   1      32.808  27.177  27.301  1.00  0.00     0.049 H 
BRANCH   7  10
ATOM     10  N   UNL A   1      32.555  27.068  25.268  1.00  0.00    -0.356 N 
ATOM     11  O   UNL A   1      30.668  26.510  26.454  1.00  0.00    -0.275 OA
ATOM     12  C   UNL A   1      31.245  26.658  25.381  1.00  0.00     0.224 C 
ATOM     13  H   UNL A   1      32.947  27.157  24.369  1.00  0.00     0.163 HD
BRANCH  12  14
ATOM     14  C   UNL A   1      30.556  26.423  24.041  1.00  0.00     0.052 C 
ATOM     15  H   UNL A   1      29.826  25.652  24.178  1.00  0.00     0.042 H 
ATOM     16  H   UNL A   1      31.337  26.167  23.355  1.00  0.00     0.042 H 
BRANCH  14  17
ATOM     17  C   UNL A   1      29.858  27.620  23.437  1.00  0.00    -0.032 A 
ATOM     18  C   UNL A   1      30.590  28.672  22.757  1.00  0.00    -0.042 A 
ATOM     19  C   UNL A   1      28.520  27.730  23.535  1.00  0.00     0.007 A 
ATOM     20  C   UNL A   1      29.944  29.716  22.223  1.00  0.00     0.013 A 
ATOM     21  H   UNL A   1      31.619  28.614  22.683  1.00  0.00     0.064 H 
ATOM     22  C   UNL A   1      27.789  28.898  22.970  1.00  0.00     0.255 A 
ATOM     23  H   UNL A   1      27.989  26.986  24.013  1.00  0.00     0.068 H 
ATOM     24  N   UNL A   1      28.571  29.835  22.317  1.00  0.00    -0.258 N 
ATOM     25  H   UNL A   1      30.483  30.447  21.732  1.00  0.00     0.082 H 
ATOM     26  O   UNL A   1      26.572  28.951  23.112  1.00  0.00    -0.269 OA
BRANCH  24  27
ATOM     27  C   UNL A   1      27.899  30.992  21.785  1.00  0.00     0.321 C 
ATOM     28  F   UNL A   1      27.636  31.900  22.757  1.00  0.00    -0.185 F 
ATOM     29  F   UNL A   1      28.655  31.597  20.838  1.00  0.00    -0.185 F 
ATOM     30  H   UNL A   1      26.980  30.647  21.359  1.00  0.00     0.131 H 
ENDBRANCH  24  27
ENDBRANCH  14  17
ENDBRANCH  12  14
ENDBRANCH   7  10
ENDBRANCH   4   7
ENDBRANCH   1   4
BRANCH   1  31
ATOM     31  C   UNL A   1      31.691  30.358  26.517  1.00  0.00    -0.052 C 
ATOM     32  H   UNL A   1      31.804  30.014  27.525  1.00  0.00     0.027 H 
ATOM     33  H   UNL A   1      30.797  30.011  26.043  1.00  0.00     0.027 H 
BRANCH  31  34
ATOM     34  C   UNL A   1      31.587  31.882  26.548  1.00  0.00    -0.036 C 
ATOM     35  H   UNL A   1      30.679  32.142  27.052  1.00  0.00     0.028 H 
ATOM     36  H   UNL A   1      31.615  32.202  25.527  1.00  0.00     0.028 H 
BRANCH  34  37
ATOM     37  C   UNL A   1      32.737  32.599  27.247  1.00  0.00     0.018 C 
ATOM     38  H   UNL A   1      33.578  32.617  26.584  1.00  0.00     0.049 H 
ATOM     39  H   UNL A   1      32.946  32.059  28.147  1.00  0.00     0.049 H 
BRANCH  37  40
ATOM     40  N   UNL A   1      32.417  33.966  27.626  1.00  0.00    -0.352 N 
ATOM     41  C   UNL A   1      33.011  34.767  28.574  1.00  0.00     0.251 C 
ATOM     42  H   UNL A   1      31.670  34.377  27.135  1.00  0.00     0.163 HD
ATOM     43  O   UNL A   1      32.533  35.864  28.846  1.00  0.00    -0.269 OA
BRANCH  41  44
ATOM     44  C   UNL A   1      34.208  34.285  29.301  1.00  0.00     0.039 A 
ATOM     45  C   UNL A   1      35.492  34.544  28.817  1.00  0.00    -0.049 A 
ATOM     46  C   UNL A   1      34.039  33.542  30.473  1.00  0.00    -0.049 A 
ATOM     47  C   UNL A   1      36.588  33.920  29.403  1.00  0.00    -0.053 A 
ATOM     48  H   UNL A   1      35.626  35.196  28.029  1.00  0.00     0.063 H 
ATOM     49  C   UNL A   1      35.152  32.986  31.112  1.00  0.00    -0.053 A 
ATOM     50  H   UNL A   1      33.094  33.403  30.867  1.00  0.00     0.063 H 
ATOM     51  C   UNL A   1      36.431  33.128  30.552  1.00  0.00    -0.014 A 
ATOM     52  H   UNL A   1      37.525  34.040  28.988  1.00  0.00     0.063 H 
ATOM     53  H   UNL A   1      35.033  32.469  31.997  1.00  0.00     0.063 H 
BRANCH  51  54
ATOM     54  C   UNL A   1      37.623  32.462  31.143  1.00  0.00     0.031 A 
ATOM     55  C   UNL A   1      38.077  32.788  32.540  1.00  0.00     0.074 A 
ATOM     56  C   UNL A   1      38.255  31.506  30.436  1.00  0.00     0.049 A 
ATOM     57  N   UNL A   1      39.054  32.258  33.234  1.00  0.00    -0.248 NA
ATOM     58  C   UNL A   1      37.345  33.845  33.253  1.00  0.00    -0.034 C 
ATOM     59  C   UNL A   1      37.905  31.099  29.075  1.00  0.00    -0.036 A 
ATOM     60  N   UNL A   1      39.297  30.678  30.773  1.00  0.00    -0.354 N 
ATOM     61  C   UNL A   1      39.061  32.922  34.453  1.00  0.00     0.074 A 
ATOM     62  C   UNL A   1      38.013  33.918  34.397  1.00  0.00    -0.034 C 
ATOM     63  H   UNL A   1      36.524  34.390  32.945  1.00  0.00     0.065 H 
ATOM     64  C   UNL A   1      38.673  30.060  28.716  1.00  0.00    -0.036 A 
ATOM     65  H   UNL A   1      37.183  31.542  28.484  1.00  0.00     0.065 H 
ATOM     66  C   UNL A   1      39.607  29.764  29.797  1.00  0.00     0.049 A 
ATOM     67  H   UNL A   1      39.775  30.736  31.631  1.00  0.00     0.167 HD
ATOM     68  C   UNL A   1      39.858  32.708  35.527  1.00  0.00     0.037 A 
ATOM     69  H   UNL A   1      37.812  34.597  35.149  1.00  0.00     0.065 H 
ATOM     70  H   UNL A   1      38.612  29.552  27.819  1.00  0.00     0.065 H 
ATOM     71  C   UNL A   1      40.542  28.794  29.771  1.00  0.00     0.037 A 
ATOM     72  C   UNL A   1      40.884  31.701  35.591  1.00  0.00     0.049 A 
ATOM     73  C   UNL A   1      41.436  28.605  30.963  1.00  0.00     0.074 A 
ATOM     74  C   UNL A   1      41.726  31.394  36.647  1.00  0.00    -0.036 A 
ATOM     75  N   UNL A   1      41.209  30.836  34.557  1.00  0.00    -0.354 N 
ATOM     76  N   UNL A   1      41.420  29.230  32.114  1.00  0.00    -0.248 NA
ATOM     77  C   UNL A   1      42.486  27.583  30.847  1.00  0.00    -0.034 C 
ATOM     78  C   UNL A   1      42.586  30.372  36.239  1.00  0.00    -0.036 A 
ATOM     79  H   UNL A   1      41.717  31.842  37.577  1.00  0.00     0.065 H 
ATOM     80  C   UNL A   1      42.253  30.010  34.943  1.00  0.00     0.049 A 
ATOM     81  H   UNL A   1      40.766  30.812  33.679  1.00  0.00     0.167 HD
ATOM     82  C   UNL A   1      42.445  28.672  32.864  1.00  0.00     0.074 A 
ATOM     83  C   UNL A   1      43.053  27.644  32.045  1.00  0.00    -0.034 C 
ATOM     84  H   UNL A   1      42.720  26.976  30.045  1.00  0.00     0.065 H 
ATOM     85  H   UNL A   1      43.343  29.956  36.806  1.00  0.00     0.065 H 
ATOM     86  C   UNL A   1      42.847  28.990  34.118  1.00  0.00     0.037 A 
ATOM     87  H   UNL A   1      43.828  27.036  32.353  1.00  0.00     0.065 H 
BRANCH  68  88
ATOM     88  C   UNL A   1      39.660  33.580  36.733  1.00  0.00     0.064 A 
ATOM     89  C   UNL A   1      40.252  34.847  36.827  1.00  0.00     0.173 A 
ATOM     90  C   UNL A   1      38.805  33.177  37.771  1.00  0.00     0.173 A 
ATOM     91  F   UNL A   1      41.085  35.276  35.866  1.00  0.00    -0.203 F 
ATOM     92  C   UNL A   1      40.010  35.672  37.922  1.00  0.00     0.198 A 
ATOM     93  C   UNL A   1      38.545  34.015  38.852  1.00  0.00     0.198 A 
ATOM     94  F   UNL A   1      38.206  31.977  37.726  1.00  0.00    -0.203 F 
ATOM     95  F   UNL A   1      40.612  36.867  38.005  1.00  0.00    -0.200 F 
ATOM     96  C   UNL A   1      39.150  35.260  38.929  1.00  0.00     0.200 A 
ATOM     97  F   UNL A   1      37.703  33.620  39.817  1.00  0.00    -0.200 F 
ATOM     98  F   UNL A   1      38.906  36.062  39.974  1.00  0.00    -0.200 F 
ENDBRANCH  68  88
BRANCH  71  99
ATOM     99  C   UNL A   1      40.655  27.922  28.576  1.00  0.00     0.064 A 
ATOM    100  C   UNL A   1      39.923  26.731  28.484  1.00  0.00     0.173 A 
ATOM    101  C   UNL A   1      41.461  28.281  27.485  1.00  0.00     0.173 A 
ATOM    102  F   UNL A   1      39.153  26.338  29.509  1.00  0.00    -0.203 F 
ATOM    103  C   UNL A   1      39.993  25.931  27.346  1.00  0.00     0.198 A 
ATOM    104  C   UNL A   1      41.510  27.493  26.337  1.00  0.00     0.198 A 
ATOM    105  F   UNL A   1      42.178  29.413  27.524  1.00  0.00    -0.203 F 
ATOM    106  F   UNL A   1      39.302  24.784  27.292  1.00  0.00    -0.200 F 
ATOM    107  C   UNL A   1      40.779  26.317  26.269  1.00  0.00     0.200 A 
ATOM    108  F   UNL A   1      42.257  27.880  25.294  1.00  0.00    -0.200 F 
ATOM    109  F   UNL A   1      40.831  25.556  25.168  1.00  0.00    -0.200 F 
ENDBRANCH  71  99
BRANCH  86 110
ATOM    110  C   UNL A   1      43.994  28.215  34.696  1.00  0.00     0.064 A 
ATOM    111  C   UNL A   1      45.311  28.687  34.609  1.00  0.00     0.173 A 
ATOM    112  C   UNL A   1      43.764  27.029  35.410  1.00  0.00     0.173 A 
ATOM    113  F   UNL A   1      45.581  29.810  33.925  1.00  0.00    -0.203 F 
ATOM    114  C   UNL A   1      46.358  27.996  35.209  1.00  0.00     0.198 A 
ATOM    115  C   UNL A   1      44.811  26.354  36.030  1.00  0.00     0.198 A 
ATOM    116  F   UNL A   1      42.521  26.540  35.526  1.00  0.00    -0.203 F 
ATOM    117  F   UNL A   1      47.614  28.451  35.092  1.00  0.00    -0.200 F 
ATOM    118  C   UNL A   1      46.107  26.836  35.927  1.00  0.00     0.200 A 
ATOM    119  F   UNL A   1      44.564  25.240  36.734  1.00  0.00    -0.200 F 
ATOM    120  F   UNL A   1      47.116  26.181  36.519  1.00  0.00    -0.200 F 
ENDBRANCH  86 110
ENDBRANCH  51  54
ENDBRANCH  41  44
ENDBRANCH  37  40
ENDBRANCH  34  37
ENDBRANCH  31  34
ENDBRANCH   1  31
TORSDOF 15
ENDMDL
MODEL 3
REMARK VINA RESULT:     -11.9      0.291      7.525
REMARK SMILES O=C(Cc1ccn(C(F)F)c(=O)c1)NCCCCCCNC(=O)c1ccc(-c2c3nc(c(-c4c(F)c(F)c(F)c(F)c4F)c4ccc([nH]4)c(-c4c(F)c(F)c(F)c(F)c4F)c4nc(c(-c5c(F)c(F)c(F)c(F)c5F)c5ccc2[nH]5)C=C4)C=C3)cc1
REMARK SMILES IDX 17 1 16 4 15 7 14 10 1 11 2 12 3 14 4 17 5 18 13 19 6 20
REMARK SMILES IDX 11 22 7 24 12 26 8 27 9 28 10 29 18 31 19 34 20 37 21 40
REMARK SMILES IDX 22 41 23 43 24 44 25 45 86 46 26 47 85 49 27 51 28 54 29 55
REMARK SMILES IDX 79 56 30 57 84 58 78 59 80 60 31 61 83 62 77 64 76 66 32 68
REMARK SMILES IDX 64 71 44 72 63 73 45 74 48 75 62 76 81 77 46 78 47 80 61 82
REMARK SMILES IDX 82 83 49 86 33 88 34 89 42 90 35 91 36 92 40 93 43 94 37 95
REMARK SMILES IDX 38 96 41 97 39 98 65 99 66 100 74 101 67 102 68 103 72 104
REMARK SMILES IDX 75 105 69 106 70 107 73 108 71 109 50 110 51 111 59 112
REMARK SMILES IDX 52 113 53 114 57 115 60 116 54 117 55 118 58 119 56 120
REMARK H PARENT 17 2 17 3 16 5 16 6 15 8 15 9 14 13 3 15 3 16 5 21 13 23 6 25
REMARK H PARENT 8 30 18 32 18 33 19 35 19 36 20 38 20 39 21 42 25 48 86 50
REMARK H PARENT 26 52 85 53 84 63 78 65 80 67 83 69 77 70 45 79 48 81 81 84
REMARK H PARENT 46 85 82 87
REMARK Flexibility Score: inf
ROOT
ATOM      1  C   UNL A   1      32.344  29.831  27.028  1.00  0.00    -0.052 C 
ATOM      2  H   UNL A   1      32.698  30.434  27.838  1.00  0.00     0.027 H 
ATOM      3  H   UNL A   1      31.612  29.105  27.315  1.00  0.00     0.027 H 
ENDROOT
BRANCH   1   4
ATOM      4  C   UNL A   1      33.534  29.033  26.480  1.00  0.00    -0.036 C 
ATOM      5  H   UNL A   1      33.766  29.409  25.506  1.00  0.00     0.028 H 
ATOM      6  H   UNL A   1      34.331  29.160  27.184  1.00  0.00     0.028 H 
BRANCH   4   7
ATOM      7  C   UNL A   1      33.302  27.528  26.366  1.00  0.00     0.017 C 
ATOM      8  H   UNL A   1      34.248  27.038  26.263  1.00  0.00     0.049 H 
ATOM      9  H   UNL A   1      32.794  27.201  27.249  1.00  0.00     0.049 H 
BRANCH   7  10
ATOM     10  N   UNL A   1      32.477  27.199  25.223  1.00  0.00    -0.356 N 
ATOM     11  O   UNL A   1      30.703  26.366  26.422  1.00  0.00    -0.275 OA
ATOM     12  C   UNL A   1      31.225  26.639  25.346  1.00  0.00     0.224 C 
ATOM     13  H   UNL A   1      32.826  27.383  24.320  1.00  0.00     0.163 HD
BRANCH  12  14
ATOM     14  C   UNL A   1      30.521  26.406  24.013  1.00  0.00     0.052 C 
ATOM     15  H   UNL A   1      29.789  25.639  24.158  1.00  0.00     0.042 H 
ATOM     16  H   UNL A   1      31.293  26.147  23.319  1.00  0.00     0.042 H 
BRANCH  14  17
ATOM     17  C   UNL A   1      29.822  27.607  23.416  1.00  0.00    -0.032 A 
ATOM     18  C   UNL A   1      30.551  28.654  22.726  1.00  0.00    -0.042 A 
ATOM     19  C   UNL A   1      28.486  27.723  23.528  1.00  0.00     0.007 A 
ATOM     20  C   UNL A   1      29.905  29.701  22.199  1.00  0.00     0.013 A 
ATOM     21  H   UNL A   1      31.579  28.592  22.641  1.00  0.00     0.064 H 
ATOM     22  C   UNL A   1      27.754  28.894  22.971  1.00  0.00     0.255 A 
ATOM     23  H   UNL A   1      27.956  26.982  24.013  1.00  0.00     0.068 H 
ATOM     24  N   UNL A   1      28.533  29.827  22.308  1.00  0.00    -0.258 N 
ATOM     25  H   UNL A   1      30.441  30.429  21.701  1.00  0.00     0.082 H 
ATOM     26  O   UNL A   1      26.538  28.953  23.126  1.00  0.00    -0.269 OA
BRANCH  24  27
ATOM     27  C   UNL A   1      27.861  30.987  21.783  1.00  0.00     0.321 C 
ATOM     28  F   UNL A   1      27.652  31.916  22.748  1.00  0.00    -0.185 F 
ATOM     29  F   UNL A   1      28.589  31.562  20.797  1.00  0.00    -0.185 F 
ATOM     30  H   UNL A   1      26.920  30.651  21.399  1.00  0.00     0.131 H 
ENDBRANCH  24  27
ENDBRANCH  14  17
ENDBRANCH  12  14
ENDBRANCH   7  10
ENDBRANCH   4   7
ENDBRANCH   1   4
BRANCH   1  31
ATOM     31  C   UNL A   1      31.646  30.753  26.024  1.00  0.00    -0.052 C 
ATOM     32  H   UNL A   1      30.696  30.321  25.784  1.00  0.00     0.027 H 
ATOM     33  H   UNL A   1      32.307  30.830  25.187  1.00  0.00     0.027 H 
BRANCH  31  34
ATOM     34  C   UNL A   1      31.406  32.184  26.504  1.00  0.00    -0.036 C 
ATOM     35  H   UNL A   1      30.530  32.185  27.117  1.00  0.00     0.028 H 
ATOM     36  H   UNL A   1      31.310  32.780  25.620  1.00  0.00     0.028 H 
BRANCH  34  37
ATOM     37  C   UNL A   1      32.546  32.800  27.307  1.00  0.00     0.018 C 
ATOM     38  H   UNL A   1      33.448  32.715  26.736  1.00  0.00     0.049 H 
ATOM     39  H   UNL A   1      32.605  32.268  28.233  1.00  0.00     0.049 H 
BRANCH  37  40
ATOM     40  N   UNL A   1      32.331  34.203  27.627  1.00  0.00    -0.352 N 
ATOM     41  C   UNL A   1      32.957  34.985  28.571  1.00  0.00     0.251 C 
ATOM     42  H   UNL A   1      31.642  34.658  27.092  1.00  0.00     0.163 HD
ATOM     43  O   UNL A   1      32.565  36.128  28.786  1.00  0.00    -0.269 OA
BRANCH  41  44
ATOM     44  C   UNL A   1      34.079  34.430  29.361  1.00  0.00     0.039 A 
ATOM     45  C   UNL A   1      35.394  34.521  28.898  1.00  0.00    -0.049 A 
ATOM     46  C   UNL A   1      33.807  33.789  30.574  1.00  0.00    -0.049 A 
ATOM     47  C   UNL A   1      36.404  33.825  29.555  1.00  0.00    -0.053 A 
ATOM     48  H   UNL A   1      35.614  35.101  28.074  1.00  0.00     0.063 H 
ATOM     49  C   UNL A   1      34.840  33.164  31.278  1.00  0.00    -0.053 A 
ATOM     50  H   UNL A   1      32.844  33.777  30.948  1.00  0.00     0.063 H 
ATOM     51  C   UNL A   1      36.139  33.133  30.748  1.00  0.00    -0.014 A 
ATOM     52  H   UNL A   1      37.357  33.819  29.160  1.00  0.00     0.063 H 
ATOM     53  H   UNL A   1      34.647  32.723  32.191  1.00  0.00     0.063 H 
BRANCH  51  54
ATOM     54  C   UNL A   1      37.240  32.388  31.414  1.00  0.00     0.031 A 
ATOM     55  C   UNL A   1      37.991  31.306  30.687  1.00  0.00     0.074 A 
ATOM     56  C   UNL A   1      37.609  32.742  32.660  1.00  0.00     0.049 A 
ATOM     57  N   UNL A   1      39.018  30.599  31.092  1.00  0.00    -0.248 NA
ATOM     58  C   UNL A   1      37.533  30.966  29.331  1.00  0.00    -0.034 C 
ATOM     59  C   UNL A   1      36.960  33.777  33.465  1.00  0.00    -0.036 A 
ATOM     60  N   UNL A   1      38.636  32.297  33.455  1.00  0.00    -0.354 N 
ATOM     61  C   UNL A   1      39.319  29.730  30.052  1.00  0.00     0.074 A 
ATOM     62  C   UNL A   1      38.348  29.970  29.008  1.00  0.00    -0.034 C 
ATOM     63  H   UNL A   1      36.775  31.392  28.775  1.00  0.00     0.065 H 
ATOM     64  C   UNL A   1      37.641  33.934  34.609  1.00  0.00    -0.036 A 
ATOM     65  H   UNL A   1      36.113  34.303  33.195  1.00  0.00     0.065 H 
ATOM     66  C   UNL A   1      38.738  32.973  34.646  1.00  0.00     0.049 A 
ATOM     67  H   UNL A   1      39.241  31.566  33.195  1.00  0.00     0.167 HD
ATOM     68  C   UNL A   1      40.324  28.826  29.971  1.00  0.00     0.037 A 
ATOM     69  H   UNL A   1      38.295  29.437  28.125  1.00  0.00     0.065 H 
ATOM     70  H   UNL A   1      37.423  34.625  35.345  1.00  0.00     0.065 H 
ATOM     71  C   UNL A   1      39.614  32.835  35.658  1.00  0.00     0.037 A 
ATOM     72  C   UNL A   1      41.305  28.604  31.001  1.00  0.00     0.049 A 
ATOM     73  C   UNL A   1      40.697  31.798  35.556  1.00  0.00     0.074 A 
ATOM     74  C   UNL A   1      42.376  27.727  30.997  1.00  0.00    -0.036 A 
ATOM     75  N   UNL A   1      41.335  29.266  32.220  1.00  0.00    -0.354 N 
ATOM     76  N   UNL A   1      40.978  30.995  34.560  1.00  0.00    -0.248 NA
ATOM     77  C   UNL A   1      41.576  31.641  36.723  1.00  0.00    -0.034 C 
ATOM     78  C   UNL A   1      43.029  27.828  32.228  1.00  0.00    -0.036 A 
ATOM     79  H   UNL A   1      42.646  27.106  30.218  1.00  0.00     0.065 H 
ATOM     80  C   UNL A   1      42.394  28.800  32.983  1.00  0.00     0.049 A 
ATOM     81  H   UNL A   1      40.699  29.962  32.501  1.00  0.00     0.167 HD
ATOM     82  C   UNL A   1      42.071  30.246  34.972  1.00  0.00     0.074 A 
ATOM     83  C   UNL A   1      42.415  30.703  36.303  1.00  0.00    -0.034 C 
ATOM     84  H   UNL A   1      41.549  32.132  37.631  1.00  0.00     0.065 H 
ATOM     85  H   UNL A   1      43.848  27.272  32.525  1.00  0.00     0.065 H 
ATOM     86  C   UNL A   1      42.726  29.265  34.306  1.00  0.00     0.037 A 
ATOM     87  H   UNL A   1      43.211  30.345  36.853  1.00  0.00     0.065 H 
BRANCH  68  88
ATOM     88  C   UNL A   1      40.424  27.998  28.723  1.00  0.00     0.064 A 
ATOM     89  C   UNL A   1      41.196  28.413  27.628  1.00  0.00     0.173 A 
ATOM     90  C   UNL A   1      39.805  26.741  28.650  1.00  0.00     0.173 A 
ATOM     91  F   UNL A   1      41.801  29.610  27.643  1.00  0.00    -0.203 F 
ATOM     92  C   UNL A   1      41.331  27.606  26.500  1.00  0.00     0.198 A 
ATOM     93  C   UNL A   1      39.964  25.927  27.532  1.00  0.00     0.198 A 
ATOM     94  F   UNL A   1      39.062  26.293  29.674  1.00  0.00    -0.203 F 
ATOM     95  F   UNL A   1      42.049  28.037  25.453  1.00  0.00    -0.200 F 
ATOM     96  C   UNL A   1      40.723  26.361  26.457  1.00  0.00     0.200 A 
ATOM     97  F   UNL A   1      39.385  24.718  27.498  1.00  0.00    -0.200 F 
ATOM     98  F   UNL A   1      40.868  25.581  25.377  1.00  0.00    -0.200 F 
ENDBRANCH  68  88
BRANCH  71  99
ATOM     99  C   UNL A   1      39.505  33.720  36.844  1.00  0.00     0.064 A 
ATOM    100  C   UNL A   1      40.146  34.966  36.871  1.00  0.00     0.173 A 
ATOM    101  C   UNL A   1      38.725  33.361  37.954  1.00  0.00     0.173 A 
ATOM    102  F   UNL A   1      40.919  35.344  35.842  1.00  0.00    -0.203 F 
ATOM    103  C   UNL A   1      40.013  35.819  37.965  1.00  0.00     0.198 A 
ATOM    104  C   UNL A   1      38.570  34.227  39.034  1.00  0.00     0.198 A 
ATOM    105  F   UNL A   1      38.089  32.181  37.973  1.00  0.00    -0.203 F 
ATOM    106  F   UNL A   1      40.656  36.994  37.977  1.00  0.00    -0.200 F 
ATOM    107  C   UNL A   1      39.216  35.454  39.040  1.00  0.00     0.200 A 
ATOM    108  F   UNL A   1      37.787  33.876  40.063  1.00  0.00    -0.200 F 
ATOM    109  F   UNL A   1      39.073  36.282  40.083  1.00  0.00    -0.200 F 
ENDBRANCH  71  99
BRANCH  86 110
ATOM    110  C   UNL A   1      43.890  28.617  34.994  1.00  0.00     0.064 A 
ATOM    111  C   UNL A   1      43.735  27.437  35.734  1.00  0.00     0.173 A 
ATOM    112  C   UNL A   1      45.184  29.139  34.846  1.00  0.00     0.173 A 
ATOM    113  F   UNL A   1      42.516  26.908  35.913  1.00  0.00    -0.203 F 
ATOM    114  C   UNL A   1      44.834  26.806  36.309  1.00  0.00     0.198 A 
ATOM    115  C   UNL A   1      46.283  28.492  35.403  1.00  0.00     0.198 A 
ATOM    116  F   UNL A   1      45.384  30.263  34.142  1.00  0.00    -0.203 F 
ATOM    117  F   UNL A   1      44.661  25.693  37.036  1.00  0.00    -0.200 F 
ATOM    118  C   UNL A   1      46.108  27.328  36.135  1.00  0.00     0.200 A 
ATOM    119  F   UNL A   1      47.515  28.991  35.222  1.00  0.00    -0.200 F 
ATOM    120  F   UNL A   1      47.166  26.709  36.676  1.00  0.00    -0.200 F 
ENDBRANCH  86 110
ENDBRANCH  51  54
ENDBRANCH  41  44
ENDBRANCH  37  40
ENDBRANCH  34  37
ENDBRANCH  31  34
ENDBRANCH   1  31
TORSDOF 15
ENDMDL
MODEL 4
REMARK VINA RESULT:     -11.9      6.358     11.701
REMARK SMILES O=C(Cc1ccn(C(F)F)c(=O)c1)NCCCCCCNC(=O)c1ccc(-c2c3nc(c(-c4c(F)c(F)c(F)c(F)c4F)c4ccc([nH]4)c(-c4c(F)c(F)c(F)c(F)c4F)c4nc(c(-c5c(F)c(F)c(F)c(F)c5F)c5ccc2[nH]5)C=C4)C=C3)cc1
REMARK SMILES IDX 17 1 16 4 15 7 14 10 1 11 2 12 3 14 4 17 5 18 13 19 6 20
REMARK SMILES IDX 11 22 7 24 12 26 8 27 9 28 10 29 18 31 19 34 20 37 21 40
REMARK SMILES IDX 22 41 23 43 24 44 25 45 86 46 26 47 85 49 27 51 28 54 29 55
REMARK SMILES IDX 79 56 30 57 84 58 78 59 80 60 31 61 83 62 77 64 76 66 32 68
REMARK SMILES IDX 64 71 44 72 63 73 45 74 48 75 62 76 81 77 46 78 47 80 61 82
REMARK SMILES IDX 82 83 49 86 33 88 34 89 42 90 35 91 36 92 40 93 43 94 37 95
REMARK SMILES IDX 38 96 41 97 39 98 65 99 66 100 74 101 67 102 68 103 72 104
REMARK SMILES IDX 75 105 69 106 70 107 73 108 71 109 50 110 51 111 59 112
REMARK SMILES IDX 52 113 53 114 57 115 60 116 54 117 55 118 58 119 56 120
REMARK H PARENT 17 2 17 3 16 5 16 6 15 8 15 9 14 13 3 15 3 16 5 21 13 23 6 25
REMARK H PARENT 8 30 18 32 18 33 19 35 19 36 20 38 20 39 21 42 25 48 86 50
REMARK H PARENT 26 52 85 53 84 63 78 65 80 67 83 69 77 70 45 79 48 81 81 84
REMARK H PARENT 46 85 82 87
REMARK Flexibility Score: inf
ROOT
ATOM      1  C   UNL A   1      36.356  21.972  25.626  1.00  0.00    -0.052 C 
ATOM      2  H   UNL A   1      35.314  21.733  25.644  1.00  0.00     0.027 H 
ATOM      3  H   UNL A   1      36.875  21.725  26.528  1.00  0.00     0.027 H 
ENDROOT
BRANCH   1   4
ATOM      4  C   UNL A   1      36.488  23.493  25.471  1.00  0.00    -0.036 C 
ATOM      5  H   UNL A   1      36.535  23.924  26.448  1.00  0.00     0.028 H 
ATOM      6  H   UNL A   1      37.373  23.660  24.892  1.00  0.00     0.028 H 
BRANCH   4   7
ATOM      7  C   UNL A   1      35.347  24.163  24.709  1.00  0.00     0.017 C 
ATOM      8  H   UNL A   1      35.099  25.084  25.196  1.00  0.00     0.049 H 
ATOM      9  H   UNL A   1      35.673  24.336  23.705  1.00  0.00     0.049 H 
BRANCH   7  10
ATOM     10  N   UNL A   1      34.168  23.325  24.665  1.00  0.00    -0.356 N 
ATOM     11  O   UNL A   1      33.810  23.514  22.403  1.00  0.00    -0.275 OA
ATOM     12  C   UNL A   1      33.487  23.062  23.497  1.00  0.00     0.224 C 
ATOM     13  H   UNL A   1      33.839  22.928  25.504  1.00  0.00     0.163 HD
BRANCH  12  14
ATOM     14  C   UNL A   1      32.294  22.129  23.677  1.00  0.00     0.052 C 
ATOM     15  H   UNL A   1      31.627  22.287  22.855  1.00  0.00     0.042 H 
ATOM     16  H   UNL A   1      31.876  22.374  24.631  1.00  0.00     0.042 H 
BRANCH  14  17
ATOM     17  C   UNL A   1      32.613  20.652  23.738  1.00  0.00    -0.032 A 
ATOM     18  C   UNL A   1      33.356  20.073  24.841  1.00  0.00    -0.042 A 
ATOM     19  C   UNL A   1      32.209  19.842  22.742  1.00  0.00     0.007 A 
ATOM     20  C   UNL A   1      33.615  18.760  24.874  1.00  0.00     0.013 A 
ATOM     21  H   UNL A   1      33.687  20.679  25.609  1.00  0.00     0.064 H 
ATOM     22  C   UNL A   1      32.512  18.384  22.749  1.00  0.00     0.255 A 
ATOM     23  H   UNL A   1      31.676  20.242  21.954  1.00  0.00     0.068 H 
ATOM     24  N   UNL A   1      33.203  17.922  23.856  1.00  0.00    -0.258 N 
ATOM     25  H   UNL A   1      34.135  18.367  25.674  1.00  0.00     0.082 H 
ATOM     26  O   UNL A   1      32.136  17.704  21.800  1.00  0.00    -0.269 OA
BRANCH  24  27
ATOM     27  C   UNL A   1      33.538  16.522  23.880  1.00  0.00     0.321 C 
ATOM     28  F   UNL A   1      34.395  16.202  22.880  1.00  0.00    -0.185 F 
ATOM     29  F   UNL A   1      34.121  16.185  25.056  1.00  0.00    -0.185 F 
ATOM     30  H   UNL A   1      32.623  15.982  23.755  1.00  0.00     0.131 H 
ENDBRANCH  24  27
ENDBRANCH  14  17
ENDBRANCH  12  14
ENDBRANCH   7  10
ENDBRANCH   4   7
ENDBRANCH   1   4
BRANCH   1  31
ATOM     31  C   UNL A   1      37.012  21.134  24.524  1.00  0.00    -0.052 C 
ATOM     32  H   UNL A   1      37.663  21.775  23.966  1.00  0.00     0.027 H 
ATOM     33  H   UNL A   1      36.209  20.728  23.946  1.00  0.00     0.027 H 
BRANCH  31  34
ATOM     34  C   UNL A   1      37.829  19.937  25.008  1.00  0.00    -0.036 C 
ATOM     35  H   UNL A   1      38.154  19.389  24.149  1.00  0.00     0.028 H 
ATOM     36  H   UNL A   1      37.183  19.378  25.653  1.00  0.00     0.028 H 
BRANCH  34  37
ATOM     37  C   UNL A   1      39.059  20.284  25.841  1.00  0.00     0.018 C 
ATOM     38  H   UNL A   1      38.746  20.467  26.848  1.00  0.00     0.049 H 
ATOM     39  H   UNL A   1      39.510  21.146  25.397  1.00  0.00     0.049 H 
BRANCH  37  40
ATOM     40  N   UNL A   1      40.061  19.229  25.853  1.00  0.00    -0.352 N 
ATOM     41  C   UNL A   1      41.419  19.323  26.053  1.00  0.00     0.251 C 
ATOM     42  H   UNL A   1      39.719  18.320  25.695  1.00  0.00     0.163 HD
ATOM     43  O   UNL A   1      42.135  18.336  25.912  1.00  0.00    -0.269 OA
BRANCH  41  44
ATOM     44  C   UNL A   1      42.025  20.629  26.398  1.00  0.00     0.039 A 
ATOM     45  C   UNL A   1      42.284  20.969  27.727  1.00  0.00    -0.049 A 
ATOM     46  C   UNL A   1      42.315  21.537  25.375  1.00  0.00    -0.049 A 
ATOM     47  C   UNL A   1      42.668  22.268  28.044  1.00  0.00    -0.053 A 
ATOM     48  H   UNL A   1      42.192  20.259  28.471  1.00  0.00     0.063 H 
ATOM     49  C   UNL A   1      42.785  22.815  25.690  1.00  0.00    -0.053 A 
ATOM     50  H   UNL A   1      42.183  21.263  24.388  1.00  0.00     0.063 H 
ATOM     51  C   UNL A   1      42.916  23.208  27.031  1.00  0.00    -0.014 A 
ATOM     52  H   UNL A   1      42.771  22.542  29.033  1.00  0.00     0.063 H 
ATOM     53  H   UNL A   1      43.035  23.472  24.935  1.00  0.00     0.063 H 
BRANCH  51  54
ATOM     54  C   UNL A   1      43.309  24.593  27.406  1.00  0.00     0.031 A 
ATOM     55  C   UNL A   1      44.690  25.111  27.110  1.00  0.00     0.074 A 
ATOM     56  C   UNL A   1      42.387  25.408  27.954  1.00  0.00     0.049 A 
ATOM     57  N   UNL A   1      45.181  26.310  27.310  1.00  0.00    -0.248 NA
ATOM     58  C   UNL A   1      45.647  24.166  26.516  1.00  0.00    -0.034 C 
ATOM     59  C   UNL A   1      41.015  25.022  28.284  1.00  0.00    -0.036 A 
ATOM     60  N   UNL A   1      42.451  26.736  28.297  1.00  0.00    -0.354 N 
ATOM     61  C   UNL A   1      46.500  26.259  26.880  1.00  0.00     0.074 A 
ATOM     62  C   UNL A   1      46.748  24.904  26.437  1.00  0.00    -0.034 C 
ATOM     63  H   UNL A   1      45.502  23.185  26.233  1.00  0.00     0.065 H 
ATOM     64  C   UNL A   1      40.349  26.100  28.720  1.00  0.00    -0.036 A 
ATOM     65  H   UNL A   1      40.623  24.071  28.196  1.00  0.00     0.065 H 
ATOM     66  C   UNL A   1      41.259  27.240  28.756  1.00  0.00     0.049 A 
ATOM     67  H   UNL A   1      43.272  27.273  28.221  1.00  0.00     0.167 HD
ATOM     68  C   UNL A   1      47.416  27.256  26.841  1.00  0.00     0.037 A 
ATOM     69  H   UNL A   1      47.661  24.556  26.104  1.00  0.00     0.065 H 
ATOM     70  H   UNL A   1      39.352  26.121  28.988  1.00  0.00     0.065 H 
ATOM     71  C   UNL A   1      40.933  28.481  29.165  1.00  0.00     0.037 A 
ATOM     72  C   UNL A   1      47.162  28.610  27.259  1.00  0.00     0.049 A 
ATOM     73  C   UNL A   1      41.979  29.558  29.146  1.00  0.00     0.074 A 
ATOM     74  C   UNL A   1      48.021  29.696  27.234  1.00  0.00    -0.036 A 
ATOM     75  N   UNL A   1      45.959  29.066  27.778  1.00  0.00    -0.354 N 
ATOM     76  N   UNL A   1      43.217  29.499  28.721  1.00  0.00    -0.248 NA
ATOM     77  C   UNL A   1      41.587  30.873  29.674  1.00  0.00    -0.034 C 
ATOM     78  C   UNL A   1      47.352  30.797  27.774  1.00  0.00    -0.036 A 
ATOM     79  H   UNL A   1      48.989  29.692  26.875  1.00  0.00     0.065 H 
ATOM     80  C   UNL A   1      46.061  30.411  28.096  1.00  0.00     0.049 A 
ATOM     81  H   UNL A   1      45.152  28.515  27.903  1.00  0.00     0.167 HD
ATOM     82  C   UNL A   1      43.748  30.766  28.919  1.00  0.00     0.074 A 
ATOM     83  C   UNL A   1      42.693  31.580  29.485  1.00  0.00    -0.034 C 
ATOM     84  H   UNL A   1      40.686  31.168  30.084  1.00  0.00     0.065 H 
ATOM     85  H   UNL A   1      47.752  31.739  27.911  1.00  0.00     0.065 H 
ATOM     86  C   UNL A   1      45.002  31.209  28.657  1.00  0.00     0.037 A 
ATOM     87  H   UNL A   1      42.789  32.582  29.711  1.00  0.00     0.065 H 
BRANCH  68  88
ATOM     88  C   UNL A   1      48.788  26.930  26.330  1.00  0.00     0.064 A 
ATOM     89  C   UNL A   1      49.780  26.406  27.173  1.00  0.00     0.173 A 
ATOM     90  C   UNL A   1      49.092  27.068  24.967  1.00  0.00     0.173 A 
ATOM     91  F   UNL A   1      49.543  26.264  28.485  1.00  0.00    -0.203 F 
ATOM     92  C   UNL A   1      51.029  26.049  26.673  1.00  0.00     0.198 A 
ATOM     93  C   UNL A   1      50.335  26.685  24.466  1.00  0.00     0.198 A 
ATOM     94  F   UNL A   1      48.177  27.556  24.116  1.00  0.00    -0.203 F 
ATOM     95  F   UNL A   1      51.972  25.580  27.503  1.00  0.00    -0.200 F 
ATOM     96  C   UNL A   1      51.303  26.180  25.319  1.00  0.00     0.200 A 
ATOM     97  F   UNL A   1      50.591  26.801  23.156  1.00  0.00    -0.200 F 
ATOM     98  F   UNL A   1      52.500  25.820  24.839  1.00  0.00    -0.200 F 
ENDBRANCH  68  88
BRANCH  71  99
ATOM     99  C   UNL A   1      39.544  28.763  29.605  1.00  0.00     0.064 A 
ATOM    100  C   UNL A   1      39.156  28.551  30.935  1.00  0.00     0.173 A 
ATOM    101  C   UNL A   1      38.591  29.289  28.721  1.00  0.00     0.173 A 
ATOM    102  F   UNL A   1      40.028  28.031  31.812  1.00  0.00    -0.203 F 
ATOM    103  C   UNL A   1      37.865  28.853  31.363  1.00  0.00     0.198 A 
ATOM    104  C   UNL A   1      37.310  29.618  29.157  1.00  0.00     0.198 A 
ATOM    105  F   UNL A   1      38.916  29.514  27.440  1.00  0.00    -0.203 F 
ATOM    106  F   UNL A   1      37.512  28.619  32.634  1.00  0.00    -0.200 F 
ATOM    107  C   UNL A   1      36.946  29.396  30.477  1.00  0.00     0.200 A 
ATOM    108  F   UNL A   1      36.431  30.157  28.301  1.00  0.00    -0.200 F 
ATOM    109  F   UNL A   1      35.712  29.705  30.894  1.00  0.00    -0.200 F 
ENDBRANCH  71  99
BRANCH  86 110
ATOM    110  C   UNL A   1      45.308  32.643  28.969  1.00  0.00     0.064 A 
ATOM    111  C   UNL A   1      45.865  33.020  30.199  1.00  0.00     0.173 A 
ATOM    112  C   UNL A   1      45.116  33.639  27.999  1.00  0.00     0.173 A 
ATOM    113  F   UNL A   1      46.055  32.106  31.162  1.00  0.00    -0.203 F 
ATOM    114  C   UNL A   1      46.211  34.344  30.451  1.00  0.00     0.198 A 
ATOM    115  C   UNL A   1      45.486  34.958  28.245  1.00  0.00     0.198 A 
ATOM    116  F   UNL A   1      44.592  33.327  26.804  1.00  0.00    -0.203 F 
ATOM    117  F   UNL A   1      46.717  34.688  31.643  1.00  0.00    -0.200 F 
ATOM    118  C   UNL A   1      46.031  35.310  29.471  1.00  0.00     0.200 A 
ATOM    119  F   UNL A   1      45.323  35.887  27.293  1.00  0.00    -0.200 F 
ATOM    120  F   UNL A   1      46.381  36.581  29.710  1.00  0.00    -0.200 F 
ENDBRANCH  86 110
ENDBRANCH  51  54
ENDBRANCH  41  44
ENDBRANCH  37  40
ENDBRANCH  34  37
ENDBRANCH  31  34
ENDBRANCH   1  31
TORSDOF 15
ENDMDL
MODEL 5
REMARK VINA RESULT:     -11.8      6.556     10.843
REMARK SMILES O=C(Cc1ccn(C(F)F)c(=O)c1)NCCCCCCNC(=O)c1ccc(-c2c3nc(c(-c4c(F)c(F)c(F)c(F)c4F)c4ccc([nH]4)c(-c4c(F)c(F)c(F)c(F)c4F)c4nc(c(-c5c(F)c(F)c(F)c(F)c5F)c5ccc2[nH]5)C=C4)C=C3)cc1
REMARK SMILES IDX 17 1 16 4 15 7 14 10 1 11 2 12 3 14 4 17 5 18 13 19 6 20
REMARK SMILES IDX 11 22 7 24 12 26 8 27 9 28 10 29 18 31 19 34 20 37 21 40
REMARK SMILES IDX 22 41 23 43 24 44 25 45 86 46 26 47 85 49 27 51 28 54 29 55
REMARK SMILES IDX 79 56 30 57 84 58 78 59 80 60 31 61 83 62 77 64 76 66 32 68
REMARK SMILES IDX 64 71 44 72 63 73 45 74 48 75 62 76 81 77 46 78 47 80 61 82
REMARK SMILES IDX 82 83 49 86 33 88 34 89 42 90 35 91 36 92 40 93 43 94 37 95
REMARK SMILES IDX 38 96 41 97 39 98 65 99 66 100 74 101 67 102 68 103 72 104
REMARK SMILES IDX 75 105 69 106 70 107 73 108 71 109 50 110 51 111 59 112
REMARK SMILES IDX 52 113 53 114 57 115 60 116 54 117 55 118 58 119 56 120
REMARK H PARENT 17 2 17 3 16 5 16 6 15 8 15 9 14 13 3 15 3 16 5 21 13 23 6 25
REMARK H PARENT 8 30 18 32 18 33 19 35 19 36 20 38 20 39 21 42 25 48 86 50
REMARK H PARENT 26 52 85 53 84 63 78 65 80 67 83 69 77 70 45 79 48 81 81 84
REMARK H PARENT 46 85 82 87
REMARK Flexibility Score: inf
ROOT
ATOM      1  C   UNL A   1      37.215  22.232  24.623  1.00  0.00    -0.052 C 
ATOM      2  H   UNL A   1      37.002  22.833  25.482  1.00  0.00     0.027 H 
ATOM      3  H   UNL A   1      38.256  22.178  24.378  1.00  0.00     0.027 H 
ENDROOT
BRANCH   1   4
ATOM      4  C   UNL A   1      36.534  22.883  23.412  1.00  0.00    -0.036 C 
ATOM      5  H   UNL A   1      37.238  23.541  22.949  1.00  0.00     0.028 H 
ATOM      6  H   UNL A   1      36.222  22.080  22.776  1.00  0.00     0.028 H 
BRANCH   4   7
ATOM      7  C   UNL A   1      35.276  23.685  23.736  1.00  0.00     0.017 C 
ATOM      8  H   UNL A   1      35.396  24.145  24.695  1.00  0.00     0.049 H 
ATOM      9  H   UNL A   1      35.144  24.421  22.971  1.00  0.00     0.049 H 
BRANCH   7  10
ATOM     10  N   UNL A   1      34.097  22.845  23.764  1.00  0.00    -0.356 N 
ATOM     11  O   UNL A   1      33.572  23.221  25.968  1.00  0.00    -0.275 OA
ATOM     12  C   UNL A   1      33.328  22.681  24.894  1.00  0.00     0.224 C 
ATOM     13  H   UNL A   1      33.836  22.372  22.941  1.00  0.00     0.163 HD
BRANCH  12  14
ATOM     14  C   UNL A   1      32.115  21.779  24.687  1.00  0.00     0.052 C 
ATOM     15  H   UNL A   1      31.586  22.134  23.827  1.00  0.00     0.042 H 
ATOM     16  H   UNL A   1      31.554  21.835  25.597  1.00  0.00     0.042 H 
BRANCH  14  17
ATOM     17  C   UNL A   1      32.410  20.311  24.479  1.00  0.00    -0.032 A 
ATOM     18  C   UNL A   1      32.915  19.471  25.548  1.00  0.00    -0.042 A 
ATOM     19  C   UNL A   1      32.212  19.758  23.268  1.00  0.00     0.007 A 
ATOM     20  C   UNL A   1      33.159  18.172  25.338  1.00  0.00     0.013 A 
ATOM     21  H   UNL A   1      33.088  19.879  26.482  1.00  0.00     0.064 H 
ATOM     22  C   UNL A   1      32.502  18.320  23.009  1.00  0.00     0.255 A 
ATOM     23  H   UNL A   1      31.849  20.345  22.501  1.00  0.00     0.068 H 
ATOM     24  N   UNL A   1      32.955  17.596  24.098  1.00  0.00    -0.258 N 
ATOM     25  H   UNL A   1      33.506  17.589  26.116  1.00  0.00     0.082 H 
ATOM     26  O   UNL A   1      32.322  17.881  21.878  1.00  0.00    -0.269 OA
BRANCH  24  27
ATOM     27  C   UNL A   1      33.275  16.209  23.875  1.00  0.00     0.321 C 
ATOM     28  F   UNL A   1      34.410  16.076  23.146  1.00  0.00    -0.185 F 
ATOM     29  F   UNL A   1      33.450  15.559  25.050  1.00  0.00    -0.185 F 
ATOM     30  H   UNL A   1      32.452  15.785  23.338  1.00  0.00     0.131 H 
ENDBRANCH  24  27
ENDBRANCH  14  17
ENDBRANCH  12  14
ENDBRANCH   7  10
ENDBRANCH   4   7
ENDBRANCH   1   4
BRANCH   1  31
ATOM     31  C   UNL A   1      36.784  20.796  24.934  1.00  0.00    -0.052 C 
ATOM     32  H   UNL A   1      36.098  20.485  24.174  1.00  0.00     0.027 H 
ATOM     33  H   UNL A   1      36.355  20.823  25.914  1.00  0.00     0.027 H 
BRANCH  31  34
ATOM     34  C   UNL A   1      37.914  19.770  24.998  1.00  0.00    -0.036 C 
ATOM     35  H   UNL A   1      38.187  19.515  23.995  1.00  0.00     0.028 H 
ATOM     36  H   UNL A   1      37.532  18.943  25.560  1.00  0.00     0.028 H 
BRANCH  34  37
ATOM     37  C   UNL A   1      39.171  20.231  25.727  1.00  0.00     0.018 C 
ATOM     38  H   UNL A   1      38.888  20.597  26.692  1.00  0.00     0.049 H 
ATOM     39  H   UNL A   1      39.625  20.991  25.126  1.00  0.00     0.049 H 
BRANCH  37  40
ATOM     40  N   UNL A   1      40.155  19.174  25.903  1.00  0.00    -0.352 N 
ATOM     41  C   UNL A   1      41.506  19.275  26.137  1.00  0.00     0.251 C 
ATOM     42  H   UNL A   1      39.804  18.257  25.847  1.00  0.00     0.163 HD
ATOM     43  O   UNL A   1      42.211  18.269  26.144  1.00  0.00    -0.269 OA
BRANCH  41  44
ATOM     44  C   UNL A   1      42.122  20.606  26.340  1.00  0.00     0.039 A 
ATOM     45  C   UNL A   1      42.272  21.137  27.623  1.00  0.00    -0.049 A 
ATOM     46  C   UNL A   1      42.534  21.343  25.225  1.00  0.00    -0.049 A 
ATOM     47  C   UNL A   1      42.669  22.462  27.777  1.00  0.00    -0.053 A 
ATOM     48  H   UNL A   1      42.090  20.550  28.451  1.00  0.00     0.063 H 
ATOM     49  C   UNL A   1      43.016  22.645  25.391  1.00  0.00    -0.053 A 
ATOM     50  H   UNL A   1      42.483  20.926  24.282  1.00  0.00     0.063 H 
ATOM     51  C   UNL A   1      43.038  23.234  26.664  1.00  0.00    -0.014 A 
ATOM     52  H   UNL A   1      42.691  22.880  28.720  1.00  0.00     0.063 H 
ATOM     53  H   UNL A   1      43.355  23.176  24.573  1.00  0.00     0.063 H 
BRANCH  51  54
ATOM     54  C   UNL A   1      43.442  24.651  26.865  1.00  0.00     0.031 A 
ATOM     55  C   UNL A   1      42.490  25.647  27.471  1.00  0.00     0.074 A 
ATOM     56  C   UNL A   1      44.701  25.021  26.564  1.00  0.00     0.049 A 
ATOM     57  N   UNL A   1      42.697  26.904  27.776  1.00  0.00    -0.248 NA
ATOM     58  C   UNL A   1      41.130  25.177  27.772  1.00  0.00    -0.034 C 
ATOM     59  C   UNL A   1      45.715  24.145  25.976  1.00  0.00    -0.036 A 
ATOM     60  N   UNL A   1      45.354  26.216  26.740  1.00  0.00    -0.354 N 
ATOM     61  C   UNL A   1      41.497  27.375  28.291  1.00  0.00     0.074 A 
ATOM     62  C   UNL A   1      40.553  26.281  28.229  1.00  0.00    -0.034 C 
ATOM     63  H   UNL A   1      40.727  24.234  27.659  1.00  0.00     0.065 H 
ATOM     64  C   UNL A   1      46.877  24.809  25.900  1.00  0.00    -0.036 A 
ATOM     65  H   UNL A   1      45.560  23.172  25.668  1.00  0.00     0.065 H 
ATOM     66  C   UNL A   1      46.678  26.173  26.378  1.00  0.00     0.049 A 
ATOM     67  H   UNL A   1      44.916  27.023  27.092  1.00  0.00     0.167 HD
ATOM     68  C   UNL A   1      41.214  28.604  28.787  1.00  0.00     0.037 A 
ATOM     69  H   UNL A   1      39.560  26.350  28.503  1.00  0.00     0.065 H 
ATOM     70  H   UNL A   1      47.770  24.418  25.558  1.00  0.00     0.065 H 
ATOM     71  C   UNL A   1      47.629  27.126  26.423  1.00  0.00     0.037 A 
ATOM     72  C   UNL A   1      42.161  29.685  28.871  1.00  0.00     0.049 A 
ATOM     73  C   UNL A   1      47.276  28.490  26.943  1.00  0.00     0.074 A 
ATOM     74  C   UNL A   1      41.971  30.958  29.381  1.00  0.00    -0.036 A 
ATOM     75  N   UNL A   1      43.476  29.621  28.435  1.00  0.00    -0.354 N 
ATOM     76  N   UNL A   1      46.141  28.916  27.441  1.00  0.00    -0.248 NA
ATOM     77  C   UNL A   1      48.333  29.511  26.897  1.00  0.00    -0.034 C 
ATOM     78  C   UNL A   1      43.158  31.677  29.217  1.00  0.00    -0.036 A 
ATOM     79  H   UNL A   1      41.103  31.314  29.811  1.00  0.00     0.065 H 
ATOM     80  C   UNL A   1      44.102  30.839  28.645  1.00  0.00     0.049 A 
ATOM     81  H   UNL A   1      43.901  28.829  28.035  1.00  0.00     0.167 HD
ATOM     82  C   UNL A   1      46.349  30.246  27.778  1.00  0.00     0.074 A 
ATOM     83  C   UNL A   1      47.724  30.554  27.445  1.00  0.00    -0.034 C 
ATOM     84  H   UNL A   1      49.297  29.435  26.533  1.00  0.00     0.065 H 
ATOM     85  H   UNL A   1      43.307  32.665  29.478  1.00  0.00     0.065 H 
ATOM     86  C   UNL A   1      45.472  31.131  28.311  1.00  0.00     0.037 A 
ATOM     87  H   UNL A   1      48.173  31.468  27.613  1.00  0.00     0.065 H 
BRANCH  68  88
ATOM     88  C   UNL A   1      39.820  28.857  29.281  1.00  0.00     0.064 A 
ATOM     89  C   UNL A   1      38.815  29.338  28.428  1.00  0.00     0.173 A 
ATOM     90  C   UNL A   1      39.463  28.542  30.601  1.00  0.00     0.173 A 
ATOM     91  F   UNL A   1      39.106  29.664  27.160  1.00  0.00    -0.203 F 
ATOM     92  C   UNL A   1      37.510  29.510  28.883  1.00  0.00     0.198 A 
ATOM     93  C   UNL A   1      38.151  28.690  31.045  1.00  0.00     0.198 A 
ATOM     94  F   UNL A   1      40.384  28.070  31.456  1.00  0.00    -0.203 F 
ATOM     95  F   UNL A   1      36.574  30.000  28.058  1.00  0.00    -0.200 F 
ATOM     96  C   UNL A   1      37.177  29.177  30.188  1.00  0.00     0.200 A 
ATOM     97  F   UNL A   1      37.829  28.355  32.303  1.00  0.00    -0.200 F 
ATOM     98  F   UNL A   1      35.917  29.328  30.618  1.00  0.00    -0.200 F 
ENDBRANCH  68  88
BRANCH  71  99
ATOM     99  C   UNL A   1      49.007  26.804  25.976  1.00  0.00     0.064 A 
ATOM    100  C   UNL A   1      49.907  26.158  26.834  1.00  0.00     0.173 A 
ATOM    101  C   UNL A   1      49.438  27.095  24.673  1.00  0.00     0.173 A 
ATOM    102  F   UNL A   1      49.545  25.878  28.095  1.00  0.00    -0.203 F 
ATOM    103  C   UNL A   1      51.187  25.816  26.406  1.00  0.00     0.198 A 
ATOM    104  C   UNL A   1      50.709  26.727  24.238  1.00  0.00     0.198 A 
ATOM    105  F   UNL A   1      48.612  27.708  23.814  1.00  0.00    -0.203 F 
ATOM    106  F   UNL A   1      52.037  25.220  27.253  1.00  0.00    -0.200 F 
ATOM    107  C   UNL A   1      51.584  26.091  25.105  1.00  0.00     0.200 A 
ATOM    108  F   UNL A   1      51.081  26.980  22.976  1.00  0.00    -0.200 F 
ATOM    109  F   UNL A   1      52.809  25.744  24.688  1.00  0.00    -0.200 F 
ENDBRANCH  71  99
BRANCH  86 110
ATOM    110  C   UNL A   1      45.968  32.520  28.581  1.00  0.00     0.064 A 
ATOM    111  C   UNL A   1      46.612  32.843  29.783  1.00  0.00     0.173 A 
ATOM    112  C   UNL A   1      45.869  33.516  27.597  1.00  0.00     0.173 A 
ATOM    113  F   UNL A   1      46.720  31.929  30.759  1.00  0.00    -0.203 F 
ATOM    114  C   UNL A   1      47.132  34.117  29.995  1.00  0.00     0.198 A 
ATOM    115  C   UNL A   1      46.411  34.781  27.803  1.00  0.00     0.198 A 
ATOM    116  F   UNL A   1      45.267  33.253  26.428  1.00  0.00    -0.203 F 
ATOM    117  F   UNL A   1      47.720  34.413  31.163  1.00  0.00    -0.200 F 
ATOM    118  C   UNL A   1      47.039  35.081  29.002  1.00  0.00     0.200 A 
ATOM    119  F   UNL A   1      46.332  35.707  26.837  1.00  0.00    -0.200 F 
ATOM    120  F   UNL A   1      47.556  36.302  29.202  1.00  0.00    -0.200 F 
ENDBRANCH  86 110
ENDBRANCH  51  54
ENDBRANCH  41  44
ENDBRANCH  37  40
ENDBRANCH  34  37
ENDBRANCH  31  34
ENDBRANCH   1  31
TORSDOF 15
ENDMDL
MODEL 6
REMARK VINA RESULT:     -11.8      0.491      7.452
REMARK SMILES O=C(Cc1ccn(C(F)F)c(=O)c1)NCCCCCCNC(=O)c1ccc(-c2c3nc(c(-c4c(F)c(F)c(F)c(F)c4F)c4ccc([nH]4)c(-c4c(F)c(F)c(F)c(F)c4F)c4nc(c(-c5c(F)c(F)c(F)c(F)c5F)c5ccc2[nH]5)C=C4)C=C3)cc1
REMARK SMILES IDX 17 1 16 4 15 7 14 10 1 11 2 12 3 14 4 17 5 18 13 19 6 20
REMARK SMILES IDX 11 22 7 24 12 26 8 27 9 28 10 29 18 31 19 34 20 37 21 40
REMARK SMILES IDX 22 41 23 43 24 44 25 45 86 46 26 47 85 49 27 51 28 54 29 55
REMARK SMILES IDX 79 56 30 57 84 58 78 59 80 60 31 61 83 62 77 64 76 66 32 68
REMARK SMILES IDX 64 71 44 72 63 73 45 74 48 75 62 76 81 77 46 78 47 80 61 82
REMARK SMILES IDX 82 83 49 86 33 88 34 89 42 90 35 91 36 92 40 93 43 94 37 95
REMARK SMILES IDX 38 96 41 97 39 98 65 99 66 100 74 101 67 102 68 103 72 104
REMARK SMILES IDX 75 105 69 106 70 107 73 108 71 109 50 110 51 111 59 112
REMARK SMILES IDX 52 113 53 114 57 115 60 116 54 117 55 118 58 119 56 120
REMARK H PARENT 17 2 17 3 16 5 16 6 15 8 15 9 14 13 3 15 3 16 5 21 13 23 6 25
REMARK H PARENT 8 30 18 32 18 33 19 35 19 36 20 38 20 39 21 42 25 48 86 50
REMARK H PARENT 26 52 85 53 84 63 78 65 80 67 83 69 77 70 45 79 48 81 81 84
REMARK H PARENT 46 85 82 87
REMARK Flexibility Score: inf
ROOT
ATOM      1  C   UNL A   1      32.265  29.697  27.127  1.00  0.00    -0.052 C 
ATOM      2  H   UNL A   1      32.557  30.232  28.006  1.00  0.00     0.027 H 
ATOM      3  H   UNL A   1      31.479  28.990  27.290  1.00  0.00     0.027 H 
ENDROOT
BRANCH   1   4
ATOM      4  C   UNL A   1      33.472  28.878  26.651  1.00  0.00    -0.036 C 
ATOM      5  H   UNL A   1      33.779  29.260  25.700  1.00  0.00     0.028 H 
ATOM      6  H   UNL A   1      34.221  28.977  27.409  1.00  0.00     0.028 H 
BRANCH   4   7
ATOM      7  C   UNL A   1      33.214  27.380  26.499  1.00  0.00     0.017 C 
ATOM      8  H   UNL A   1      34.153  26.873  26.416  1.00  0.00     0.049 H 
ATOM      9  H   UNL A   1      32.672  27.047  27.360  1.00  0.00     0.049 H 
BRANCH   7  10
ATOM     10  N   UNL A   1      32.419  27.090  25.325  1.00  0.00    -0.356 N 
ATOM     11  O   UNL A   1      30.557  26.358  26.455  1.00  0.00    -0.275 OA
ATOM     12  C   UNL A   1      31.135  26.597  25.399  1.00  0.00     0.224 C 
ATOM     13  H   UNL A   1      32.813  27.251  24.436  1.00  0.00     0.163 HD
BRANCH  12  14
ATOM     14  C   UNL A   1      30.473  26.396  24.040  1.00  0.00     0.052 C 
ATOM     15  H   UNL A   1      29.661  25.711  24.169  1.00  0.00     0.042 H 
ATOM     16  H   UNL A   1      31.246  26.038  23.392  1.00  0.00     0.042 H 
BRANCH  14  17
ATOM     17  C   UNL A   1      29.929  27.642  23.378  1.00  0.00    -0.032 A 
ATOM     18  C   UNL A   1      30.790  28.577  22.678  1.00  0.00    -0.042 A 
ATOM     19  C   UNL A   1      28.611  27.908  23.440  1.00  0.00     0.007 A 
ATOM     20  C   UNL A   1      30.279  29.667  22.093  1.00  0.00     0.013 A 
ATOM     21  H   UNL A   1      31.806  28.399  22.630  1.00  0.00     0.064 H 
ATOM     22  C   UNL A   1      28.030  29.129  22.818  1.00  0.00     0.255 A 
ATOM     23  H   UNL A   1      27.988  27.247  23.932  1.00  0.00     0.068 H 
ATOM     24  N   UNL A   1      28.927  29.945  22.151  1.00  0.00    -0.258 N 
ATOM     25  H   UNL A   1      30.908  30.313  21.589  1.00  0.00     0.082 H 
ATOM     26  O   UNL A   1      26.824  29.326  22.929  1.00  0.00    -0.269 OA
BRANCH  24  27
ATOM     27  C   UNL A   1      28.403  31.151  21.563  1.00  0.00     0.321 C 
ATOM     28  F   UNL A   1      27.583  30.875  20.520  1.00  0.00    -0.185 F 
ATOM     29  F   UNL A   1      27.699  31.865  22.474  1.00  0.00    -0.185 F 
ATOM     30  H   UNL A   1      29.242  31.718  21.219  1.00  0.00     0.131 H 
ENDBRANCH  24  27
ENDBRANCH  14  17
ENDBRANCH  12  14
ENDBRANCH   7  10
ENDBRANCH   4   7
ENDBRANCH   1   4
BRANCH   1  31
ATOM     31  C   UNL A   1      31.713  30.710  26.120  1.00  0.00    -0.052 C 
ATOM     32  H   UNL A   1      30.793  30.323  25.733  1.00  0.00     0.027 H 
ATOM     33  H   UNL A   1      32.473  30.832  25.378  1.00  0.00     0.027 H 
BRANCH  31  34
ATOM     34  C   UNL A   1      31.440  32.107  26.676  1.00  0.00    -0.036 C 
ATOM     35  H   UNL A   1      30.680  32.022  27.425  1.00  0.00     0.028 H 
ATOM     36  H   UNL A   1      31.151  32.708  25.839  1.00  0.00     0.028 H 
BRANCH  34  37
ATOM     37  C   UNL A   1      32.643  32.804  27.301  1.00  0.00     0.018 C 
ATOM     38  H   UNL A   1      33.464  32.742  26.617  1.00  0.00     0.049 H 
ATOM     39  H   UNL A   1      32.852  32.308  28.225  1.00  0.00     0.049 H 
BRANCH  37  40
ATOM     40  N   UNL A   1      32.401  34.205  27.607  1.00  0.00    -0.352 N 
ATOM     41  C   UNL A   1      32.999  35.004  28.555  1.00  0.00     0.251 C 
ATOM     42  H   UNL A   1      31.713  34.645  27.058  1.00  0.00     0.163 HD
ATOM     43  O   UNL A   1      32.586  36.143  28.755  1.00  0.00    -0.269 OA
BRANCH  41  44
ATOM     44  C   UNL A   1      34.118  34.474  29.366  1.00  0.00     0.039 A 
ATOM     45  C   UNL A   1      35.431  34.524  28.895  1.00  0.00    -0.049 A 
ATOM     46  C   UNL A   1      33.843  33.896  30.610  1.00  0.00    -0.049 A 
ATOM     47  C   UNL A   1      36.435  33.848  29.580  1.00  0.00    -0.053 A 
ATOM     48  H   UNL A   1      35.655  35.060  28.042  1.00  0.00     0.063 H 
ATOM     49  C   UNL A   1      34.871  33.292  31.340  1.00  0.00    -0.053 A 
ATOM     50  H   UNL A   1      32.882  33.916  30.988  1.00  0.00     0.063 H 
ATOM     51  C   UNL A   1      36.166  33.218  30.806  1.00  0.00    -0.014 A 
ATOM     52  H   UNL A   1      37.386  33.809  29.182  1.00  0.00     0.063 H 
ATOM     53  H   UNL A   1      34.676  32.899  32.274  1.00  0.00     0.063 H 
BRANCH  51  54
ATOM     54  C   UNL A   1      37.260  32.491  31.504  1.00  0.00     0.031 A 
ATOM     55  C   UNL A   1      38.019  31.390  30.814  1.00  0.00     0.074 A 
ATOM     56  C   UNL A   1      37.616  32.879  32.743  1.00  0.00     0.049 A 
ATOM     57  N   UNL A   1      39.042  30.696  31.249  1.00  0.00    -0.248 NA
ATOM     58  C   UNL A   1      37.575  31.015  29.463  1.00  0.00    -0.034 C 
ATOM     59  C   UNL A   1      36.959  33.935  33.513  1.00  0.00    -0.036 A 
ATOM     60  N   UNL A   1      38.636  32.456  33.560  1.00  0.00    -0.354 N 
ATOM     61  C   UNL A   1      39.354  29.799  30.236  1.00  0.00     0.074 A 
ATOM     62  C   UNL A   1      38.394  30.010  29.175  1.00  0.00    -0.034 C 
ATOM     63  H   UNL A   1      36.823  31.425  28.888  1.00  0.00     0.065 H 
ATOM     64  C   UNL A   1      37.628  34.124  34.660  1.00  0.00    -0.036 A 
ATOM     65  H   UNL A   1      36.115  34.453  33.220  1.00  0.00     0.065 H 
ATOM     66  C   UNL A   1      38.725  33.164  34.734  1.00  0.00     0.049 A 
ATOM     67  H   UNL A   1      39.243  31.718  33.327  1.00  0.00     0.167 HD
ATOM     68  C   UNL A   1      40.360  28.893  30.189  1.00  0.00     0.037 A 
ATOM     69  H   UNL A   1      38.350  29.453  28.307  1.00  0.00     0.065 H 
ATOM     70  H   UNL A   1      37.403  34.834  35.375  1.00  0.00     0.065 H 
ATOM     71  C   UNL A   1      39.591  33.053  35.759  1.00  0.00     0.037 A 
ATOM     72  C   UNL A   1      41.330  28.700  31.235  1.00  0.00     0.049 A 
ATOM     73  C   UNL A   1      40.674  32.015  35.696  1.00  0.00     0.074 A 
ATOM     74  C   UNL A   1      42.401  27.822  31.266  1.00  0.00    -0.036 A 
ATOM     75  N   UNL A   1      41.348  29.394  32.436  1.00  0.00    -0.354 N 
ATOM     76  N   UNL A   1      40.966  31.185  34.724  1.00  0.00    -0.248 NA
ATOM     77  C   UNL A   1      41.542  31.889  36.875  1.00  0.00    -0.034 C 
ATOM     78  C   UNL A   1      43.042  27.957  32.500  1.00  0.00    -0.036 A 
ATOM     79  H   UNL A   1      42.679  27.181  30.506  1.00  0.00     0.065 H 
ATOM     80  C   UNL A   1      42.398  28.949  33.222  1.00  0.00     0.049 A 
ATOM     81  H   UNL A   1      40.708  30.097  32.692  1.00  0.00     0.167 HD
ATOM     82  C   UNL A   1      42.055  30.448  35.168  1.00  0.00     0.074 A 
ATOM     83  C   UNL A   1      42.385  30.941  36.489  1.00  0.00    -0.034 C 
ATOM     84  H   UNL A   1      41.506  32.405  37.769  1.00  0.00     0.065 H 
ATOM     85  H   UNL A   1      43.857  27.410  32.820  1.00  0.00     0.065 H 
ATOM     86  C   UNL A   1      42.716  29.449  34.535  1.00  0.00     0.037 A 
ATOM     87  H   UNL A   1      43.175  30.598  37.058  1.00  0.00     0.065 H 
BRANCH  68  88
ATOM     88  C   UNL A   1      40.473  28.032  28.965  1.00  0.00     0.064 A 
ATOM     89  C   UNL A   1      39.767  26.826  28.850  1.00  0.00     0.173 A 
ATOM     90  C   UNL A   1      41.233  28.455  27.864  1.00  0.00     0.173 A 
ATOM     91  F   UNL A   1      39.034  26.372  29.877  1.00  0.00    -0.203 F 
ATOM     92  C   UNL A   1      39.831  26.067  27.684  1.00  0.00     0.198 A 
ATOM     93  C   UNL A   1      41.273  27.706  26.690  1.00  0.00     0.198 A 
ATOM     94  F   UNL A   1      41.920  29.606  27.919  1.00  0.00    -0.203 F 
ATOM     95  F   UNL A   1      39.172  24.901  27.608  1.00  0.00    -0.200 F 
ATOM     96  C   UNL A   1      40.576  26.512  26.602  1.00  0.00     0.200 A 
ATOM     97  F   UNL A   1      41.984  28.145  25.641  1.00  0.00    -0.200 F 
ATOM     98  F   UNL A   1      40.622  25.788  25.476  1.00  0.00    -0.200 F 
ENDBRANCH  68  88
BRANCH  71  99
ATOM     99  C   UNL A   1      39.470  33.970  36.919  1.00  0.00     0.064 A 
ATOM    100  C   UNL A   1      38.742  33.596  38.057  1.00  0.00     0.173 A 
ATOM    101  C   UNL A   1      40.112  35.217  36.934  1.00  0.00     0.173 A 
ATOM    102  F   UNL A   1      38.095  32.422  38.081  1.00  0.00    -0.203 F 
ATOM    103  C   UNL A   1      38.660  34.437  39.165  1.00  0.00     0.198 A 
ATOM    104  C   UNL A   1      40.052  36.044  38.053  1.00  0.00     0.198 A 
ATOM    105  F   UNL A   1      40.824  35.618  35.870  1.00  0.00    -0.203 F 
ATOM    106  F   UNL A   1      37.938  34.066  40.231  1.00  0.00    -0.200 F 
ATOM    107  C   UNL A   1      39.323  35.655  39.167  1.00  0.00     0.200 A 
ATOM    108  F   UNL A   1      40.708  37.212  38.056  1.00  0.00    -0.200 F 
ATOM    109  F   UNL A   1      39.260  36.453  40.240  1.00  0.00    -0.200 F 
ENDBRANCH  71  99
BRANCH  86 110
ATOM    110  C   UNL A   1      43.873  28.821  35.252  1.00  0.00     0.064 A 
ATOM    111  C   UNL A   1      45.179  29.308  35.097  1.00  0.00     0.173 A 
ATOM    112  C   UNL A   1      43.663  27.773  36.161  1.00  0.00     0.173 A 
ATOM    113  F   UNL A   1      45.430  30.300  34.230  1.00  0.00    -0.203 F 
ATOM    114  C   UNL A   1      46.235  28.764  35.822  1.00  0.00     0.198 A 
ATOM    115  C   UNL A   1      44.718  27.247  36.902  1.00  0.00     0.198 A 
ATOM    116  F   UNL A   1      42.432  27.277  36.348  1.00  0.00    -0.203 F 
ATOM    117  F   UNL A   1      47.479  29.227  35.640  1.00  0.00    -0.200 F 
ATOM    118  C   UNL A   1      46.002  27.741  36.730  1.00  0.00     0.200 A 
ATOM    119  F   UNL A   1      44.489  26.268  37.789  1.00  0.00    -0.200 F 
ATOM    120  F   UNL A   1      47.018  27.230  37.439  1.00  0.00    -0.200 F 
ENDBRANCH  86 110
ENDBRANCH  51  54
ENDBRANCH  41  44
ENDBRANCH  37  40
ENDBRANCH  34  37
ENDBRANCH  31  34
ENDBRANCH   1  31
TORSDOF 15
ENDMDL
MODEL 7
REMARK VINA RESULT:     -11.7      6.511     11.863
REMARK SMILES O=C(Cc1ccn(C(F)F)c(=O)c1)NCCCCCCNC(=O)c1ccc(-c2c3nc(c(-c4c(F)c(F)c(F)c(F)c4F)c4ccc([nH]4)c(-c4c(F)c(F)c(F)c(F)c4F)c4nc(c(-c5c(F)c(F)c(F)c(F)c5F)c5ccc2[nH]5)C=C4)C=C3)cc1
REMARK SMILES IDX 17 1 16 4 15 7 14 10 1 11 2 12 3 14 4 17 5 18 13 19 6 20
REMARK SMILES IDX 11 22 7 24 12 26 8 27 9 28 10 29 18 31 19 34 20 37 21 40
REMARK SMILES IDX 22 41 23 43 24 44 25 45 86 46 26 47 85 49 27 51 28 54 29 55
REMARK SMILES IDX 79 56 30 57 84 58 78 59 80 60 31 61 83 62 77 64 76 66 32 68
REMARK SMILES IDX 64 71 44 72 63 73 45 74 48 75 62 76 81 77 46 78 47 80 61 82
REMARK SMILES IDX 82 83 49 86 33 88 34 89 42 90 35 91 36 92 40 93 43 94 37 95
REMARK SMILES IDX 38 96 41 97 39 98 65 99 66 100 74 101 67 102 68 103 72 104
REMARK SMILES IDX 75 105 69 106 70 107 73 108 71 109 50 110 51 111 59 112
REMARK SMILES IDX 52 113 53 114 57 115 60 116 54 117 55 118 58 119 56 120
REMARK H PARENT 17 2 17 3 16 5 16 6 15 8 15 9 14 13 3 15 3 16 5 21 13 23 6 25
REMARK H PARENT 8 30 18 32 18 33 19 35 19 36 20 38 20 39 21 42 25 48 86 50
REMARK H PARENT 26 52 85 53 84 63 78 65 80 67 83 69 77 70 45 79 48 81 81 84
REMARK H PARENT 46 85 82 87
REMARK Flexibility Score: inf
ROOT
ATOM      1  C   UNL A   1      36.287  21.638  25.600  1.00  0.00    -0.052 C 
ATOM      2  H   UNL A   1      35.342  21.342  25.195  1.00  0.00     0.027 H 
ATOM      3  H   UNL A   1      36.528  21.166  26.529  1.00  0.00     0.027 H 
ENDROOT
BRANCH   1   4
ATOM      4  C   UNL A   1      36.221  23.142  25.899  1.00  0.00    -0.036 C 
ATOM      5  H   UNL A   1      35.862  23.266  26.899  1.00  0.00     0.028 H 
ATOM      6  H   UNL A   1      37.212  23.520  25.755  1.00  0.00     0.028 H 
BRANCH   4   7
ATOM      7  C   UNL A   1      35.318  23.945  24.966  1.00  0.00     0.017 C 
ATOM      8  H   UNL A   1      34.831  24.713  25.531  1.00  0.00     0.049 H 
ATOM      9  H   UNL A   1      35.926  24.364  24.193  1.00  0.00     0.049 H 
BRANCH   7  10
ATOM     10  N   UNL A   1      34.310  23.110  24.347  1.00  0.00    -0.356 N 
ATOM     11  O   UNL A   1      32.671  23.489  25.911  1.00  0.00    -0.275 OA
ATOM     12  C   UNL A   1      33.049  22.950  24.876  1.00  0.00     0.224 C 
ATOM     13  H   UNL A   1      34.537  22.637  23.513  1.00  0.00     0.163 HD
BRANCH  12  14
ATOM     14  C   UNL A   1      32.140  22.053  24.041  1.00  0.00     0.052 C 
ATOM     15  H   UNL A   1      32.228  22.358  23.019  1.00  0.00     0.042 H 
ATOM     16  H   UNL A   1      31.159  22.175  24.450  1.00  0.00     0.042 H 
BRANCH  14  17
ATOM     17  C   UNL A   1      32.430  20.571  24.110  1.00  0.00    -0.032 A 
ATOM     18  C   UNL A   1      32.918  19.941  25.322  1.00  0.00    -0.042 A 
ATOM     19  C   UNL A   1      32.241  19.804  23.021  1.00  0.00     0.007 A 
ATOM     20  C   UNL A   1      33.157  18.623  25.358  1.00  0.00     0.013 A 
ATOM     21  H   UNL A   1      33.083  20.513  26.166  1.00  0.00     0.064 H 
ATOM     22  C   UNL A   1      32.527  18.342  23.034  1.00  0.00     0.255 A 
ATOM     23  H   UNL A   1      31.890  20.241  22.154  1.00  0.00     0.068 H 
ATOM     24  N   UNL A   1      32.964  17.830  24.244  1.00  0.00    -0.258 N 
ATOM     25  H   UNL A   1      33.492  18.193  26.234  1.00  0.00     0.082 H 
ATOM     26  O   UNL A   1      32.356  17.703  22.002  1.00  0.00    -0.269 OA
BRANCH  24  27
ATOM     27  C   UNL A   1      33.278  16.425  24.283  1.00  0.00     0.321 C 
ATOM     28  F   UNL A   1      34.473  16.170  23.698  1.00  0.00    -0.185 F 
ATOM     29  F   UNL A   1      33.331  15.978  25.561  1.00  0.00    -0.185 F 
ATOM     30  H   UNL A   1      32.501  15.919  23.748  1.00  0.00     0.131 H 
ENDBRANCH  24  27
ENDBRANCH  14  17
ENDBRANCH  12  14
ENDBRANCH   7  10
ENDBRANCH   4   7
ENDBRANCH   1   4
BRANCH   1  31
ATOM     31  C   UNL A   1      37.377  21.205  24.616  1.00  0.00    -0.052 C 
ATOM     32  H   UNL A   1      38.081  22.007  24.530  1.00  0.00     0.027 H 
ATOM     33  H   UNL A   1      36.874  20.976  23.700  1.00  0.00     0.027 H 
BRANCH  31  34
ATOM     34  C   UNL A   1      38.145  19.942  25.001  1.00  0.00    -0.036 C 
ATOM     35  H   UNL A   1      38.562  19.522  24.109  1.00  0.00     0.028 H 
ATOM     36  H   UNL A   1      37.438  19.301  25.485  1.00  0.00     0.028 H 
BRANCH  34  37
ATOM     37  C   UNL A   1      39.279  20.150  25.999  1.00  0.00     0.018 C 
ATOM     38  H   UNL A   1      38.862  20.179  26.985  1.00  0.00     0.049 H 
ATOM     39  H   UNL A   1      39.764  21.067  25.741  1.00  0.00     0.049 H 
BRANCH  37  40
ATOM     40  N   UNL A   1      40.285  19.100  25.953  1.00  0.00    -0.352 N 
ATOM     41  C   UNL A   1      41.652  19.200  26.080  1.00  0.00     0.251 C 
ATOM     42  H   UNL A   1      39.940  18.190  25.812  1.00  0.00     0.163 HD
ATOM     43  O   UNL A   1      42.364  18.217  25.897  1.00  0.00    -0.269 OA
BRANCH  41  44
ATOM     44  C   UNL A   1      42.269  20.508  26.396  1.00  0.00     0.039 A 
ATOM     45  C   UNL A   1      42.396  20.938  27.718  1.00  0.00    -0.049 A 
ATOM     46  C   UNL A   1      42.706  21.325  25.349  1.00  0.00    -0.049 A 
ATOM     47  C   UNL A   1      42.796  22.244  27.982  1.00  0.00    -0.053 A 
ATOM     48  H   UNL A   1      42.195  20.291  28.496  1.00  0.00     0.063 H 
ATOM     49  C   UNL A   1      43.190  22.608  25.623  1.00  0.00    -0.053 A 
ATOM     50  H   UNL A   1      42.672  20.982  24.376  1.00  0.00     0.063 H 
ATOM     51  C   UNL A   1      43.191  23.097  26.938  1.00  0.00    -0.014 A 
ATOM     52  H   UNL A   1      42.802  22.589  28.954  1.00  0.00     0.063 H 
ATOM     53  H   UNL A   1      43.548  23.198  24.855  1.00  0.00     0.063 H 
BRANCH  51  54
ATOM     54  C   UNL A   1      43.597  24.492  27.255  1.00  0.00     0.031 A 
ATOM     55  C   UNL A   1      44.992  24.975  26.967  1.00  0.00     0.074 A 
ATOM     56  C   UNL A   1      42.676  25.347  27.740  1.00  0.00     0.049 A 
ATOM     57  N   UNL A   1      45.498  26.175  27.120  1.00  0.00    -0.248 NA
ATOM     58  C   UNL A   1      45.948  23.989  26.442  1.00  0.00    -0.034 C 
ATOM     59  C   UNL A   1      41.291  24.997  28.056  1.00  0.00    -0.036 A 
ATOM     60  N   UNL A   1      42.753  26.689  28.020  1.00  0.00    -0.354 N 
ATOM     61  C   UNL A   1      46.825  26.084  26.724  1.00  0.00     0.074 A 
ATOM     62  C   UNL A   1      47.061  24.706  26.354  1.00  0.00    -0.034 C 
ATOM     63  H   UNL A   1      45.794  22.997  26.204  1.00  0.00     0.065 H 
ATOM     64  C   UNL A   1      40.631  26.105  28.423  1.00  0.00    -0.036 A 
ATOM     65  H   UNL A   1      40.886  24.049  28.005  1.00  0.00     0.065 H 
ATOM     66  C   UNL A   1      41.558  27.232  28.425  1.00  0.00     0.049 A 
ATOM     67  H   UNL A   1      43.583  27.210  27.937  1.00  0.00     0.167 HD
ATOM     68  C   UNL A   1      47.757  27.065  26.659  1.00  0.00     0.037 A 
ATOM     69  H   UNL A   1      47.976  24.329  26.060  1.00  0.00     0.065 H 
ATOM     70  H   UNL A   1      39.629  26.153  28.666  1.00  0.00     0.065 H 
ATOM     71  C   UNL A   1      41.243  28.496  28.765  1.00  0.00     0.037 A 
ATOM     72  C   UNL A   1      47.515  28.441  27.004  1.00  0.00     0.049 A 
ATOM     73  C   UNL A   1      42.306  29.556  28.719  1.00  0.00     0.074 A 
ATOM     74  C   UNL A   1      48.391  29.511  26.946  1.00  0.00    -0.036 A 
ATOM     75  N   UNL A   1      46.307  28.939  27.472  1.00  0.00    -0.354 N 
ATOM     76  N   UNL A   1      43.552  29.458  28.327  1.00  0.00    -0.248 NA
ATOM     77  C   UNL A   1      41.922  30.900  29.173  1.00  0.00    -0.034 C 
ATOM     78  C   UNL A   1      47.728  30.647  27.417  1.00  0.00    -0.036 A 
ATOM     79  H   UNL A   1      49.367  29.476  26.611  1.00  0.00     0.065 H 
ATOM     80  C   UNL A   1      46.423  30.296  27.726  1.00  0.00     0.049 A 
ATOM     81  H   UNL A   1      45.490  28.407  27.604  1.00  0.00     0.167 HD
ATOM     82  C   UNL A   1      44.098  30.725  28.475  1.00  0.00     0.074 A 
ATOM     83  C   UNL A   1      43.043  31.581  28.976  1.00  0.00    -0.034 C 
ATOM     84  H   UNL A   1      41.017  31.229  29.547  1.00  0.00     0.065 H 
ATOM     85  H   UNL A   1      48.139  31.589  27.517  1.00  0.00     0.065 H 
ATOM     86  C   UNL A   1      45.364  31.137  28.223  1.00  0.00     0.037 A 
ATOM     87  H   UNL A   1      43.149  32.592  29.155  1.00  0.00     0.065 H 
BRANCH  68  88
ATOM     88  C   UNL A   1      49.136  26.694  26.196  1.00  0.00     0.064 A 
ATOM     89  C   UNL A   1      49.530  26.858  24.860  1.00  0.00     0.173 A 
ATOM     90  C   UNL A   1      50.098  26.243  27.114  1.00  0.00     0.173 A 
ATOM     91  F   UNL A   1      48.646  27.276  23.942  1.00  0.00    -0.203 F 
ATOM     92  C   UNL A   1      50.831  26.569  24.457  1.00  0.00     0.198 A 
ATOM     93  C   UNL A   1      51.405  25.980  26.711  1.00  0.00     0.198 A 
ATOM     94  F   UNL A   1      49.775  26.077  28.405  1.00  0.00    -0.203 F 
ATOM     95  F   UNL A   1      51.177  26.703  23.168  1.00  0.00    -0.200 F 
ATOM     96  C   UNL A   1      51.770  26.139  25.384  1.00  0.00     0.200 A 
ATOM     97  F   UNL A   1      52.313  25.578  27.611  1.00  0.00    -0.200 F 
ATOM     98  F   UNL A   1      53.025  25.877  24.995  1.00  0.00    -0.200 F 
ENDBRANCH  68  88
BRANCH  71  99
ATOM     99  C   UNL A   1      39.849  28.820  29.159  1.00  0.00     0.064 A 
ATOM    100  C   UNL A   1      38.911  29.234  28.204  1.00  0.00     0.173 A 
ATOM    101  C   UNL A   1      39.414  28.680  30.485  1.00  0.00     0.173 A 
ATOM    102  F   UNL A   1      39.286  29.401  26.926  1.00  0.00    -0.203 F 
ATOM    103  C   UNL A   1      37.591  29.498  28.561  1.00  0.00     0.198 A 
ATOM    104  C   UNL A   1      38.087  28.917  30.835  1.00  0.00     0.198 A 
ATOM    105  F   UNL A   1      40.273  28.282  31.434  1.00  0.00    -0.203 F 
ATOM    106  F   UNL A   1      36.719  29.917  27.633  1.00  0.00    -0.200 F 
ATOM    107  C   UNL A   1      37.177  29.330  29.874  1.00  0.00     0.200 A 
ATOM    108  F   UNL A   1      37.689  28.737  32.102  1.00  0.00    -0.200 F 
ATOM    109  F   UNL A   1      35.903  29.565  30.213  1.00  0.00    -0.200 F 
ENDBRANCH  71  99
BRANCH  86 110
ATOM    110  C   UNL A   1      45.686  32.580  28.471  1.00  0.00     0.064 A 
ATOM    111  C   UNL A   1      45.486  33.552  27.481  1.00  0.00     0.173 A 
ATOM    112  C   UNL A   1      46.125  33.004  29.734  1.00  0.00     0.173 A 
ATOM    113  F   UNL A   1      45.080  33.193  26.254  1.00  0.00    -0.203 F 
ATOM    114  C   UNL A   1      45.721  34.898  27.745  1.00  0.00     0.198 A 
ATOM    115  C   UNL A   1      46.335  34.354  30.001  1.00  0.00     0.198 A 
ATOM    116  F   UNL A   1      46.325  32.113  30.715  1.00  0.00    -0.203 F 
ATOM    117  F   UNL A   1      45.548  35.809  26.776  1.00  0.00    -0.200 F 
ATOM    118  C   UNL A   1      46.135  35.299  29.007  1.00  0.00     0.200 A 
ATOM    119  F   UNL A   1      46.723  34.741  31.225  1.00  0.00    -0.200 F 
ATOM    120  F   UNL A   1      46.344  36.598  29.263  1.00  0.00    -0.200 F 
ENDBRANCH  86 110
ENDBRANCH  51  54
ENDBRANCH  41  44
ENDBRANCH  37  40
ENDBRANCH  34  37
ENDBRANCH  31  34
ENDBRANCH   1  31
TORSDOF 15
ENDMDL
MODEL 8
REMARK VINA RESULT:     -11.6      1.694      2.628
REMARK SMILES O=C(Cc1ccn(C(F)F)c(=O)c1)NCCCCCCNC(=O)c1ccc(-c2c3nc(c(-c4c(F)c(F)c(F)c(F)c4F)c4ccc([nH]4)c(-c4c(F)c(F)c(F)c(F)c4F)c4nc(c(-c5c(F)c(F)c(F)c(F)c5F)c5ccc2[nH]5)C=C4)C=C3)cc1
REMARK SMILES IDX 17 1 16 4 15 7 14 10 1 11 2 12 3 14 4 17 5 18 13 19 6 20
REMARK SMILES IDX 11 22 7 24 12 26 8 27 9 28 10 29 18 31 19 34 20 37 21 40
REMARK SMILES IDX 22 41 23 43 24 44 25 45 86 46 26 47 85 49 27 51 28 54 29 55
REMARK SMILES IDX 79 56 30 57 84 58 78 59 80 60 31 61 83 62 77 64 76 66 32 68
REMARK SMILES IDX 64 71 44 72 63 73 45 74 48 75 62 76 81 77 46 78 47 80 61 82
REMARK SMILES IDX 82 83 49 86 33 88 34 89 42 90 35 91 36 92 40 93 43 94 37 95
REMARK SMILES IDX 38 96 41 97 39 98 65 99 66 100 74 101 67 102 68 103 72 104
REMARK SMILES IDX 75 105 69 106 70 107 73 108 71 109 50 110 51 111 59 112
REMARK SMILES IDX 52 113 53 114 57 115 60 116 54 117 55 118 58 119 56 120
REMARK H PARENT 17 2 17 3 16 5 16 6 15 8 15 9 14 13 3 15 3 16 5 21 13 23 6 25
REMARK H PARENT 8 30 18 32 18 33 19 35 19 36 20 38 20 39 21 42 25 48 86 50
REMARK H PARENT 26 52 85 53 84 63 78 65 80 67 83 69 77 70 45 79 48 81 81 84
REMARK H PARENT 46 85 82 87
REMARK Flexibility Score: inf
ROOT
ATOM      1  C   UNL A   1      33.629  27.517  26.054  1.00  0.00    -0.052 C 
ATOM      2  H   UNL A   1      34.488  27.982  26.490  1.00  0.00     0.027 H 
ATOM      3  H   UNL A   1      32.778  27.481  26.701  1.00  0.00     0.027 H 
ENDROOT
BRANCH   1   4
ATOM      4  C   UNL A   1      33.987  26.056  25.752  1.00  0.00    -0.036 C 
ATOM      5  H   UNL A   1      34.243  25.984  24.716  1.00  0.00     0.028 H 
ATOM      6  H   UNL A   1      34.796  25.803  26.406  1.00  0.00     0.028 H 
BRANCH   4   7
ATOM      7  C   UNL A   1      32.876  25.049  26.037  1.00  0.00     0.017 C 
ATOM      8  H   UNL A   1      33.292  24.063  26.034  1.00  0.00     0.049 H 
ATOM      9  H   UNL A   1      32.451  25.283  26.991  1.00  0.00     0.049 H 
BRANCH   7  10
ATOM     10  N   UNL A   1      31.824  25.116  25.045  1.00  0.00    -0.356 N 
ATOM     11  O   UNL A   1      30.269  26.135  26.396  1.00  0.00    -0.275 OA
ATOM     12  C   UNL A   1      30.588  25.665  25.308  1.00  0.00     0.224 C 
ATOM     13  H   UNL A   1      31.998  24.755  24.146  1.00  0.00     0.163 HD
BRANCH  12  14
ATOM     14  C   UNL A   1      29.645  25.662  24.109  1.00  0.00     0.052 C 
ATOM     15  H   UNL A   1      28.743  25.167  24.404  1.00  0.00     0.042 H 
ATOM     16  H   UNL A   1      30.177  25.167  23.324  1.00  0.00     0.042 H 
BRANCH  14  17
ATOM     17  C   UNL A   1      29.271  27.019  23.558  1.00  0.00    -0.032 A 
ATOM     18  C   UNL A   1      27.912  27.523  23.617  1.00  0.00    -0.042 A 
ATOM     19  C   UNL A   1      30.216  27.788  22.986  1.00  0.00     0.007 A 
ATOM     20  C   UNL A   1      27.612  28.733  23.130  1.00  0.00     0.013 A 
ATOM     21  H   UNL A   1      27.169  26.943  24.040  1.00  0.00     0.064 H 
ATOM     22  C   UNL A   1      29.894  29.125  22.415  1.00  0.00     0.255 A 
ATOM     23  H   UNL A   1      31.187  27.442  22.942  1.00  0.00     0.068 H 
ATOM     24  N   UNL A   1      28.576  29.529  22.543  1.00  0.00    -0.258 N 
ATOM     25  H   UNL A   1      26.641  29.078  23.193  1.00  0.00     0.082 H 
ATOM     26  O   UNL A   1      30.795  29.768  21.886  1.00  0.00    -0.269 OA
BRANCH  24  27
ATOM     27  C   UNL A   1      28.225  30.805  21.974  1.00  0.00     0.321 C 
ATOM     28  F   UNL A   1      27.696  30.664  20.734  1.00  0.00    -0.185 F 
ATOM     29  F   UNL A   1      27.316  31.445  22.749  1.00  0.00    -0.185 F 
ATOM     30  H   UNL A   1      29.127  31.377  21.916  1.00  0.00     0.131 H 
ENDBRANCH  24  27
ENDBRANCH  14  17
ENDBRANCH  12  14
ENDBRANCH   7  10
ENDBRANCH   4   7
ENDBRANCH   1   4
BRANCH   1  31
ATOM     31  C   UNL A   1      33.201  28.358  24.847  1.00  0.00    -0.052 C 
ATOM     32  H   UNL A   1      32.515  27.776  24.266  1.00  0.00     0.027 H 
ATOM     33  H   UNL A   1      34.102  28.605  24.326  1.00  0.00     0.027 H 
BRANCH  31  34
ATOM     34  C   UNL A   1      32.527  29.688  25.179  1.00  0.00    -0.036 C 
ATOM     35  H   UNL A   1      31.499  29.619  24.893  1.00  0.00     0.028 H 
ATOM     36  H   UNL A   1      33.071  30.438  24.642  1.00  0.00     0.028 H 
BRANCH  34  37
ATOM     37  C   UNL A   1      32.583  30.096  26.647  1.00  0.00     0.018 C 
ATOM     38  H   UNL A   1      33.512  29.757  27.058  1.00  0.00     0.049 H 
ATOM     39  H   UNL A   1      31.742  29.649  27.133  1.00  0.00     0.049 H 
BRANCH  37  40
ATOM     40  N   UNL A   1      32.486  31.534  26.848  1.00  0.00    -0.352 N 
ATOM     41  C   UNL A   1      33.365  32.384  27.479  1.00  0.00     0.251 C 
ATOM     42  H   UNL A   1      31.678  31.958  26.482  1.00  0.00     0.163 HD
ATOM     43  O   UNL A   1      33.065  33.561  27.660  1.00  0.00    -0.269 OA
BRANCH  41  44
ATOM     44  C   UNL A   1      34.660  31.869  27.978  1.00  0.00     0.039 A 
ATOM     45  C   UNL A   1      34.793  30.540  28.384  1.00  0.00    -0.049 A 
ATOM     46  C   UNL A   1      35.752  32.739  28.063  1.00  0.00    -0.049 A 
ATOM     47  C   UNL A   1      35.955  30.130  29.030  1.00  0.00    -0.053 A 
ATOM     48  H   UNL A   1      34.033  29.865  28.205  1.00  0.00     0.063 H 
ATOM     49  C   UNL A   1      36.950  32.299  28.634  1.00  0.00    -0.053 A 
ATOM     50  H   UNL A   1      35.673  33.704  27.704  1.00  0.00     0.063 H 
ATOM     51  C   UNL A   1      37.044  31.006  29.170  1.00  0.00    -0.014 A 
ATOM     52  H   UNL A   1      36.016  29.173  29.411  1.00  0.00     0.063 H 
ATOM     53  H   UNL A   1      37.767  32.929  28.663  1.00  0.00     0.063 H 
BRANCH  51  54
ATOM     54  C   UNL A   1      38.264  30.539  29.880  1.00  0.00     0.031 A 
ATOM     55  C   UNL A   1      38.533  30.947  31.303  1.00  0.00     0.074 A 
ATOM     56  C   UNL A   1      39.096  29.683  29.257  1.00  0.00     0.049 A 
ATOM     57  N   UNL A   1      39.513  30.582  32.094  1.00  0.00    -0.248 NA
ATOM     58  C   UNL A   1      37.587  31.887  31.922  1.00  0.00    -0.034 C 
ATOM     59  C   UNL A   1      38.939  29.212  27.881  1.00  0.00    -0.036 A 
ATOM     60  N   UNL A   1      40.218  29.031  29.706  1.00  0.00    -0.354 N 
ATOM     61  C   UNL A   1      39.307  31.253  33.292  1.00  0.00     0.074 A 
ATOM     62  C   UNL A   1      38.129  32.075  33.118  1.00  0.00    -0.034 C 
ATOM     63  H   UNL A   1      36.724  32.295  31.529  1.00  0.00     0.065 H 
ATOM     64  C   UNL A   1      39.885  28.300  27.618  1.00  0.00    -0.036 A 
ATOM     65  H   UNL A   1      38.214  29.532  27.218  1.00  0.00     0.065 H 
ATOM     66  C   UNL A   1      40.751  28.164  28.784  1.00  0.00     0.049 A 
ATOM     67  H   UNL A   1      40.601  29.171  30.601  1.00  0.00     0.167 HD
ATOM     68  C   UNL A   1      40.026  31.178  34.438  1.00  0.00     0.037 A 
ATOM     69  H   UNL A   1      37.759  32.723  33.831  1.00  0.00     0.065 H 
ATOM     70  H   UNL A   1      39.985  27.778  26.733  1.00  0.00     0.065 H 
ATOM     71  C   UNL A   1      41.821  27.350  28.866  1.00  0.00     0.037 A 
ATOM     72  C   UNL A   1      41.184  30.342  34.618  1.00  0.00     0.049 A 
ATOM     73  C   UNL A   1      42.621  27.314  30.136  1.00  0.00     0.074 A 
ATOM     74  C   UNL A   1      41.962  30.180  35.751  1.00  0.00    -0.036 A 
ATOM     75  N   UNL A   1      41.730  29.525  33.639  1.00  0.00    -0.354 N 
ATOM     76  N   UNL A   1      42.405  27.943  31.266  1.00  0.00    -0.248 NA
ATOM     77  C   UNL A   1      43.821  26.465  30.141  1.00  0.00    -0.034 C 
ATOM     78  C   UNL A   1      43.002  29.298  35.447  1.00  0.00    -0.036 A 
ATOM     79  H   UNL A   1      41.801  30.633  36.665  1.00  0.00     0.065 H 
ATOM     80  C   UNL A   1      42.848  28.875  34.136  1.00  0.00     0.049 A 
ATOM     81  H   UNL A   1      41.377  29.423  32.726  1.00  0.00     0.167 HD
ATOM     82  C   UNL A   1      43.431  27.558  32.117  1.00  0.00     0.074 A 
ATOM     83  C   UNL A   1      44.261  26.627  31.381  1.00  0.00    -0.034 C 
ATOM     84  H   UNL A   1      44.217  25.892  29.378  1.00  0.00     0.065 H 
ATOM     85  H   UNL A   1      43.758  29.011  36.089  1.00  0.00     0.065 H 
ATOM     86  C   UNL A   1      43.664  27.949  33.394  1.00  0.00     0.037 A 
ATOM     87  H   UNL A   1      45.088  26.150  31.773  1.00  0.00     0.065 H 
BRANCH  68  88
ATOM     88  C   UNL A   1      39.588  32.022  35.598  1.00  0.00     0.064 A 
ATOM     89  C   UNL A   1      40.039  33.340  35.758  1.00  0.00     0.173 A 
ATOM     90  C   UNL A   1      38.646  31.536  36.518  1.00  0.00     0.173 A 
ATOM     91  F   UNL A   1      40.947  33.850  34.912  1.00  0.00    -0.203 F 
ATOM     92  C   UNL A   1      39.576  34.135  36.804  1.00  0.00     0.198 A 
ATOM     93  C   UNL A   1      38.166  32.342  37.548  1.00  0.00     0.198 A 
ATOM     94  F   UNL A   1      38.175  30.285  36.406  1.00  0.00    -0.203 F 
ATOM     95  F   UNL A   1      40.046  35.382  36.955  1.00  0.00    -0.200 F 
ATOM     96  C   UNL A   1      38.634  33.638  37.692  1.00  0.00     0.200 A 
ATOM     97  F   UNL A   1      37.245  31.864  38.397  1.00  0.00    -0.200 F 
ATOM     98  F   UNL A   1      38.179  34.410  38.688  1.00  0.00    -0.200 F 
ENDBRANCH  68  88
BRANCH  71  99
ATOM     99  C   UNL A   1      42.175  26.492  27.708  1.00  0.00     0.064 A 
ATOM    100  C   UNL A   1      43.165  26.887  26.798  1.00  0.00     0.173 A 
ATOM    101  C   UNL A   1      41.565  25.244  27.511  1.00  0.00     0.173 A 
ATOM    102  F   UNL A   1      43.763  28.080  26.935  1.00  0.00    -0.203 F 
ATOM    103  C   UNL A   1      43.531  26.066  25.733  1.00  0.00     0.198 A 
ATOM    104  C   UNL A   1      41.951  24.413  26.462  1.00  0.00     0.198 A 
ATOM    105  F   UNL A   1      40.615  24.821  28.357  1.00  0.00    -0.203 F 
ATOM    106  F   UNL A   1      44.463  26.477  24.863  1.00  0.00    -0.200 F 
ATOM    107  C   UNL A   1      42.931  24.825  25.572  1.00  0.00     0.200 A 
ATOM    108  F   UNL A   1      41.380  23.209  26.320  1.00  0.00    -0.200 F 
ATOM    109  F   UNL A   1      43.296  24.029  24.559  1.00  0.00    -0.200 F 
ENDBRANCH  71  99
BRANCH  86 110
ATOM    110  C   UNL A   1      44.857  27.367  34.090  1.00  0.00     0.064 A 
ATOM    111  C   UNL A   1      46.081  28.050  34.133  1.00  0.00     0.173 A 
ATOM    112  C   UNL A   1      44.754  26.153  34.785  1.00  0.00     0.173 A 
ATOM    113  F   UNL A   1      46.231  29.208  33.473  1.00  0.00    -0.203 F 
ATOM    114  C   UNL A   1      47.162  27.534  34.842  1.00  0.00     0.198 A 
ATOM    115  C   UNL A   1      45.830  25.652  35.513  1.00  0.00     0.198 A 
ATOM    116  F   UNL A   1      43.603  25.465  34.778  1.00  0.00    -0.203 F 
ATOM    117  F   UNL A   1      48.331  28.190  34.849  1.00  0.00    -0.200 F 
ATOM    118  C   UNL A   1      47.033  26.341  35.539  1.00  0.00     0.200 A 
ATOM    119  F   UNL A   1      45.699  24.506  36.196  1.00  0.00    -0.200 F 
ATOM    120  F   UNL A   1      48.070  25.855  36.234  1.00  0.00    -0.200 F 
ENDBRANCH  86 110
ENDBRANCH  51  54
ENDBRANCH  41  44
ENDBRANCH  37  40
ENDBRANCH  34  37
ENDBRANCH  31  34
ENDBRANCH   1  31
TORSDOF 15
ENDMDL
MODEL 9
REMARK VINA RESULT:     -11.3      2.382      8.117
REMARK SMILES O=C(Cc1ccn(C(F)F)c(=O)c1)NCCCCCCNC(=O)c1ccc(-c2c3nc(c(-c4c(F)c(F)c(F)c(F)c4F)c4ccc([nH]4)c(-c4c(F)c(F)c(F)c(F)c4F)c4nc(c(-c5c(F)c(F)c(F)c(F)c5F)c5ccc2[nH]5)C=C4)C=C3)cc1
REMARK SMILES IDX 17 1 16 4 15 7 14 10 1 11 2 12 3 14 4 17 5 18 13 19 6 20
REMARK SMILES IDX 11 22 7 24 12 26 8 27 9 28 10 29 18 31 19 34 20 37 21 40
REMARK SMILES IDX 22 41 23 43 24 44 25 45 86 46 26 47 85 49 27 51 28 54 29 55
REMARK SMILES IDX 79 56 30 57 84 58 78 59 80 60 31 61 83 62 77 64 76 66 32 68
REMARK SMILES IDX 64 71 44 72 63 73 45 74 48 75 62 76 81 77 46 78 47 80 61 82
REMARK SMILES IDX 82 83 49 86 33 88 34 89 42 90 35 91 36 92 40 93 43 94 37 95
REMARK SMILES IDX 38 96 41 97 39 98 65 99 66 100 74 101 67 102 68 103 72 104
REMARK SMILES IDX 75 105 69 106 70 107 73 108 71 109 50 110 51 111 59 112
REMARK SMILES IDX 52 113 53 114 57 115 60 116 54 117 55 118 58 119 56 120
REMARK H PARENT 17 2 17 3 16 5 16 6 15 8 15 9 14 13 3 15 3 16 5 21 13 23 6 25
REMARK H PARENT 8 30 18 32 18 33 19 35 19 36 20 38 20 39 21 42 25 48 86 50
REMARK H PARENT 26 52 85 53 84 63 78 65 80 67 83 69 77 70 45 79 48 81 81 84
REMARK H PARENT 46 85 82 87
REMARK Flexibility Score: inf
ROOT
ATOM      1  C   UNL A   1      35.178  33.488  28.851  1.00  0.00    -0.052 C 
ATOM      2  H   UNL A   1      36.106  33.312  28.349  1.00  0.00     0.027 H 
ATOM      3  H   UNL A   1      35.287  33.846  29.854  1.00  0.00     0.027 H 
ENDROOT
BRANCH   1   4
ATOM      4  C   UNL A   1      34.442  32.146  28.964  1.00  0.00    -0.036 C 
ATOM      5  H   UNL A   1      34.928  31.563  29.717  1.00  0.00     0.028 H 
ATOM      6  H   UNL A   1      33.425  32.381  29.202  1.00  0.00     0.028 H 
BRANCH   4   7
ATOM      7  C   UNL A   1      34.401  31.324  27.678  1.00  0.00     0.017 C 
ATOM      8  H   UNL A   1      33.888  31.885  26.924  1.00  0.00     0.049 H 
ATOM      9  H   UNL A   1      35.409  31.117  27.383  1.00  0.00     0.049 H 
BRANCH   7  10
ATOM     10  N   UNL A   1      33.717  30.063  27.870  1.00  0.00    -0.356 N 
ATOM     11  O   UNL A   1      31.937  30.530  26.494  1.00  0.00    -0.275 OA
ATOM     12  C   UNL A   1      32.524  29.763  27.251  1.00  0.00     0.224 C 
ATOM     13  H   UNL A   1      34.121  29.393  28.468  1.00  0.00     0.163 HD
BRANCH  12  14
ATOM     14  C   UNL A   1      31.999  28.367  27.569  1.00  0.00     0.052 C 
ATOM     15  H   UNL A   1      31.028  28.473  28.006  1.00  0.00     0.042 H 
ATOM     16  H   UNL A   1      32.725  27.927  28.222  1.00  0.00     0.042 H 
BRANCH  14  17
ATOM     17  C   UNL A   1      31.879  27.422  26.395  1.00  0.00    -0.032 A 
ATOM     18  C   UNL A   1      30.652  26.700  26.114  1.00  0.00    -0.042 A 
ATOM     19  C   UNL A   1      32.936  27.229  25.584  1.00  0.00     0.007 A 
ATOM     20  C   UNL A   1      30.571  25.877  25.062  1.00  0.00     0.013 A 
ATOM     21  H   UNL A   1      29.834  26.822  26.732  1.00  0.00     0.064 H 
ATOM     22  C   UNL A   1      32.871  26.297  24.424  1.00  0.00     0.255 A 
ATOM     23  H   UNL A   1      33.813  27.741  25.772  1.00  0.00     0.068 H 
ATOM     24  N   UNL A   1      31.651  25.675  24.224  1.00  0.00    -0.258 N 
ATOM     25  H   UNL A   1      29.685  25.382  24.873  1.00  0.00     0.082 H 
ATOM     26  O   UNL A   1      33.876  26.148  23.737  1.00  0.00    -0.269 OA
BRANCH  24  27
ATOM     27  C   UNL A   1      31.564  24.744  23.128  1.00  0.00     0.321 C 
ATOM     28  F   UNL A   1      30.516  23.898  23.283  1.00  0.00    -0.185 F 
ATOM     29  F   UNL A   1      31.407  25.397  21.952  1.00  0.00    -0.185 F 
ATOM     30  H   UNL A   1      32.477  24.187  23.122  1.00  0.00     0.131 H 
ENDBRANCH  24  27
ENDBRANCH  14  17
ENDBRANCH  12  14
ENDBRANCH   7  10
ENDBRANCH   4   7
ENDBRANCH   1   4
BRANCH   1  31
ATOM     31  C   UNL A   1      34.433  34.591  28.093  1.00  0.00    -0.052 C 
ATOM     32  H   UNL A   1      34.183  34.213  27.123  1.00  0.00     0.027 H 
ATOM     33  H   UNL A   1      35.096  35.430  28.068  1.00  0.00     0.027 H 
BRANCH  31  34
ATOM     34  C   UNL A   1      33.148  35.088  28.752  1.00  0.00    -0.036 C 
ATOM     35  H   UNL A   1      32.814  34.336  29.435  1.00  0.00     0.028 H 
ATOM     36  H   UNL A   1      32.460  35.277  27.954  1.00  0.00     0.028 H 
BRANCH  34  37
ATOM     37  C   UNL A   1      33.276  36.400  29.519  1.00  0.00     0.018 C 
ATOM     38  H   UNL A   1      32.993  37.202  28.868  1.00  0.00     0.049 H 
ATOM     39  H   UNL A   1      34.293  36.481  29.839  1.00  0.00     0.049 H 
BRANCH  37  40
ATOM     40  N   UNL A   1      32.442  36.453  30.709  1.00  0.00    -0.352 N 
ATOM     41  C   UNL A   1      32.605  35.810  31.915  1.00  0.00     0.251 C 
ATOM     42  H   UNL A   1      31.648  37.031  30.644  1.00  0.00     0.163 HD
ATOM     43  O   UNL A   1      31.734  35.880  32.777  1.00  0.00    -0.269 OA
BRANCH  41  44
ATOM     44  C   UNL A   1      33.818  34.996  32.157  1.00  0.00     0.039 A 
ATOM     45  C   UNL A   1      33.720  33.629  32.426  1.00  0.00    -0.049 A 
ATOM     46  C   UNL A   1      35.070  35.617  32.139  1.00  0.00    -0.049 A 
ATOM     47  C   UNL A   1      34.846  32.927  32.842  1.00  0.00    -0.053 A 
ATOM     48  H   UNL A   1      32.817  33.143  32.315  1.00  0.00     0.063 H 
ATOM     49  C   UNL A   1      36.215  34.887  32.474  1.00  0.00    -0.053 A 
ATOM     50  H   UNL A   1      35.150  36.613  31.878  1.00  0.00     0.063 H 
ATOM     51  C   UNL A   1      36.105  33.549  32.879  1.00  0.00    -0.014 A 
ATOM     52  H   UNL A   1      34.755  31.940  33.128  1.00  0.00     0.063 H 
ATOM     53  H   UNL A   1      37.143  35.335  32.424  1.00  0.00     0.063 H 
BRANCH  51  54
ATOM     54  C   UNL A   1      37.285  32.772  33.345  1.00  0.00     0.031 A 
ATOM     55  C   UNL A   1      37.926  31.736  32.462  1.00  0.00     0.074 A 
ATOM     56  C   UNL A   1      37.822  33.057  34.546  1.00  0.00     0.049 A 
ATOM     57  N   UNL A   1      38.996  31.013  32.683  1.00  0.00    -0.248 NA
ATOM     58  C   UNL A   1      37.285  31.471  31.165  1.00  0.00    -0.034 C 
ATOM     59  C   UNL A   1      37.293  34.043  35.489  1.00  0.00    -0.036 A 
ATOM     60  N   UNL A   1      38.947  32.574  35.166  1.00  0.00    -0.354 N 
ATOM     61  C   UNL A   1      39.149  30.205  31.564  1.00  0.00     0.074 A 
ATOM     62  C   UNL A   1      38.045  30.498  30.677  1.00  0.00    -0.034 C 
ATOM     63  H   UNL A   1      36.460  31.924  30.743  1.00  0.00     0.065 H 
ATOM     64  C   UNL A   1      38.125  34.139  36.536  1.00  0.00    -0.036 A 
ATOM     65  H   UNL A   1      36.419  34.579  35.368  1.00  0.00     0.065 H 
ATOM     66  C   UNL A   1      39.213  33.182  36.368  1.00  0.00     0.049 A 
ATOM     67  H   UNL A   1      39.508  31.861  34.786  1.00  0.00     0.167 HD
ATOM     68  C   UNL A   1      40.131  29.311  31.295  1.00  0.00     0.037 A 
ATOM     69  H   UNL A   1      37.870  30.015  29.782  1.00  0.00     0.065 H 
ATOM     70  H   UNL A   1      38.013  34.786  37.333  1.00  0.00     0.065 H 
ATOM     71  C   UNL A   1      40.220  32.991  37.242  1.00  0.00     0.037 A 
ATOM     72  C   UNL A   1      41.243  29.036  32.167  1.00  0.00     0.049 A 
ATOM     73  C   UNL A   1      41.275  31.967  36.934  1.00  0.00     0.074 A 
ATOM     74  C   UNL A   1      42.300  28.165  31.967  1.00  0.00    -0.036 A 
ATOM     75  N   UNL A   1      41.442  29.629  33.405  1.00  0.00    -0.354 N 
ATOM     76  N   UNL A   1      41.415  31.222  35.865  1.00  0.00    -0.248 NA
ATOM     77  C   UNL A   1      42.306  31.748  37.958  1.00  0.00    -0.034 C 
ATOM     78  C   UNL A   1      43.117  28.200  33.100  1.00  0.00    -0.036 A 
ATOM     79  H   UNL A   1      42.459  27.590  31.124  1.00  0.00     0.065 H 
ATOM     80  C   UNL A   1      42.594  29.126  33.989  1.00  0.00     0.049 A 
ATOM     81  H   UNL A   1      40.853  30.305  33.810  1.00  0.00     0.167 HD
ATOM     82  C   UNL A   1      42.552  30.457  36.081  1.00  0.00     0.074 A 
ATOM     83  C   UNL A   1      43.076  30.840  37.375  1.00  0.00    -0.034 C 
ATOM     84  H   UNL A   1      42.405  32.188  38.888  1.00  0.00     0.065 H 
ATOM     85  H   UNL A   1      43.966  27.632  33.250  1.00  0.00     0.065 H 
ATOM     86  C   UNL A   1      43.105  29.517  35.277  1.00  0.00     0.037 A 
ATOM     87  H   UNL A   1      43.939  30.455  37.791  1.00  0.00     0.065 H 
BRANCH  68  88
ATOM     88  C   UNL A   1      40.056  28.555  30.000  1.00  0.00     0.064 A 
ATOM     89  C   UNL A   1      40.647  29.048  28.828  1.00  0.00     0.173 A 
ATOM     90  C   UNL A   1      39.455  27.288  29.949  1.00  0.00     0.173 A 
ATOM     91  F   UNL A   1      41.226  30.258  28.821  1.00  0.00    -0.203 F 
ATOM     92  C   UNL A   1      40.625  28.308  27.648  1.00  0.00     0.198 A 
ATOM     93  C   UNL A   1      39.457  26.540  28.774  1.00  0.00     0.198 A 
ATOM     94  F   UNL A   1      38.882  26.766  31.044  1.00  0.00    -0.203 F 
ATOM     95  F   UNL A   1      41.169  28.813  26.532  1.00  0.00    -0.200 F 
ATOM     96  C   UNL A   1      40.038  27.051  27.625  1.00  0.00     0.200 A 
ATOM     97  F   UNL A   1      38.902  25.320  28.757  1.00  0.00    -0.200 F 
ATOM     98  F   UNL A   1      40.033  26.335  26.493  1.00  0.00    -0.200 F 
ENDBRANCH  68  88
BRANCH  71  99
ATOM     99  C   UNL A   1      40.278  33.808  38.480  1.00  0.00     0.064 A 
ATOM    100  C   UNL A   1      41.027  34.991  38.525  1.00  0.00     0.173 A 
ATOM    101  C   UNL A   1      39.552  33.449  39.625  1.00  0.00     0.173 A 
ATOM    102  F   UNL A   1      41.753  35.365  37.460  1.00  0.00    -0.203 F 
ATOM    103  C   UNL A   1      41.051  35.784  39.670  1.00  0.00     0.198 A 
ATOM    104  C   UNL A   1      39.554  34.257  40.760  1.00  0.00     0.198 A 
ATOM    105  F   UNL A   1      38.816  32.328  39.629  1.00  0.00    -0.203 F 
ATOM    106  F   UNL A   1      41.795  36.897  39.696  1.00  0.00    -0.200 F 
ATOM    107  C   UNL A   1      40.306  35.422  40.783  1.00  0.00     0.200 A 
ATOM    108  F   UNL A   1      38.820  33.911  41.826  1.00  0.00    -0.200 F 
ATOM    109  F   UNL A   1      40.314  36.194  41.877  1.00  0.00    -0.200 F 
ENDBRANCH  71  99
BRANCH  86 110
ATOM    110  C   UNL A   1      44.351  28.837  35.761  1.00  0.00     0.064 A 
ATOM    111  C   UNL A   1      44.291  27.661  36.521  1.00  0.00     0.173 A 
ATOM    112  C   UNL A   1      45.615  29.325  35.397  1.00  0.00     0.173 A 
ATOM    113  F   UNL A   1      43.106  27.164  36.904  1.00  0.00    -0.203 F 
ATOM    114  C   UNL A   1      45.454  26.999  36.905  1.00  0.00     0.198 A 
ATOM    115  C   UNL A   1      46.775  28.647  35.763  1.00  0.00     0.198 A 
ATOM    116  F   UNL A   1      45.724  30.444  34.666  1.00  0.00    -0.203 F 
ATOM    117  F   UNL A   1      45.376  25.890  37.653  1.00  0.00    -0.200 F 
ATOM    118  C   UNL A   1      46.694  27.487  36.518  1.00  0.00     0.200 A 
ATOM    119  F   UNL A   1      47.971  29.113  35.377  1.00  0.00    -0.200 F 
ATOM    120  F   UNL A   1      47.811  26.839  36.875  1.00  0.00    -0.200 F 
ENDBRANCH  86 110
ENDBRANCH  51  54
ENDBRANCH  41  44
ENDBRANCH  37  40
ENDBRANCH  34  37
ENDBRANCH  31  34
ENDBRANCH   1  31
TORSDOF 15
ENDMDL
MODEL 10
REMARK VINA RESULT:     -11.2      3.334      4.733
REMARK SMILES O=C(Cc1ccn(C(F)F)c(=O)c1)NCCCCCCNC(=O)c1ccc(-c2c3nc(c(-c4c(F)c(F)c(F)c(F)c4F)c4ccc([nH]4)c(-c4c(F)c(F)c(F)c(F)c4F)c4nc(c(-c5c(F)c(F)c(F)c(F)c5F)c5ccc2[nH]5)C=C4)C=C3)cc1
REMARK SMILES IDX 17 1 16 4 15 7 14 10 1 11 2 12 3 14 4 17 5 18 13 19 6 20
REMARK SMILES IDX 11 22 7 24 12 26 8 27 9 28 10 29 18 31 19 34 20 37 21 40
REMARK SMILES IDX 22 41 23 43 24 44 25 45 86 46 26 47 85 49 27 51 28 54 29 55
REMARK SMILES IDX 79 56 30 57 84 58 78 59 80 60 31 61 83 62 77 64 76 66 32 68
REMARK SMILES IDX 64 71 44 72 63 73 45 74 48 75 62 76 81 77 46 78 47 80 61 82
REMARK SMILES IDX 82 83 49 86 33 88 34 89 42 90 35 91 36 92 40 93 43 94 37 95
REMARK SMILES IDX 38 96 41 97 39 98 65 99 66 100 74 101 67 102 68 103 72 104
REMARK SMILES IDX 75 105 69 106 70 107 73 108 71 109 50 110 51 111 59 112
REMARK SMILES IDX 52 113 53 114 57 115 60 116 54 117 55 118 58 119 56 120
REMARK H PARENT 17 2 17 3 16 5 16 6 15 8 15 9 14 13 3 15 3 16 5 21 13 23 6 25
REMARK H PARENT 8 30 18 32 18 33 19 35 19 36 20 38 20 39 21 42 25 48 86 50
REMARK H PARENT 26 52 85 53 84 63 78 65 80 67 83 69 77 70 45 79 48 81 81 84
REMARK H PARENT 46 85 82 87
REMARK Flexibility Score: inf
ROOT
ATOM      1  C   UNL A   1      32.193  26.651  26.429  1.00  0.00    -0.052 C 
ATOM      2  H   UNL A   1      32.286  25.753  27.002  1.00  0.00     0.027 H 
ATOM      3  H   UNL A   1      32.215  27.546  27.016  1.00  0.00     0.027 H 
ENDROOT
BRANCH   1   4
ATOM      4  C   UNL A   1      30.820  26.634  25.744  1.00  0.00    -0.036 C 
ATOM      5  H   UNL A   1      30.284  27.506  26.053  1.00  0.00     0.028 H 
ATOM      6  H   UNL A   1      31.010  26.604  24.691  1.00  0.00     0.028 H 
BRANCH   4   7
ATOM      7  C   UNL A   1      29.960  25.412  26.058  1.00  0.00     0.017 C 
ATOM      8  H   UNL A   1      29.872  25.313  27.120  1.00  0.00     0.049 H 
ATOM      9  H   UNL A   1      29.002  25.554  25.605  1.00  0.00     0.049 H 
BRANCH   7  10
ATOM     10  N   UNL A   1      30.538  24.198  25.522  1.00  0.00    -0.356 N 
ATOM     11  O   UNL A   1      31.163  23.302  27.543  1.00  0.00    -0.275 OA
ATOM     12  C   UNL A   1      31.099  23.226  26.320  1.00  0.00     0.224 C 
ATOM     13  H   UNL A   1      30.531  24.062  24.546  1.00  0.00     0.163 HD
BRANCH  12  14
ATOM     14  C   UNL A   1      31.617  22.017  25.547  1.00  0.00     0.052 C 
ATOM     15  H   UNL A   1      31.166  22.032  24.576  1.00  0.00     0.042 H 
ATOM     16  H   UNL A   1      31.356  21.163  26.136  1.00  0.00     0.042 H 
BRANCH  14  17
ATOM     17  C   UNL A   1      33.116  21.944  25.362  1.00  0.00    -0.032 A 
ATOM     18  C   UNL A   1      33.794  20.691  25.089  1.00  0.00    -0.042 A 
ATOM     19  C   UNL A   1      33.854  23.064  25.458  1.00  0.00     0.007 A 
ATOM     20  C   UNL A   1      35.122  20.657  24.919  1.00  0.00     0.013 A 
ATOM     21  H   UNL A   1      33.248  19.816  25.025  1.00  0.00     0.064 H 
ATOM     22  C   UNL A   1      35.335  23.041  25.299  1.00  0.00     0.255 A 
ATOM     23  H   UNL A   1      33.382  23.963  25.647  1.00  0.00     0.068 H 
ATOM     24  N   UNL A   1      35.886  21.803  25.015  1.00  0.00    -0.258 N 
ATOM     25  H   UNL A   1      35.583  19.757  24.714  1.00  0.00     0.082 H 
ATOM     26  O   UNL A   1      35.953  24.093  25.421  1.00  0.00    -0.269 OA
BRANCH  24  27
ATOM     27  C   UNL A   1      37.319  21.740  24.885  1.00  0.00     0.321 C 
ATOM     28  F   UNL A   1      37.930  21.873  26.087  1.00  0.00    -0.185 F 
ATOM     29  F   UNL A   1      37.703  20.558  24.346  1.00  0.00    -0.185 F 
ATOM     30  H   UNL A   1      37.607  22.548  24.245  1.00  0.00     0.131 H 
ENDBRANCH  24  27
ENDBRANCH  14  17
ENDBRANCH  12  14
ENDBRANCH   7  10
ENDBRANCH   4   7
ENDBRANCH   1   4
BRANCH   1  31
ATOM     31  C   UNL A   1      33.401  26.738  25.491  1.00  0.00    -0.052 C 
ATOM     32  H   UNL A   1      33.514  25.789  25.009  1.00  0.00     0.027 H 
ATOM     33  H   UNL A   1      34.233  27.008  26.106  1.00  0.00     0.027 H 
BRANCH  31  34
ATOM     34  C   UNL A   1      33.314  27.810  24.406  1.00  0.00    -0.036 C 
ATOM     35  H   UNL A   1      32.279  27.996  24.206  1.00  0.00     0.028 H 
ATOM     36  H   UNL A   1      33.848  27.423  23.563  1.00  0.00     0.028 H 
BRANCH  34  37
ATOM     37  C   UNL A   1      33.975  29.140  24.751  1.00  0.00     0.018 C 
ATOM     38  H   UNL A   1      34.406  29.546  23.859  1.00  0.00     0.049 H 
ATOM     39  H   UNL A   1      34.713  28.941  25.499  1.00  0.00     0.049 H 
BRANCH  37  40
ATOM     40  N   UNL A   1      33.049  30.116  25.304  1.00  0.00    -0.352 N 
ATOM     41  C   UNL A   1      33.100  30.775  26.511  1.00  0.00     0.251 C 
ATOM     42  H   UNL A   1      32.278  30.337  24.734  1.00  0.00     0.163 HD
ATOM     43  O   UNL A   1      32.164  31.484  26.868  1.00  0.00    -0.269 OA
BRANCH  41  44
ATOM     44  C   UNL A   1      34.268  30.594  27.401  1.00  0.00     0.039 A 
ATOM     45  C   UNL A   1      35.173  31.636  27.616  1.00  0.00    -0.049 A 
ATOM     46  C   UNL A   1      34.473  29.353  28.013  1.00  0.00    -0.049 A 
ATOM     47  C   UNL A   1      36.362  31.387  28.294  1.00  0.00    -0.053 A 
ATOM     48  H   UNL A   1      34.960  32.585  27.273  1.00  0.00     0.063 H 
ATOM     49  C   UNL A   1      35.628  29.131  28.768  1.00  0.00    -0.053 A 
ATOM     50  H   UNL A   1      33.772  28.602  27.906  1.00  0.00     0.063 H 
ATOM     51  C   UNL A   1      36.607  30.131  28.871  1.00  0.00    -0.014 A 
ATOM     52  H   UNL A   1      37.070  32.133  28.372  1.00  0.00     0.063 H 
ATOM     53  H   UNL A   1      35.762  28.228  29.250  1.00  0.00     0.063 H 
BRANCH  51  54
ATOM     54  C   UNL A   1      37.896  29.895  29.575  1.00  0.00     0.031 A 
ATOM     55  C   UNL A   1      38.143  30.463  30.946  1.00  0.00     0.074 A 
ATOM     56  C   UNL A   1      38.820  29.103  29.000  1.00  0.00     0.049 A 
ATOM     57  N   UNL A   1      39.181  30.304  31.730  1.00  0.00    -0.248 NA
ATOM     58  C   UNL A   1      37.094  31.323  31.514  1.00  0.00    -0.034 C 
ATOM     59  C   UNL A   1      38.694  28.491  27.676  1.00  0.00    -0.036 A 
ATOM     60  N   UNL A   1      40.030  28.647  29.463  1.00  0.00    -0.354 N 
ATOM     61  C   UNL A   1      38.916  31.049  32.872  1.00  0.00     0.074 A 
ATOM     62  C   UNL A   1      37.635  31.690  32.669  1.00  0.00    -0.034 C 
ATOM     63  H   UNL A   1      36.176  31.577  31.119  1.00  0.00     0.065 H 
ATOM     64  C   UNL A   1      39.748  27.691  27.460  1.00  0.00    -0.036 A 
ATOM     65  H   UNL A   1      37.918  28.651  27.014  1.00  0.00     0.065 H 
ATOM     66  C   UNL A   1      40.652  27.777  28.602  1.00  0.00     0.049 A 
ATOM     67  H   UNL A   1      40.412  28.918  30.328  1.00  0.00     0.167 HD
ATOM     68  C   UNL A   1      39.666  31.174  33.993  1.00  0.00     0.037 A 
ATOM     69  H   UNL A   1      37.199  32.346  33.336  1.00  0.00     0.065 H 
ATOM     70  H   UNL A   1      39.895  27.108  26.621  1.00  0.00     0.065 H 
ATOM     71  C   UNL A   1      41.823  27.122  28.715  1.00  0.00     0.037 A 
ATOM     72  C   UNL A   1      40.930  30.517  34.203  1.00  0.00     0.049 A 
ATOM     73  C   UNL A   1      42.652  27.308  29.954  1.00  0.00     0.074 A 
ATOM     74  C   UNL A   1      41.751  30.564  35.317  1.00  0.00    -0.036 A 
ATOM     75  N   UNL A   1      41.557  29.693  33.280  1.00  0.00    -0.354 N 
ATOM     76  N   UNL A   1      42.380  28.003  31.031  1.00  0.00    -0.248 NA
ATOM     77  C   UNL A   1      43.954  26.628  29.989  1.00  0.00    -0.034 C 
ATOM     78  C   UNL A   1      42.892  29.802  35.054  1.00  0.00    -0.036 A 
ATOM     79  H   UNL A   1      41.552  31.073  36.193  1.00  0.00     0.065 H 
ATOM     80  C   UNL A   1      42.764  29.244  33.792  1.00  0.00     0.049 A 
ATOM     81  H   UNL A   1      41.199  29.463  32.393  1.00  0.00     0.167 HD
ATOM     82  C   UNL A   1      43.469  27.836  31.876  1.00  0.00     0.074 A 
ATOM     83  C   UNL A   1      44.398  26.959  31.194  1.00  0.00    -0.034 C 
ATOM     84  H   UNL A   1      44.405  26.045  29.266  1.00  0.00     0.065 H 
ATOM     85  H   UNL A   1      43.695  29.677  35.691  1.00  0.00     0.065 H 
ATOM     86  C   UNL A   1      43.678  28.369  33.104  1.00  0.00     0.037 A 
ATOM     87  H   UNL A   1      45.291  26.632  31.596  1.00  0.00     0.065 H 
BRANCH  68  88
ATOM     88  C   UNL A   1      39.147  32.056  35.090  1.00  0.00     0.064 A 
ATOM     89  C   UNL A   1      38.468  31.527  36.197  1.00  0.00     0.173 A 
ATOM     90  C   UNL A   1      39.400  33.437  35.074  1.00  0.00     0.173 A 
ATOM     91  F   UNL A   1      38.192  30.215  36.256  1.00  0.00    -0.203 F 
ATOM     92  C   UNL A   1      38.046  32.349  37.239  1.00  0.00     0.198 A 
ATOM     93  C   UNL A   1      38.999  34.251  36.131  1.00  0.00     0.198 A 
ATOM     94  F   UNL A   1      40.053  33.992  34.043  1.00  0.00    -0.203 F 
ATOM     95  F   UNL A   1      37.371  31.825  38.272  1.00  0.00    -0.200 F 
ATOM     96  C   UNL A   1      38.320  33.708  37.210  1.00  0.00     0.200 A 
ATOM     97  F   UNL A   1      39.277  35.562  36.106  1.00  0.00    -0.200 F 
ATOM     98  F   UNL A   1      37.927  34.494  38.221  1.00  0.00    -0.200 F 
ENDBRANCH  68  88
BRANCH  71  99
ATOM     99  C   UNL A   1      42.261  26.215  27.625  1.00  0.00     0.064 A 
ATOM    100  C   UNL A   1      43.207  26.634  26.680  1.00  0.00     0.173 A 
ATOM    101  C   UNL A   1      41.778  24.902  27.529  1.00  0.00     0.173 A 
ATOM    102  F   UNL A   1      43.683  27.888  26.719  1.00  0.00    -0.203 F 
ATOM    103  C   UNL A   1      43.652  25.773  25.679  1.00  0.00     0.198 A 
ATOM    104  C   UNL A   1      42.245  24.034  26.546  1.00  0.00     0.198 A 
ATOM    105  F   UNL A   1      40.875  24.454  28.413  1.00  0.00    -0.203 F 
ATOM    106  F   UNL A   1      44.539  26.205  24.772  1.00  0.00    -0.200 F 
ATOM    107  C   UNL A   1      43.179  24.471  25.619  1.00  0.00     0.200 A 
ATOM    108  F   UNL A   1      41.796  22.772  26.502  1.00  0.00    -0.200 F 
ATOM    109  F   UNL A   1      43.622  23.638  24.668  1.00  0.00    -0.200 F 
ENDBRANCH  71  99
BRANCH  86 110
ATOM    110  C   UNL A   1      44.956  28.015  33.804  1.00  0.00     0.064 A 
ATOM    111  C   UNL A   1      46.096  28.824  33.694  1.00  0.00     0.173 A 
ATOM    112  C   UNL A   1      45.016  26.901  34.655  1.00  0.00     0.173 A 
ATOM    113  F   UNL A   1      46.090  29.892  32.883  1.00  0.00    -0.203 F 
ATOM    114  C   UNL A   1      47.254  28.525  34.405  1.00  0.00     0.198 A 
ATOM    115  C   UNL A   1      46.168  26.619  35.382  1.00  0.00     0.198 A 
ATOM    116  F   UNL A   1      43.949  26.101  34.798  1.00  0.00    -0.203 F 
ATOM    117  F   UNL A   1      48.342  29.295  34.265  1.00  0.00    -0.200 F 
ATOM    118  C   UNL A   1      47.287  27.429  35.255  1.00  0.00     0.200 A 
ATOM    119  F   UNL A   1      46.194  25.567  36.214  1.00  0.00    -0.200 F 
ATOM    120  F   UNL A   1      48.398  27.153  35.951  1.00  0.00    -0.200 F 
ENDBRANCH  86 110
ENDBRANCH  51  54
ENDBRANCH  41  44
ENDBRANCH  37  40
ENDBRANCH  34  37
ENDBRANCH  31  34
ENDBRANCH   1  31
TORSDOF 15
ENDMDL
