MODEL 1
REMARK VINA RESULT:     -12.2      0.000      0.000
REMARK SMILES Cc1cc(=O)c(Oc2ccc(C(=O)NCCCCCCNC(=O)c3ccc(-c4c5nc(c(-c6c(F)c(F)c(F)c(F)c6F)c6ccc([nH]6)c(-c6c(F)c(F)c(F)c(F)c6F)c6nc(c(-c7c(F)c(F)c(F)c(F)c7F)c7ccc4[nH]7)C=C6)C=C5)cc3)cc2)c(-c2ccc(S(C)(=O)=O)cc2)o1
REMARK SMILES IDX 16 1 15 4 14 7 12 8 13 9 11 11 8 12 9 13 88 14 10 15 87 17
REMARK SMILES IDX 7 21 6 22 2 23 3 24 100 25 4 26 89 28 5 29 1 30 90 34 91 35
REMARK SMILES IDX 99 36 92 37 98 39 93 41 94 44 96 45 97 46 95 47 17 51 18 54
REMARK SMILES IDX 19 57 20 60 21 63 22 64 23 66 24 67 25 68 86 69 26 70 85 72
REMARK SMILES IDX 27 74 28 77 29 78 79 79 30 80 84 81 78 82 80 83 31 84 83 85
REMARK SMILES IDX 77 87 76 89 32 91 64 94 44 95 63 96 45 97 48 98 62 99 81 100
REMARK SMILES IDX 46 101 47 103 61 105 82 106 49 109 33 111 34 112 42 113
REMARK SMILES IDX 35 114 36 115 40 116 43 117 37 118 38 119 41 120 39 121
REMARK SMILES IDX 65 122 66 123 74 124 67 125 68 126 72 127 75 128 69 129
REMARK SMILES IDX 70 130 73 131 71 132 50 133 51 134 59 135 52 136 53 137
REMARK SMILES IDX 57 138 60 139 54 140 55 141 58 142 56 143
REMARK H PARENT 16 2 16 3 15 5 15 6 14 10 9 16 88 18 10 19 87 20 3 27 1 31
REMARK H PARENT 1 32 1 33 91 38 99 40 92 42 98 43 95 48 95 49 95 50 17 52
REMARK H PARENT 17 53 18 55 18 56 19 58 19 59 20 61 20 62 21 65 25 71 86 73
REMARK H PARENT 26 75 85 76 84 86 78 88 80 90 83 92 77 93 45 102 48 104 81 107
REMARK H PARENT 46 108 82 110
REMARK Flexibility Score: inf
ROOT
ATOM      1  C   UNL A   1      41.389  21.969  26.290  1.00  0.00    -0.036 C 
ATOM      2  H   UNL A   1      41.864  22.771  26.815  1.00  0.00     0.028 H 
ATOM      3  H   UNL A   1      41.644  21.883  25.254  1.00  0.00     0.028 H 
ENDROOT
BRANCH   1   4
ATOM      4  C   UNL A   1      39.888  22.245  26.299  1.00  0.00     0.018 C 
ATOM      5  H   UNL A   1      39.622  22.573  27.282  1.00  0.00     0.049 H 
ATOM      6  H   UNL A   1      39.724  22.976  25.535  1.00  0.00     0.049 H 
BRANCH   4   7
ATOM      7  N   UNL A   1      39.037  21.124  25.959  1.00  0.00    -0.352 N 
ATOM      8  C   UNL A   1      37.865  21.071  25.238  1.00  0.00     0.251 C 
ATOM      9  O   UNL A   1      37.381  19.973  24.967  1.00  0.00    -0.269 OA
ATOM     10  H   UNL A   1      39.349  20.255  26.300  1.00  0.00     0.163 HD
BRANCH   8  11
ATOM     11  C   UNL A   1      37.108  22.302  24.877  1.00  0.00     0.040 A 
ATOM     12  C   UNL A   1      35.194  24.207  24.200  1.00  0.00     0.127 A 
ATOM     13  C   UNL A   1      35.741  23.411  23.202  1.00  0.00    -0.019 A 
ATOM     14  C   UNL A   1      35.765  24.218  25.471  1.00  0.00    -0.019 A 
ATOM     15  C   UNL A   1      36.671  22.427  23.550  1.00  0.00    -0.046 A 
ATOM     16  H   UNL A   1      35.465  23.543  22.217  1.00  0.00     0.066 H 
ATOM     17  C   UNL A   1      36.751  23.287  25.799  1.00  0.00    -0.046 A 
ATOM     18  H   UNL A   1      35.458  24.913  26.170  1.00  0.00     0.066 H 
ATOM     19  H   UNL A   1      37.040  21.791  22.826  1.00  0.00     0.063 H 
ATOM     20  H   UNL A   1      37.215  23.327  26.720  1.00  0.00     0.063 H 
BRANCH  12  21
ATOM     21  O   UNL A   1      34.156  25.062  23.983  1.00  0.00    -0.449 OA
BRANCH  21  22
ATOM     22  C   UNL A   1      32.927  24.972  24.626  1.00  0.00     0.217 A 
ATOM     23  C   UNL A   1      30.398  25.290  25.875  1.00  0.00     0.105 A 
ATOM     24  C   UNL A   1      31.119  26.402  25.724  1.00  0.00     0.028 A 
ATOM     25  O   UNL A   1      30.874  24.045  25.520  1.00  0.00    -0.457 OA
ATOM     26  C   UNL A   1      32.456  26.306  25.125  1.00  0.00     0.228 A 
ATOM     27  H   UNL A   1      30.742  27.316  26.024  1.00  0.00     0.070 H 
ATOM     28  C   UNL A   1      32.118  23.913  24.906  1.00  0.00     0.180 A 
ATOM     29  O   UNL A   1      33.150  27.316  25.049  1.00  0.00    -0.285 OA
BRANCH  23  30
ATOM     30  C   UNL A   1      29.014  25.285  26.441  1.00  0.00    -0.006 C 
ATOM     31  H   UNL A   1      28.630  26.284  26.453  1.00  0.00     0.031 H 
ATOM     32  H   UNL A   1      29.040  24.901  27.440  1.00  0.00     0.031 H 
ATOM     33  H   UNL A   1      28.384  24.667  25.838  1.00  0.00     0.031 H 
ENDBRANCH  23  30
BRANCH  28  34
ATOM     34  C   UNL A   1      32.363  22.490  24.605  1.00  0.00     0.021 A 
ATOM     35  C   UNL A   1      32.912  21.656  25.595  1.00  0.00    -0.050 A 
ATOM     36  C   UNL A   1      32.073  21.949  23.343  1.00  0.00    -0.050 A 
ATOM     37  C   UNL A   1      33.085  20.289  25.362  1.00  0.00    -0.043 A 
ATOM     38  H   UNL A   1      33.191  22.059  26.504  1.00  0.00     0.063 H 
ATOM     39  C   UNL A   1      32.256  20.583  23.100  1.00  0.00    -0.043 A 
ATOM     40  H   UNL A   1      31.724  22.562  22.590  1.00  0.00     0.063 H 
ATOM     41  C   UNL A   1      32.746  19.758  24.115  1.00  0.00     0.067 A 
ATOM     42  H   UNL A   1      33.460  19.678  26.104  1.00  0.00     0.064 H 
ATOM     43  H   UNL A   1      32.028  20.187  22.174  1.00  0.00     0.064 H 
BRANCH  41  44
ATOM     44  S   UNL A   1      32.843  17.997  23.871  1.00  0.00     0.175 S 
ATOM     45  O   UNL A   1      31.999  17.377  24.871  1.00  0.00    -0.224 OA
ATOM     46  O   UNL A   1      32.658  17.732  22.455  1.00  0.00    -0.224 OA
BRANCH  44  47
ATOM     47  C   UNL A   1      34.524  17.608  24.265  1.00  0.00     0.043 C 
ATOM     48  H   UNL A   1      35.146  18.450  24.046  1.00  0.00     0.040 H 
ATOM     49  H   UNL A   1      34.842  16.769  23.682  1.00  0.00     0.040 H 
ATOM     50  H   UNL A   1      34.600  17.369  25.305  1.00  0.00     0.040 H 
ENDBRANCH  44  47
ENDBRANCH  41  44
ENDBRANCH  28  34
ENDBRANCH  21  22
ENDBRANCH  12  21
ENDBRANCH   8  11
ENDBRANCH   4   7
ENDBRANCH   1   4
BRANCH   1  51
ATOM     51  C   UNL A   1      41.872  20.662  26.918  1.00  0.00    -0.052 C 
ATOM     52  H   UNL A   1      41.281  20.486  27.792  1.00  0.00     0.027 H 
ATOM     53  H   UNL A   1      42.916  20.811  27.103  1.00  0.00     0.027 H 
BRANCH  51  54
ATOM     54  C   UNL A   1      41.798  19.406  26.049  1.00  0.00    -0.052 C 
ATOM     55  H   UNL A   1      41.999  19.697  25.039  1.00  0.00     0.027 H 
ATOM     56  H   UNL A   1      40.818  19.007  26.210  1.00  0.00     0.027 H 
BRANCH  54  57
ATOM     57  C   UNL A   1      42.759  18.274  26.404  1.00  0.00    -0.036 C 
ATOM     58  H   UNL A   1      42.465  17.408  25.849  1.00  0.00     0.028 H 
ATOM     59  H   UNL A   1      42.689  18.158  27.465  1.00  0.00     0.028 H 
BRANCH  57  60
ATOM     60  C   UNL A   1      44.231  18.536  26.114  1.00  0.00     0.018 C 
ATOM     61  H   UNL A   1      44.808  17.752  26.559  1.00  0.00     0.049 H 
ATOM     62  H   UNL A   1      44.465  19.496  26.524  1.00  0.00     0.049 H 
BRANCH  60  63
ATOM     63  N   UNL A   1      44.544  18.589  24.695  1.00  0.00    -0.352 N 
ATOM     64  C   UNL A   1      44.769  19.677  23.883  1.00  0.00     0.251 C 
ATOM     65  H   UNL A   1      44.604  17.714  24.246  1.00  0.00     0.163 HD
ATOM     66  O   UNL A   1      44.908  19.528  22.673  1.00  0.00    -0.269 OA
BRANCH  64  67
ATOM     67  C   UNL A   1      44.805  21.040  24.462  1.00  0.00     0.039 A 
ATOM     68  C   UNL A   1      44.214  22.117  23.802  1.00  0.00    -0.049 A 
ATOM     69  C   UNL A   1      45.462  21.246  25.680  1.00  0.00    -0.049 A 
ATOM     70  C   UNL A   1      44.445  23.413  24.250  1.00  0.00    -0.053 A 
ATOM     71  H   UNL A   1      43.607  21.953  22.984  1.00  0.00     0.063 H 
ATOM     72  C   UNL A   1      45.603  22.543  26.186  1.00  0.00    -0.053 A 
ATOM     73  H   UNL A   1      45.843  20.443  26.204  1.00  0.00     0.063 H 
ATOM     74  C   UNL A   1      45.144  23.644  25.448  1.00  0.00    -0.014 A 
ATOM     75  H   UNL A   1      44.099  24.214  23.698  1.00  0.00     0.063 H 
ATOM     76  H   UNL A   1      46.047  22.690  27.106  1.00  0.00     0.063 H 
BRANCH  74  77
ATOM     77  C   UNL A   1      45.370  25.044  25.899  1.00  0.00     0.031 A 
ATOM     78  C   UNL A   1      44.268  25.839  26.548  1.00  0.00     0.074 A 
ATOM     79  C   UNL A   1      46.600  25.580  25.780  1.00  0.00     0.049 A 
ATOM     80  N   UNL A   1      44.309  27.050  27.048  1.00  0.00    -0.248 NA
ATOM     81  C   UNL A   1      42.947  25.199  26.645  1.00  0.00    -0.034 C 
ATOM     82  C   UNL A   1      47.751  24.909  25.173  1.00  0.00    -0.036 A 
ATOM     83  N   UNL A   1      47.100  26.791  26.188  1.00  0.00    -0.354 N 
ATOM     84  C   UNL A   1      43.025  27.318  27.505  1.00  0.00     0.074 A 
ATOM     85  C   UNL A   1      42.215  26.162  27.188  1.00  0.00    -0.034 C 
ATOM     86  H   UNL A   1      42.664  24.247  26.364  1.00  0.00     0.065 H 
ATOM     87  C   UNL A   1      48.834  25.686  25.305  1.00  0.00    -0.036 A 
ATOM     88  H   UNL A   1      47.730  23.983  24.715  1.00  0.00     0.065 H 
ATOM     89  C   UNL A   1      48.443  26.939  25.941  1.00  0.00     0.049 A 
ATOM     90  H   UNL A   1      46.549  27.486  26.615  1.00  0.00     0.167 HD
ATOM     91  C   UNL A   1      42.568  28.420  28.148  1.00  0.00     0.037 A 
ATOM     92  H   UNL A   1      41.199  26.095  27.361  1.00  0.00     0.065 H 
ATOM     93  H   UNL A   1      49.789  25.439  25.004  1.00  0.00     0.065 H 
ATOM     94  C   UNL A   1      49.272  27.972  26.189  1.00  0.00     0.037 A 
ATOM     95  C   UNL A   1      43.382  29.563  28.477  1.00  0.00     0.049 A 
ATOM     96  C   UNL A   1      48.728  29.204  26.855  1.00  0.00     0.074 A 
ATOM     97  C   UNL A   1      43.016  30.715  29.152  1.00  0.00    -0.036 A 
ATOM     98  N   UNL A   1      44.724  29.700  28.151  1.00  0.00    -0.354 N 
ATOM     99  N   UNL A   1      47.520  29.432  27.307  1.00  0.00    -0.248 NA
ATOM    100  C   UNL A   1      49.660  30.325  27.038  1.00  0.00    -0.034 C 
ATOM    101  C   UNL A   1      44.118  31.572  29.183  1.00  0.00    -0.036 A 
ATOM    102  H   UNL A   1      42.089  30.907  29.561  1.00  0.00     0.065 H 
ATOM    103  C   UNL A   1      45.191  30.932  28.585  1.00  0.00     0.049 A 
ATOM    104  H   UNL A   1      45.264  29.024  27.683  1.00  0.00     0.167 HD
ATOM    105  C   UNL A   1      47.547  30.712  27.842  1.00  0.00     0.074 A 
ATOM    106  C   UNL A   1      48.900  31.205  27.675  1.00  0.00    -0.034 C 
ATOM    107  H   UNL A   1      50.647  30.406  26.749  1.00  0.00     0.065 H 
ATOM    108  H   UNL A   1      44.131  32.524  29.585  1.00  0.00     0.065 H 
ATOM    109  C   UNL A   1      46.540  31.413  28.416  1.00  0.00     0.037 A 
ATOM    110  H   UNL A   1      49.228  32.125  28.009  1.00  0.00     0.065 H 
BRANCH  91 111
ATOM    111  C   UNL A   1      41.117  28.457  28.539  1.00  0.00     0.064 A 
ATOM    112  C   UNL A   1      40.687  28.056  29.813  1.00  0.00     0.173 A 
ATOM    113  C   UNL A   1      40.153  28.963  27.653  1.00  0.00     0.173 A 
ATOM    114  F   UNL A   1      41.565  27.558  30.697  1.00  0.00    -0.203 F 
ATOM    115  C   UNL A   1      39.345  28.139  30.177  1.00  0.00     0.198 A 
ATOM    116  C   UNL A   1      38.817  29.074  28.032  1.00  0.00     0.198 A 
ATOM    117  F   UNL A   1      40.509  29.370  26.427  1.00  0.00    -0.203 F 
ATOM    118  F   UNL A   1      38.952  27.711  31.386  1.00  0.00    -0.200 F 
ATOM    119  C   UNL A   1      38.413  28.656  29.290  1.00  0.00     0.200 A 
ATOM    120  F   UNL A   1      37.922  29.592  27.179  1.00  0.00    -0.200 F 
ATOM    121  F   UNL A   1      37.124  28.750  29.647  1.00  0.00    -0.200 F 
ENDBRANCH  91 111
BRANCH  94 122
ATOM    122  C   UNL A   1      50.705  27.861  25.814  1.00  0.00     0.064 A 
ATOM    123  C   UNL A   1      51.123  28.085  24.496  1.00  0.00     0.173 A 
ATOM    124  C   UNL A   1      51.691  27.585  26.774  1.00  0.00     0.173 A 
ATOM    125  F   UNL A   1      50.217  28.334  23.540  1.00  0.00    -0.203 F 
ATOM    126  C   UNL A   1      52.473  28.041  24.153  1.00  0.00     0.198 A 
ATOM    127  C   UNL A   1      53.042  27.571  26.436  1.00  0.00     0.198 A 
ATOM    128  F   UNL A   1      51.343  27.367  28.051  1.00  0.00    -0.203 F 
ATOM    129  F   UNL A   1      52.844  28.237  22.880  1.00  0.00    -0.200 F 
ATOM    130  C   UNL A   1      53.431  27.796  25.124  1.00  0.00     0.200 A 
ATOM    131  F   UNL A   1      53.966  27.356  27.382  1.00  0.00    -0.200 F 
ATOM    132  F   UNL A   1      54.730  27.779  24.798  1.00  0.00    -0.200 F 
ENDBRANCH  94 122
BRANCH 109 133
ATOM    133  C   UNL A   1      46.850  32.790  28.929  1.00  0.00     0.064 A 
ATOM    134  C   UNL A   1      47.355  32.994  30.221  1.00  0.00     0.173 A 
ATOM    135  C   UNL A   1      46.725  33.906  28.087  1.00  0.00     0.173 A 
ATOM    136  F   UNL A   1      47.478  31.962  31.069  1.00  0.00    -0.203 F 
ATOM    137  C   UNL A   1      47.715  34.268  30.655  1.00  0.00     0.198 A 
ATOM    138  C   UNL A   1      47.116  35.172  28.514  1.00  0.00     0.198 A 
ATOM    139  F   UNL A   1      46.254  33.763  26.839  1.00  0.00    -0.203 F 
ATOM    140  F   UNL A   1      48.167  34.444  31.904  1.00  0.00    -0.200 F 
ATOM    141  C   UNL A   1      47.608  35.352  29.797  1.00  0.00     0.200 A 
ATOM    142  F   UNL A   1      47.029  36.216  27.678  1.00  0.00    -0.200 F 
ATOM    143  F   UNL A   1      47.979  36.573  30.209  1.00  0.00    -0.200 F 
ENDBRANCH 109 133
ENDBRANCH  74  77
ENDBRANCH  64  67
ENDBRANCH  60  63
ENDBRANCH  57  60
ENDBRANCH  54  57
ENDBRANCH  51  54
ENDBRANCH   1  51
TORSDOF 19
ENDMDL
MODEL 2
REMARK VINA RESULT:     -12.1      5.865     10.731
REMARK SMILES Cc1cc(=O)c(Oc2ccc(C(=O)NCCCCCCNC(=O)c3ccc(-c4c5nc(c(-c6c(F)c(F)c(F)c(F)c6F)c6ccc([nH]6)c(-c6c(F)c(F)c(F)c(F)c6F)c6nc(c(-c7c(F)c(F)c(F)c(F)c7F)c7ccc4[nH]7)C=C6)C=C5)cc3)cc2)c(-c2ccc(S(C)(=O)=O)cc2)o1
REMARK SMILES IDX 16 1 15 4 14 7 12 8 13 9 11 11 8 12 9 13 88 14 10 15 87 17
REMARK SMILES IDX 7 21 6 22 2 23 3 24 100 25 4 26 89 28 5 29 1 30 90 34 91 35
REMARK SMILES IDX 99 36 92 37 98 39 93 41 94 44 96 45 97 46 95 47 17 51 18 54
REMARK SMILES IDX 19 57 20 60 21 63 22 64 23 66 24 67 25 68 86 69 26 70 85 72
REMARK SMILES IDX 27 74 28 77 29 78 79 79 30 80 84 81 78 82 80 83 31 84 83 85
REMARK SMILES IDX 77 87 76 89 32 91 64 94 44 95 63 96 45 97 48 98 62 99 81 100
REMARK SMILES IDX 46 101 47 103 61 105 82 106 49 109 33 111 34 112 42 113
REMARK SMILES IDX 35 114 36 115 40 116 43 117 37 118 38 119 41 120 39 121
REMARK SMILES IDX 65 122 66 123 74 124 67 125 68 126 72 127 75 128 69 129
REMARK SMILES IDX 70 130 73 131 71 132 50 133 51 134 59 135 52 136 53 137
REMARK SMILES IDX 57 138 60 139 54 140 55 141 58 142 56 143
REMARK H PARENT 16 2 16 3 15 5 15 6 14 10 9 16 88 18 10 19 87 20 3 27 1 31
REMARK H PARENT 1 32 1 33 91 38 99 40 92 42 98 43 95 48 95 49 95 50 17 52
REMARK H PARENT 17 53 18 55 18 56 19 58 19 59 20 61 20 62 21 65 25 71 86 73
REMARK H PARENT 26 75 85 76 84 86 78 88 80 90 83 92 77 93 45 102 48 104 81 107
REMARK H PARENT 46 108 82 110
REMARK Flexibility Score: inf
ROOT
ATOM      1  C   UNL A   1      32.264  28.007  27.276  1.00  0.00    -0.036 C 
ATOM      2  H   UNL A   1      33.131  28.188  26.675  1.00  0.00     0.028 H 
ATOM      3  H   UNL A   1      32.457  27.778  28.304  1.00  0.00     0.028 H 
ENDROOT
BRANCH   1   4
ATOM      4  C   UNL A   1      31.577  26.762  26.723  1.00  0.00     0.018 C 
ATOM      5  H   UNL A   1      32.332  26.137  26.291  1.00  0.00     0.049 H 
ATOM      6  H   UNL A   1      31.067  26.320  27.553  1.00  0.00     0.049 H 
BRANCH   4   7
ATOM      7  N   UNL A   1      30.563  26.994  25.717  1.00  0.00    -0.352 N 
ATOM      8  C   UNL A   1      29.874  26.110  24.915  1.00  0.00     0.251 C 
ATOM      9  O   UNL A   1      28.955  26.533  24.215  1.00  0.00    -0.269 OA
ATOM     10  H   UNL A   1      30.325  27.939  25.584  1.00  0.00     0.163 HD
BRANCH   8  11
ATOM     11  C   UNL A   1      30.284  24.684  24.784  1.00  0.00     0.040 A 
ATOM     12  C   UNL A   1      31.615  22.271  24.390  1.00  0.00     0.127 A 
ATOM     13  C   UNL A   1      31.104  22.951  23.291  1.00  0.00    -0.019 A 
ATOM     14  C   UNL A   1      31.259  22.666  25.679  1.00  0.00    -0.019 A 
ATOM     15  C   UNL A   1      30.472  24.182  23.487  1.00  0.00    -0.046 A 
ATOM     16  H   UNL A   1      31.189  22.552  22.344  1.00  0.00     0.066 H 
ATOM     17  C   UNL A   1      30.559  23.857  25.873  1.00  0.00    -0.046 A 
ATOM     18  H   UNL A   1      31.514  22.078  26.488  1.00  0.00     0.066 H 
ATOM     19  H   UNL A   1      30.142  24.724  22.673  1.00  0.00     0.063 H 
ATOM     20  H   UNL A   1      30.246  24.124  26.819  1.00  0.00     0.063 H 
BRANCH  12  21
ATOM     21  O   UNL A   1      32.398  21.162  24.279  1.00  0.00    -0.449 OA
BRANCH  21  22
ATOM     22  C   UNL A   1      33.771  21.154  24.502  1.00  0.00     0.217 A 
ATOM     23  C   UNL A   1      36.534  20.637  24.893  1.00  0.00     0.105 A 
ATOM     24  C   UNL A   1      35.723  19.581  24.986  1.00  0.00     0.028 A 
ATOM     25  O   UNL A   1      36.061  21.917  24.698  1.00  0.00    -0.457 OA
ATOM     26  C   UNL A   1      34.276  19.782  24.837  1.00  0.00     0.228 A 
ATOM     27  H   UNL A   1      36.107  18.638  25.158  1.00  0.00     0.070 H 
ATOM     28  C   UNL A   1      34.701  22.148  24.505  1.00  0.00     0.180 A 
ATOM     29  O   UNL A   1      33.521  18.826  24.991  1.00  0.00    -0.285 OA
BRANCH  23  30
ATOM     30  C   UNL A   1      38.021  20.534  24.995  1.00  0.00    -0.006 C 
ATOM     31  H   UNL A   1      38.282  20.008  25.890  1.00  0.00     0.031 H 
ATOM     32  H   UNL A   1      38.446  21.516  25.023  1.00  0.00     0.031 H 
ATOM     33  H   UNL A   1      38.402  20.006  24.147  1.00  0.00     0.031 H 
ENDBRANCH  23  30
BRANCH  28  34
ATOM     34  C   UNL A   1      34.478  23.590  24.286  1.00  0.00     0.021 A 
ATOM     35  C   UNL A   1      34.262  24.068  22.982  1.00  0.00    -0.050 A 
ATOM     36  C   UNL A   1      34.494  24.502  25.353  1.00  0.00    -0.050 A 
ATOM     37  C   UNL A   1      33.975  25.417  22.755  1.00  0.00    -0.043 A 
ATOM     38  H   UNL A   1      34.315  23.416  22.184  1.00  0.00     0.063 H 
ATOM     39  C   UNL A   1      34.219  25.856  25.129  1.00  0.00    -0.043 A 
ATOM     40  H   UNL A   1      34.709  24.172  26.306  1.00  0.00     0.063 H 
ATOM     41  C   UNL A   1      33.946  26.303  23.835  1.00  0.00     0.067 A 
ATOM     42  H   UNL A   1      33.786  25.755  21.799  1.00  0.00     0.064 H 
ATOM     43  H   UNL A   1      34.218  26.521  25.919  1.00  0.00     0.064 H 
BRANCH  41  44
ATOM     44  S   UNL A   1      33.450  27.990  23.555  1.00  0.00     0.175 S 
ATOM     45  O   UNL A   1      32.007  27.997  23.427  1.00  0.00    -0.224 OA
ATOM     46  O   UNL A   1      34.127  28.823  24.533  1.00  0.00    -0.224 OA
BRANCH  44  47
ATOM     47  C   UNL A   1      34.135  28.375  21.969  1.00  0.00     0.043 C 
ATOM     48  H   UNL A   1      35.124  27.972  21.901  1.00  0.00     0.040 H 
ATOM     49  H   UNL A   1      34.173  29.437  21.846  1.00  0.00     0.040 H 
ATOM     50  H   UNL A   1      33.522  27.949  21.203  1.00  0.00     0.040 H 
ENDBRANCH  44  47
ENDBRANCH  41  44
ENDBRANCH  28  34
ENDBRANCH  21  22
ENDBRANCH  12  21
ENDBRANCH   8  11
ENDBRANCH   4   7
ENDBRANCH   1   4
BRANCH   1  51
ATOM     51  C   UNL A   1      31.456  29.304  27.314  1.00  0.00    -0.052 C 
ATOM     52  H   UNL A   1      31.638  29.770  28.259  1.00  0.00     0.027 H 
ATOM     53  H   UNL A   1      30.442  29.006  27.147  1.00  0.00     0.027 H 
BRANCH  51  54
ATOM     54  C   UNL A   1      31.751  30.337  26.225  1.00  0.00    -0.052 C 
ATOM     55  H   UNL A   1      31.126  30.112  25.386  1.00  0.00     0.027 H 
ATOM     56  H   UNL A   1      32.800  30.254  26.032  1.00  0.00     0.027 H 
BRANCH  54  57
ATOM     57  C   UNL A   1      31.521  31.801  26.594  1.00  0.00    -0.036 C 
ATOM     58  H   UNL A   1      30.716  31.840  27.296  1.00  0.00     0.028 H 
ATOM     59  H   UNL A   1      31.321  32.304  25.671  1.00  0.00     0.028 H 
BRANCH  57  60
ATOM     60  C   UNL A   1      32.711  32.527  27.207  1.00  0.00     0.018 C 
ATOM     61  H   UNL A   1      33.508  32.533  26.494  1.00  0.00     0.049 H 
ATOM     62  H   UNL A   1      32.971  32.002  28.103  1.00  0.00     0.049 H 
BRANCH  60  63
ATOM     63  N   UNL A   1      32.421  33.901  27.586  1.00  0.00    -0.352 N 
ATOM     64  C   UNL A   1      33.031  34.703  28.523  1.00  0.00     0.251 C 
ATOM     65  H   UNL A   1      31.676  34.321  27.098  1.00  0.00     0.163 HD
ATOM     66  O   UNL A   1      32.569  35.809  28.784  1.00  0.00    -0.269 OA
BRANCH  64  67
ATOM     67  C   UNL A   1      34.227  34.219  29.250  1.00  0.00     0.039 A 
ATOM     68  C   UNL A   1      35.512  34.550  28.821  1.00  0.00    -0.049 A 
ATOM     69  C   UNL A   1      34.057  33.400  30.372  1.00  0.00    -0.049 A 
ATOM     70  C   UNL A   1      36.613  33.914  29.383  1.00  0.00    -0.053 A 
ATOM     71  H   UNL A   1      35.645  35.265  28.089  1.00  0.00     0.063 H 
ATOM     72  C   UNL A   1      35.175  32.843  31.004  1.00  0.00    -0.053 A 
ATOM     73  H   UNL A   1      33.110  33.207  30.732  1.00  0.00     0.063 H 
ATOM     74  C   UNL A   1      36.460  33.050  30.482  1.00  0.00    -0.014 A 
ATOM     75  H   UNL A   1      37.553  34.077  28.990  1.00  0.00     0.063 H 
ATOM     76  H   UNL A   1      35.052  32.277  31.859  1.00  0.00     0.063 H 
BRANCH  74  77
ATOM     77  C   UNL A   1      37.660  32.389  31.060  1.00  0.00     0.031 A 
ATOM     78  C   UNL A   1      38.132  32.713  32.453  1.00  0.00     0.074 A 
ATOM     79  C   UNL A   1      38.294  31.439  30.345  1.00  0.00     0.049 A 
ATOM     80  N   UNL A   1      39.125  32.192  33.130  1.00  0.00    -0.248 NA
ATOM     81  C   UNL A   1      37.401  33.762  33.181  1.00  0.00    -0.034 C 
ATOM     82  C   UNL A   1      37.931  31.033  28.986  1.00  0.00    -0.036 A 
ATOM     83  N   UNL A   1      39.349  30.622  30.663  1.00  0.00    -0.354 N 
ATOM     84  C   UNL A   1      39.144  32.853  34.352  1.00  0.00     0.074 A 
ATOM     85  C   UNL A   1      38.090  33.843  34.311  1.00  0.00    -0.034 C 
ATOM     86  H   UNL A   1      36.566  34.295  32.888  1.00  0.00     0.065 H 
ATOM     87  C   UNL A   1      38.703  30.005  28.612  1.00  0.00    -0.036 A 
ATOM     88  H   UNL A   1      37.196  31.471  28.407  1.00  0.00     0.065 H 
ATOM     89  C   UNL A   1      39.664  29.723  29.674  1.00  0.00     0.049 A 
ATOM     90  H   UNL A   1      39.834  30.677  31.519  1.00  0.00     0.167 HD
ATOM     91  C   UNL A   1      39.954  32.640  35.417  1.00  0.00     0.037 A 
ATOM     92  H   UNL A   1      37.900  34.525  35.062  1.00  0.00     0.065 H 
ATOM     93  H   UNL A   1      38.632  29.495  27.718  1.00  0.00     0.065 H 
ATOM     94  C   UNL A   1      40.623  28.779  29.619  1.00  0.00     0.037 A 
ATOM     95  C   UNL A   1      40.992  31.642  35.461  1.00  0.00     0.049 A 
ATOM     96  C   UNL A   1      41.543  28.600  30.793  1.00  0.00     0.074 A 
ATOM     97  C   UNL A   1      41.845  31.332  36.505  1.00  0.00    -0.036 A 
ATOM     98  N   UNL A   1      41.320  30.794  34.413  1.00  0.00    -0.354 N 
ATOM     99  N   UNL A   1      41.531  29.212  31.951  1.00  0.00    -0.248 NA
ATOM    100  C   UNL A   1      42.614  27.605  30.651  1.00  0.00    -0.034 C 
ATOM    101  C   UNL A   1      42.727  30.339  36.071  1.00  0.00    -0.036 A 
ATOM    102  H   UNL A   1      41.832  31.761  37.444  1.00  0.00     0.065 H 
ATOM    103  C   UNL A   1      42.385  29.983  34.777  1.00  0.00     0.049 A 
ATOM    104  H   UNL A   1      40.865  30.771  33.540  1.00  0.00     0.167 HD
ATOM    105  C   UNL A   1      42.578  28.669  32.682  1.00  0.00     0.074 A 
ATOM    106  C   UNL A   1      43.194  27.662  31.842  1.00  0.00    -0.034 C 
ATOM    107  H   UNL A   1      42.853  27.015  29.838  1.00  0.00     0.065 H 
ATOM    108  H   UNL A   1      43.503  29.939  36.621  1.00  0.00     0.065 H 
ATOM    109  C   UNL A   1      42.989  28.981  33.934  1.00  0.00     0.037 A 
ATOM    110  H   UNL A   1      43.985  27.066  32.134  1.00  0.00     0.065 H 
BRANCH  91 111
ATOM    111  C   UNL A   1      39.762  33.505  36.632  1.00  0.00     0.064 A 
ATOM    112  C   UNL A   1      40.424  34.735  36.773  1.00  0.00     0.173 A 
ATOM    113  C   UNL A   1      38.856  33.132  37.637  1.00  0.00     0.173 A 
ATOM    114  F   UNL A   1      41.306  35.137  35.846  1.00  0.00    -0.203 F 
ATOM    115  C   UNL A   1      40.202  35.547  37.883  1.00  0.00     0.198 A 
ATOM    116  C   UNL A   1      38.613  33.961  38.729  1.00  0.00     0.198 A 
ATOM    117  F   UNL A   1      38.189  31.973  37.548  1.00  0.00    -0.203 F 
ATOM    118  F   UNL A   1      40.876  36.698  38.015  1.00  0.00    -0.200 F 
ATOM    119  C   UNL A   1      39.290  35.163  38.855  1.00  0.00     0.200 A 
ATOM    120  F   UNL A   1      37.717  33.597  39.658  1.00  0.00    -0.200 F 
ATOM    121  F   UNL A   1      39.066  35.953  39.915  1.00  0.00    -0.200 F 
ENDBRANCH  91 111
BRANCH  94 122
ATOM    122  C   UNL A   1      40.738  27.929  28.406  1.00  0.00     0.064 A 
ATOM    123  C   UNL A   1      41.511  28.338  27.312  1.00  0.00     0.173 A 
ATOM    124  C   UNL A   1      40.126  26.668  28.338  1.00  0.00     0.173 A 
ATOM    125  F   UNL A   1      42.101  29.542  27.321  1.00  0.00    -0.203 F 
ATOM    126  C   UNL A   1      41.670  27.517  26.197  1.00  0.00     0.198 A 
ATOM    127  C   UNL A   1      40.311  25.835  27.238  1.00  0.00     0.198 A 
ATOM    128  F   UNL A   1      39.380  26.228  29.363  1.00  0.00    -0.203 F 
ATOM    129  F   UNL A   1      42.397  27.941  25.154  1.00  0.00    -0.200 F 
ATOM    130  C   UNL A   1      41.081  26.263  26.166  1.00  0.00     0.200 A 
ATOM    131  F   UNL A   1      39.757  24.616  27.222  1.00  0.00    -0.200 F 
ATOM    132  F   UNL A   1      41.255  25.463  25.105  1.00  0.00    -0.200 F 
ENDBRANCH  94 122
BRANCH 109 133
ATOM    133  C   UNL A   1      44.156  28.221  34.497  1.00  0.00     0.064 A 
ATOM    134  C   UNL A   1      43.980  27.002  35.168  1.00  0.00     0.173 A 
ATOM    135  C   UNL A   1      45.467  28.671  34.283  1.00  0.00     0.173 A 
ATOM    136  F   UNL A   1      42.746  26.536  35.410  1.00  0.00    -0.203 F 
ATOM    137  C   UNL A   1      45.077  26.266  35.612  1.00  0.00     0.198 A 
ATOM    138  C   UNL A   1      46.561  27.918  34.701  1.00  0.00     0.198 A 
ATOM    139  F   UNL A   1      45.690  29.827  33.640  1.00  0.00    -0.203 F 
ATOM    140  F   UNL A   1      44.885  25.119  36.278  1.00  0.00    -0.200 F 
ATOM    141  C   UNL A   1      46.365  26.718  35.367  1.00  0.00     0.200 A 
ATOM    142  F   UNL A   1      47.805  28.347  34.447  1.00  0.00    -0.200 F 
ATOM    143  F   UNL A   1      47.418  25.996  35.774  1.00  0.00    -0.200 F 
ENDBRANCH 109 133
ENDBRANCH  74  77
ENDBRANCH  64  67
ENDBRANCH  60  63
ENDBRANCH  57  60
ENDBRANCH  54  57
ENDBRANCH  51  54
ENDBRANCH   1  51
TORSDOF 19
ENDMDL
MODEL 3
REMARK VINA RESULT:     -12.1      4.750      7.377
REMARK SMILES Cc1cc(=O)c(Oc2ccc(C(=O)NCCCCCCNC(=O)c3ccc(-c4c5nc(c(-c6c(F)c(F)c(F)c(F)c6F)c6ccc([nH]6)c(-c6c(F)c(F)c(F)c(F)c6F)c6nc(c(-c7c(F)c(F)c(F)c(F)c7F)c7ccc4[nH]7)C=C6)C=C5)cc3)cc2)c(-c2ccc(S(C)(=O)=O)cc2)o1
REMARK SMILES IDX 16 1 15 4 14 7 12 8 13 9 11 11 8 12 9 13 88 14 10 15 87 17
REMARK SMILES IDX 7 21 6 22 2 23 3 24 100 25 4 26 89 28 5 29 1 30 90 34 91 35
REMARK SMILES IDX 99 36 92 37 98 39 93 41 94 44 96 45 97 46 95 47 17 51 18 54
REMARK SMILES IDX 19 57 20 60 21 63 22 64 23 66 24 67 25 68 86 69 26 70 85 72
REMARK SMILES IDX 27 74 28 77 29 78 79 79 30 80 84 81 78 82 80 83 31 84 83 85
REMARK SMILES IDX 77 87 76 89 32 91 64 94 44 95 63 96 45 97 48 98 62 99 81 100
REMARK SMILES IDX 46 101 47 103 61 105 82 106 49 109 33 111 34 112 42 113
REMARK SMILES IDX 35 114 36 115 40 116 43 117 37 118 38 119 41 120 39 121
REMARK SMILES IDX 65 122 66 123 74 124 67 125 68 126 72 127 75 128 69 129
REMARK SMILES IDX 70 130 73 131 71 132 50 133 51 134 59 135 52 136 53 137
REMARK SMILES IDX 57 138 60 139 54 140 55 141 58 142 56 143
REMARK H PARENT 16 2 16 3 15 5 15 6 14 10 9 16 88 18 10 19 87 20 3 27 1 31
REMARK H PARENT 1 32 1 33 91 38 99 40 92 42 98 43 95 48 95 49 95 50 17 52
REMARK H PARENT 17 53 18 55 18 56 19 58 19 59 20 61 20 62 21 65 25 71 86 73
REMARK H PARENT 26 75 85 76 84 86 78 88 80 90 83 92 77 93 45 102 48 104 81 107
REMARK H PARENT 46 108 82 110
REMARK Flexibility Score: inf
ROOT
ATOM      1  C   UNL A   1      40.176  22.936  27.471  1.00  0.00    -0.036 C 
ATOM      2  H   UNL A   1      39.726  23.148  28.418  1.00  0.00     0.028 H 
ATOM      3  H   UNL A   1      40.888  23.659  27.128  1.00  0.00     0.028 H 
ENDROOT
BRANCH   1   4
ATOM      4  C   UNL A   1      39.067  22.958  26.423  1.00  0.00     0.018 C 
ATOM      5  H   UNL A   1      38.210  23.426  26.864  1.00  0.00     0.049 H 
ATOM      6  H   UNL A   1      39.470  23.486  25.585  1.00  0.00     0.049 H 
BRANCH   4   7
ATOM      7  N   UNL A   1      38.654  21.667  25.913  1.00  0.00    -0.352 N 
ATOM      8  C   UNL A   1      37.580  21.314  25.125  1.00  0.00     0.251 C 
ATOM      9  O   UNL A   1      37.503  20.160  24.706  1.00  0.00    -0.269 OA
ATOM     10  H   UNL A   1      39.238  20.918  26.171  1.00  0.00     0.163 HD
BRANCH   8  11
ATOM     11  C   UNL A   1      36.454  22.253  24.864  1.00  0.00     0.040 A 
ATOM     12  C   UNL A   1      34.786  24.453  24.511  1.00  0.00     0.127 A 
ATOM     13  C   UNL A   1      34.995  23.960  25.793  1.00  0.00    -0.019 A 
ATOM     14  C   UNL A   1      35.207  23.716  23.405  1.00  0.00    -0.019 A 
ATOM     15  C   UNL A   1      35.865  22.881  25.972  1.00  0.00    -0.046 A 
ATOM     16  H   UNL A   1      34.515  24.383  26.601  1.00  0.00     0.066 H 
ATOM     17  C   UNL A   1      36.013  22.592  23.584  1.00  0.00    -0.046 A 
ATOM     18  H   UNL A   1      34.924  24.004  22.455  1.00  0.00     0.066 H 
ATOM     19  H   UNL A   1      36.075  22.544  26.925  1.00  0.00     0.063 H 
ATOM     20  H   UNL A   1      36.281  22.013  22.774  1.00  0.00     0.063 H 
BRANCH  12  21
ATOM     21  O   UNL A   1      34.102  25.604  24.261  1.00  0.00    -0.449 OA
BRANCH  21  22
ATOM     22  C   UNL A   1      32.715  25.699  24.251  1.00  0.00     0.217 A 
ATOM     23  C   UNL A   1      29.963  26.377  24.112  1.00  0.00     0.105 A 
ATOM     24  C   UNL A   1      30.813  27.402  24.200  1.00  0.00     0.028 A 
ATOM     25  O   UNL A   1      30.379  25.064  24.163  1.00  0.00    -0.457 OA
ATOM     26  C   UNL A   1      32.250  27.123  24.319  1.00  0.00     0.228 A 
ATOM     27  H   UNL A   1      30.466  28.374  24.184  1.00  0.00     0.070 H 
ATOM     28  C   UNL A   1      31.736  24.754  24.229  1.00  0.00     0.180 A 
ATOM     29  O   UNL A   1      33.029  28.060  24.471  1.00  0.00    -0.285 OA
BRANCH  23  30
ATOM     30  C   UNL A   1      28.487  26.553  23.954  1.00  0.00    -0.006 C 
ATOM     31  H   UNL A   1      28.006  26.401  24.898  1.00  0.00     0.031 H 
ATOM     32  H   UNL A   1      28.117  25.840  23.247  1.00  0.00     0.031 H 
ATOM     33  H   UNL A   1      28.281  27.543  23.603  1.00  0.00     0.031 H 
ENDBRANCH  23  30
BRANCH  28  34
ATOM     34  C   UNL A   1      31.900  23.288  24.237  1.00  0.00     0.021 A 
ATOM     35  C   UNL A   1      32.012  22.595  23.018  1.00  0.00    -0.050 A 
ATOM     36  C   UNL A   1      31.931  22.562  25.438  1.00  0.00    -0.050 A 
ATOM     37  C   UNL A   1      32.242  21.217  22.999  1.00  0.00    -0.043 A 
ATOM     38  H   UNL A   1      31.923  23.111  22.129  1.00  0.00     0.063 H 
ATOM     39  C   UNL A   1      32.149  21.180  25.424  1.00  0.00    -0.043 A 
ATOM     40  H   UNL A   1      31.792  23.051  26.336  1.00  0.00     0.063 H 
ATOM     41  C   UNL A   1      32.318  20.518  24.206  1.00  0.00     0.067 A 
ATOM     42  H   UNL A   1      32.354  20.721  22.102  1.00  0.00     0.064 H 
ATOM     43  H   UNL A   1      32.185  20.653  26.311  1.00  0.00     0.064 H 
BRANCH  41  44
ATOM     44  S   UNL A   1      32.744  18.789  24.177  1.00  0.00     0.175 S 
ATOM     45  O   UNL A   1      32.059  18.159  25.287  1.00  0.00    -0.224 OA
ATOM     46  O   UNL A   1      32.577  18.311  22.816  1.00  0.00    -0.224 OA
BRANCH  44  47
ATOM     47  C   UNL A   1      34.478  18.774  24.533  1.00  0.00     0.043 C 
ATOM     48  H   UNL A   1      34.714  17.912  25.121  1.00  0.00     0.040 H 
ATOM     49  H   UNL A   1      34.737  19.658  25.077  1.00  0.00     0.040 H 
ATOM     50  H   UNL A   1      35.029  18.744  23.617  1.00  0.00     0.040 H 
ENDBRANCH  44  47
ENDBRANCH  41  44
ENDBRANCH  28  34
ENDBRANCH  21  22
ENDBRANCH  12  21
ENDBRANCH   8  11
ENDBRANCH   4   7
ENDBRANCH   1   4
BRANCH   1  51
ATOM     51  C   UNL A   1      40.979  21.645  27.626  1.00  0.00    -0.052 C 
ATOM     52  H   UNL A   1      40.543  20.915  26.977  1.00  0.00     0.027 H 
ATOM     53  H   UNL A   1      40.929  21.409  28.668  1.00  0.00     0.027 H 
BRANCH  51  54
ATOM     54  C   UNL A   1      42.473  21.715  27.305  1.00  0.00    -0.052 C 
ATOM     55  H   UNL A   1      42.938  20.850  27.732  1.00  0.00     0.027 H 
ATOM     56  H   UNL A   1      42.807  22.646  27.712  1.00  0.00     0.027 H 
BRANCH  54  57
ATOM     57  C   UNL A   1      42.852  21.760  25.826  1.00  0.00    -0.036 C 
ATOM     58  H   UNL A   1      42.216  21.077  25.304  1.00  0.00     0.028 H 
ATOM     59  H   UNL A   1      43.891  21.509  25.786  1.00  0.00     0.028 H 
BRANCH  57  60
ATOM     60  C   UNL A   1      42.731  23.119  25.150  1.00  0.00     0.018 C 
ATOM     61  H   UNL A   1      42.202  23.778  25.807  1.00  0.00     0.049 H 
ATOM     62  H   UNL A   1      42.214  22.965  24.226  1.00  0.00     0.049 H 
BRANCH  60  63
ATOM     63  N   UNL A   1      44.014  23.723  24.826  1.00  0.00    -0.352 N 
ATOM     64  C   UNL A   1      44.556  24.917  25.245  1.00  0.00     0.251 C 
ATOM     65  H   UNL A   1      44.581  23.199  24.216  1.00  0.00     0.163 HD
ATOM     66  O   UNL A   1      45.615  25.315  24.770  1.00  0.00    -0.269 OA
BRANCH  64  67
ATOM     67  C   UNL A   1      43.842  25.747  26.243  1.00  0.00     0.039 A 
ATOM     68  C   UNL A   1      43.893  27.139  26.187  1.00  0.00    -0.049 A 
ATOM     69  C   UNL A   1      43.125  25.117  27.266  1.00  0.00    -0.049 A 
ATOM     70  C   UNL A   1      43.401  27.891  27.248  1.00  0.00    -0.053 A 
ATOM     71  H   UNL A   1      44.294  27.610  25.361  1.00  0.00     0.063 H 
ATOM     72  C   UNL A   1      42.538  25.883  28.279  1.00  0.00    -0.053 A 
ATOM     73  H   UNL A   1      43.030  24.090  27.273  1.00  0.00     0.063 H 
ATOM     74  C   UNL A   1      42.718  27.273  28.310  1.00  0.00    -0.014 A 
ATOM     75  H   UNL A   1      43.539  28.914  27.256  1.00  0.00     0.063 H 
ATOM     76  H   UNL A   1      41.971  25.421  29.008  1.00  0.00     0.063 H 
BRANCH  74  77
ATOM     77  C   UNL A   1      42.203  28.109  29.428  1.00  0.00     0.031 A 
ATOM     78  C   UNL A   1      40.886  28.831  29.315  1.00  0.00     0.074 A 
ATOM     79  C   UNL A   1      42.900  28.166  30.579  1.00  0.00     0.049 A 
ATOM     80  N   UNL A   1      40.264  29.556  30.212  1.00  0.00    -0.248 NA
ATOM     81  C   UNL A   1      40.175  28.733  28.032  1.00  0.00    -0.034 C 
ATOM     82  C   UNL A   1      44.187  27.508  30.812  1.00  0.00    -0.036 A 
ATOM     83  N   UNL A   1      42.618  28.774  31.776  1.00  0.00    -0.354 N 
ATOM     84  C   UNL A   1      39.101  30.008  29.599  1.00  0.00     0.074 A 
ATOM     85  C   UNL A   1      39.121  29.510  28.241  1.00  0.00    -0.034 C 
ATOM     86  H   UNL A   1      40.430  28.197  27.187  1.00  0.00     0.065 H 
ATOM     87  C   UNL A   1      44.551  27.692  32.088  1.00  0.00    -0.036 A 
ATOM     88  H   UNL A   1      44.728  26.985  30.104  1.00  0.00     0.065 H 
ATOM     89  C   UNL A   1      43.562  28.539  32.746  1.00  0.00     0.049 A 
ATOM     90  H   UNL A   1      41.816  29.326  31.925  1.00  0.00     0.167 HD
ATOM     91  C   UNL A   1      38.101  30.752  30.128  1.00  0.00     0.037 A 
ATOM     92  H   UNL A   1      38.409  29.731  27.528  1.00  0.00     0.065 H 
ATOM     93  H   UNL A   1      45.395  27.299  32.533  1.00  0.00     0.065 H 
ATOM     94  C   UNL A   1      43.633  28.963  34.022  1.00  0.00     0.037 A 
ATOM     95  C   UNL A   1      38.077  31.233  31.487  1.00  0.00     0.049 A 
ATOM     96  C   UNL A   1      42.536  29.833  34.568  1.00  0.00     0.074 A 
ATOM     97  C   UNL A   1      37.093  31.970  32.122  1.00  0.00    -0.036 A 
ATOM     98  N   UNL A   1      39.084  31.026  32.418  1.00  0.00    -0.354 N 
ATOM     99  N   UNL A   1      41.431  30.227  33.987  1.00  0.00    -0.248 NA
ATOM    100  C   UNL A   1      42.700  30.323  35.943  1.00  0.00    -0.034 C 
ATOM    101  C   UNL A   1      37.530  32.260  33.416  1.00  0.00    -0.036 A 
ATOM    102  H   UNL A   1      36.191  32.257  31.709  1.00  0.00     0.065 H 
ATOM    103  C   UNL A   1      38.758  31.650  33.613  1.00  0.00     0.049 A 
ATOM    104  H   UNL A   1      39.908  30.513  32.255  1.00  0.00     0.167 HD
ATOM    105  C   UNL A   1      40.759  30.997  34.925  1.00  0.00     0.074 A 
ATOM    106  C   UNL A   1      41.573  30.998  36.124  1.00  0.00    -0.034 C 
ATOM    107  H   UNL A   1      43.485  30.178  36.597  1.00  0.00     0.065 H 
ATOM    108  H   UNL A   1      37.023  32.833  34.110  1.00  0.00     0.065 H 
ATOM    109  C   UNL A   1      39.575  31.644  34.801  1.00  0.00     0.037 A 
ATOM    110  H   UNL A   1      41.310  31.467  37.005  1.00  0.00     0.065 H 
BRANCH  91 111
ATOM    111  C   UNL A   1      36.941  31.107  29.239  1.00  0.00     0.064 A 
ATOM    112  C   UNL A   1      35.942  30.174  28.924  1.00  0.00     0.173 A 
ATOM    113  C   UNL A   1      36.792  32.415  28.750  1.00  0.00     0.173 A 
ATOM    114  F   UNL A   1      36.039  28.908  29.359  1.00  0.00    -0.203 F 
ATOM    115  C   UNL A   1      34.850  30.530  28.136  1.00  0.00     0.198 A 
ATOM    116  C   UNL A   1      35.682  32.775  27.990  1.00  0.00     0.198 A 
ATOM    117  F   UNL A   1      37.711  33.350  29.029  1.00  0.00    -0.203 F 
ATOM    118  F   UNL A   1      33.929  29.609  27.815  1.00  0.00    -0.200 F 
ATOM    119  C   UNL A   1      34.716  31.832  27.678  1.00  0.00     0.200 A 
ATOM    120  F   UNL A   1      35.546  34.039  27.563  1.00  0.00    -0.200 F 
ATOM    121  F   UNL A   1      33.656  32.176  26.933  1.00  0.00    -0.200 F 
ENDBRANCH  91 111
BRANCH  94 122
ATOM    122  C   UNL A   1      44.785  28.547  34.863  1.00  0.00     0.064 A 
ATOM    123  C   UNL A   1      44.734  27.368  35.619  1.00  0.00     0.173 A 
ATOM    124  C   UNL A   1      45.977  29.286  34.886  1.00  0.00     0.173 A 
ATOM    125  F   UNL A   1      43.611  26.637  35.645  1.00  0.00    -0.203 F 
ATOM    126  C   UNL A   1      45.834  26.943  36.362  1.00  0.00     0.198 A 
ATOM    127  C   UNL A   1      47.086  28.845  35.603  1.00  0.00     0.198 A 
ATOM    128  F   UNL A   1      46.078  30.420  34.175  1.00  0.00    -0.203 F 
ATOM    129  F   UNL A   1      45.752  25.823  37.094  1.00  0.00    -0.200 F 
ATOM    130  C   UNL A   1      47.012  27.675  36.343  1.00  0.00     0.200 A 
ATOM    131  F   UNL A   1      48.228  29.543  35.565  1.00  0.00    -0.200 F 
ATOM    132  F   UNL A   1      48.077  27.252  37.038  1.00  0.00    -0.200 F 
ENDBRANCH  94 122
BRANCH 109 133
ATOM    133  C   UNL A   1      39.065  32.403  35.992  1.00  0.00     0.064 A 
ATOM    134  C   UNL A   1      38.307  31.776  36.991  1.00  0.00     0.173 A 
ATOM    135  C   UNL A   1      39.414  33.749  36.179  1.00  0.00     0.173 A 
ATOM    136  F   UNL A   1      37.934  30.495  36.851  1.00  0.00    -0.203 F 
ATOM    137  C   UNL A   1      37.910  32.472  38.130  1.00  0.00     0.198 A 
ATOM    138  C   UNL A   1      39.043  34.432  37.333  1.00  0.00     0.198 A 
ATOM    139  F   UNL A   1      40.144  34.394  35.256  1.00  0.00    -0.203 F 
ATOM    140  F   UNL A   1      37.160  31.861  39.058  1.00  0.00    -0.200 F 
ATOM    141  C   UNL A   1      38.289  33.794  38.307  1.00  0.00     0.200 A 
ATOM    142  F   UNL A   1      39.425  35.705  37.511  1.00  0.00    -0.200 F 
ATOM    143  F   UNL A   1      37.926  34.454  39.416  1.00  0.00    -0.200 F 
ENDBRANCH 109 133
ENDBRANCH  74  77
ENDBRANCH  64  67
ENDBRANCH  60  63
ENDBRANCH  57  60
ENDBRANCH  54  57
ENDBRANCH  51  54
ENDBRANCH   1  51
TORSDOF 19
ENDMDL
MODEL 4
REMARK VINA RESULT:     -12.0      4.802      9.114
REMARK SMILES Cc1cc(=O)c(Oc2ccc(C(=O)NCCCCCCNC(=O)c3ccc(-c4c5nc(c(-c6c(F)c(F)c(F)c(F)c6F)c6ccc([nH]6)c(-c6c(F)c(F)c(F)c(F)c6F)c6nc(c(-c7c(F)c(F)c(F)c(F)c7F)c7ccc4[nH]7)C=C6)C=C5)cc3)cc2)c(-c2ccc(S(C)(=O)=O)cc2)o1
REMARK SMILES IDX 16 1 15 4 14 7 12 8 13 9 11 11 8 12 9 13 88 14 10 15 87 17
REMARK SMILES IDX 7 21 6 22 2 23 3 24 100 25 4 26 89 28 5 29 1 30 90 34 91 35
REMARK SMILES IDX 99 36 92 37 98 39 93 41 94 44 96 45 97 46 95 47 17 51 18 54
REMARK SMILES IDX 19 57 20 60 21 63 22 64 23 66 24 67 25 68 86 69 26 70 85 72
REMARK SMILES IDX 27 74 28 77 29 78 79 79 30 80 84 81 78 82 80 83 31 84 83 85
REMARK SMILES IDX 77 87 76 89 32 91 64 94 44 95 63 96 45 97 48 98 62 99 81 100
REMARK SMILES IDX 46 101 47 103 61 105 82 106 49 109 33 111 34 112 42 113
REMARK SMILES IDX 35 114 36 115 40 116 43 117 37 118 38 119 41 120 39 121
REMARK SMILES IDX 65 122 66 123 74 124 67 125 68 126 72 127 75 128 69 129
REMARK SMILES IDX 70 130 73 131 71 132 50 133 51 134 59 135 52 136 53 137
REMARK SMILES IDX 57 138 60 139 54 140 55 141 58 142 56 143
REMARK H PARENT 16 2 16 3 15 5 15 6 14 10 9 16 88 18 10 19 87 20 3 27 1 31
REMARK H PARENT 1 32 1 33 91 38 99 40 92 42 98 43 95 48 95 49 95 50 17 52
REMARK H PARENT 17 53 18 55 18 56 19 58 19 59 20 61 20 62 21 65 25 71 86 73
REMARK H PARENT 26 75 85 76 84 86 78 88 80 90 83 92 77 93 45 102 48 104 81 107
REMARK H PARENT 46 108 82 110
REMARK Flexibility Score: inf
ROOT
ATOM      1  C   UNL A   1      40.343  22.509  27.502  1.00  0.00    -0.036 C 
ATOM      2  H   UNL A   1      39.829  22.487  28.440  1.00  0.00     0.028 H 
ATOM      3  H   UNL A   1      40.983  23.354  27.348  1.00  0.00     0.028 H 
ENDROOT
BRANCH   1   4
ATOM      4  C   UNL A   1      39.287  22.617  26.406  1.00  0.00     0.018 C 
ATOM      5  H   UNL A   1      38.444  23.136  26.814  1.00  0.00     0.049 H 
ATOM      6  H   UNL A   1      39.763  23.128  25.595  1.00  0.00     0.049 H 
BRANCH   4   7
ATOM      7  N   UNL A   1      38.815  21.364  25.857  1.00  0.00    -0.352 N 
ATOM      8  C   UNL A   1      37.703  21.079  25.095  1.00  0.00     0.251 C 
ATOM      9  O   UNL A   1      37.573  19.947  24.631  1.00  0.00    -0.269 OA
ATOM     10  H   UNL A   1      39.382  20.587  26.062  1.00  0.00     0.163 HD
BRANCH   8  11
ATOM     11  C   UNL A   1      36.600  22.063  24.914  1.00  0.00     0.040 A 
ATOM     12  C   UNL A   1      34.966  24.315  24.813  1.00  0.00     0.127 A 
ATOM     13  C   UNL A   1      35.083  23.615  26.007  1.00  0.00    -0.019 A 
ATOM     14  C   UNL A   1      35.462  23.763  23.633  1.00  0.00    -0.019 A 
ATOM     15  C   UNL A   1      35.936  22.509  26.067  1.00  0.00    -0.046 A 
ATOM     16  H   UNL A   1      34.548  23.907  26.840  1.00  0.00     0.066 H 
ATOM     17  C   UNL A   1      36.251  22.614  23.680  1.00  0.00    -0.046 A 
ATOM     18  H   UNL A   1      35.248  24.206  22.726  1.00  0.00     0.066 H 
ATOM     19  H   UNL A   1      36.078  22.018  26.964  1.00  0.00     0.063 H 
ATOM     20  H   UNL A   1      36.574  22.172  22.806  1.00  0.00     0.063 H 
BRANCH  12  21
ATOM     21  O   UNL A   1      34.304  25.501  24.709  1.00  0.00    -0.449 OA
BRANCH  21  22
ATOM     22  C   UNL A   1      32.925  25.612  24.570  1.00  0.00     0.217 A 
ATOM     23  C   UNL A   1      30.205  26.327  24.191  1.00  0.00     0.105 A 
ATOM     24  C   UNL A   1      31.053  27.339  24.390  1.00  0.00     0.028 A 
ATOM     25  O   UNL A   1      30.602  25.008  24.242  1.00  0.00    -0.457 OA
ATOM     26  C   UNL A   1      32.469  27.040  24.636  1.00  0.00     0.228 A 
ATOM     27  H   UNL A   1      30.718  28.315  24.371  1.00  0.00     0.070 H 
ATOM     28  C   UNL A   1      31.944  24.680  24.427  1.00  0.00     0.180 A 
ATOM     29  O   UNL A   1      33.239  27.962  24.890  1.00  0.00    -0.285 OA
BRANCH  23  30
ATOM     30  C   UNL A   1      28.752  26.527  23.898  1.00  0.00    -0.006 C 
ATOM     31  H   UNL A   1      28.520  27.570  23.939  1.00  0.00     0.031 H 
ATOM     32  H   UNL A   1      28.168  26.003  24.626  1.00  0.00     0.031 H 
ATOM     33  H   UNL A   1      28.530  26.148  22.923  1.00  0.00     0.031 H 
ENDBRANCH  23  30
BRANCH  28  34
ATOM     34  C   UNL A   1      32.092  23.213  24.406  1.00  0.00     0.021 A 
ATOM     35  C   UNL A   1      32.342  22.557  23.187  1.00  0.00    -0.050 A 
ATOM     36  C   UNL A   1      31.974  22.450  25.578  1.00  0.00    -0.050 A 
ATOM     37  C   UNL A   1      32.560  21.177  23.151  1.00  0.00    -0.043 A 
ATOM     38  H   UNL A   1      32.364  23.102  22.311  1.00  0.00     0.063 H 
ATOM     39  C   UNL A   1      32.180  21.066  25.545  1.00  0.00    -0.043 A 
ATOM     40  H   UNL A   1      31.733  22.911  26.468  1.00  0.00     0.063 H 
ATOM     41  C   UNL A   1      32.487  20.440  24.335  1.00  0.00     0.067 A 
ATOM     42  H   UNL A   1      32.773  20.708  22.257  1.00  0.00     0.064 H 
ATOM     43  H   UNL A   1      32.105  20.510  26.412  1.00  0.00     0.064 H 
BRANCH  41  44
ATOM     44  S   UNL A   1      32.897  18.708  24.300  1.00  0.00     0.175 S 
ATOM     45  O   UNL A   1      34.341  18.607  24.337  1.00  0.00    -0.224 OA
ATOM     46  O   UNL A   1      32.066  18.032  25.281  1.00  0.00    -0.224 OA
BRANCH  44  47
ATOM     47  C   UNL A   1      32.360  18.178  22.699  1.00  0.00     0.043 C 
ATOM     48  H   UNL A   1      31.660  18.885  22.305  1.00  0.00     0.040 H 
ATOM     49  H   UNL A   1      31.890  17.220  22.779  1.00  0.00     0.040 H 
ATOM     50  H   UNL A   1      33.203  18.107  22.045  1.00  0.00     0.040 H 
ENDBRANCH  44  47
ENDBRANCH  41  44
ENDBRANCH  28  34
ENDBRANCH  21  22
ENDBRANCH  12  21
ENDBRANCH   8  11
ENDBRANCH   4   7
ENDBRANCH   1   4
BRANCH   1  51
ATOM     51  C   UNL A   1      41.280  21.302  27.466  1.00  0.00    -0.052 C 
ATOM     52  H   UNL A   1      40.926  20.641  26.703  1.00  0.00     0.027 H 
ATOM     53  H   UNL A   1      41.255  20.900  28.457  1.00  0.00     0.027 H 
BRANCH  51  54
ATOM     54  C   UNL A   1      42.759  21.579  27.187  1.00  0.00    -0.052 C 
ATOM     55  H   UNL A   1      43.328  20.797  27.645  1.00  0.00     0.027 H 
ATOM     56  H   UNL A   1      42.943  22.555  27.584  1.00  0.00     0.027 H 
BRANCH  54  57
ATOM     57  C   UNL A   1      43.173  21.654  25.719  1.00  0.00    -0.036 C 
ATOM     58  H   UNL A   1      42.614  20.917  25.183  1.00  0.00     0.028 H 
ATOM     59  H   UNL A   1      44.230  21.494  25.709  1.00  0.00     0.028 H 
BRANCH  57  60
ATOM     60  C   UNL A   1      42.953  22.996  25.034  1.00  0.00     0.018 C 
ATOM     61  H   UNL A   1      42.373  23.617  25.684  1.00  0.00     0.049 H 
ATOM     62  H   UNL A   1      42.454  22.797  24.108  1.00  0.00     0.049 H 
BRANCH  60  63
ATOM     63  N   UNL A   1      44.189  23.693  24.712  1.00  0.00    -0.352 N 
ATOM     64  C   UNL A   1      44.657  24.906  25.160  1.00  0.00     0.251 C 
ATOM     65  H   UNL A   1      44.779  23.226  24.078  1.00  0.00     0.163 HD
ATOM     66  O   UNL A   1      45.680  25.388  24.685  1.00  0.00    -0.269 OA
BRANCH  64  67
ATOM     67  C   UNL A   1      43.906  25.657  26.193  1.00  0.00     0.039 A 
ATOM     68  C   UNL A   1      44.116  27.022  26.384  1.00  0.00    -0.049 A 
ATOM     69  C   UNL A   1      42.989  24.974  27.000  1.00  0.00    -0.049 A 
ATOM     70  C   UNL A   1      43.565  27.657  27.492  1.00  0.00    -0.053 A 
ATOM     71  H   UNL A   1      44.677  27.560  25.705  1.00  0.00     0.063 H 
ATOM     72  C   UNL A   1      42.353  25.642  28.052  1.00  0.00    -0.053 A 
ATOM     73  H   UNL A   1      42.782  23.979  26.819  1.00  0.00     0.063 H 
ATOM     74  C   UNL A   1      42.678  26.975  28.342  1.00  0.00    -0.014 A 
ATOM     75  H   UNL A   1      43.811  28.639  27.692  1.00  0.00     0.063 H 
ATOM     76  H   UNL A   1      41.643  25.151  28.618  1.00  0.00     0.063 H 
BRANCH  74  77
ATOM     77  C   UNL A   1      42.105  27.687  29.517  1.00  0.00     0.031 A 
ATOM     78  C   UNL A   1      42.818  27.694  30.844  1.00  0.00     0.074 A 
ATOM     79  C   UNL A   1      40.964  28.386  29.368  1.00  0.00     0.049 A 
ATOM     80  N   UNL A   1      42.488  28.307  31.954  1.00  0.00    -0.248 NA
ATOM     81  C   UNL A   1      44.057  26.908  30.944  1.00  0.00    -0.034 C 
ATOM     82  C   UNL A   1      40.183  28.459  28.132  1.00  0.00    -0.036 A 
ATOM     83  N   UNL A   1      40.277  29.191  30.242  1.00  0.00    -0.354 N 
ATOM     84  C   UNL A   1      43.467  27.973  32.881  1.00  0.00     0.074 A 
ATOM     85  C   UNL A   1      44.383  27.070  32.219  1.00  0.00    -0.034 C 
ATOM     86  H   UNL A   1      44.546  26.370  30.211  1.00  0.00     0.065 H 
ATOM     87  C   UNL A   1      39.165  29.313  28.305  1.00  0.00    -0.036 A 
ATOM     88  H   UNL A   1      40.385  27.936  27.265  1.00  0.00     0.065 H 
ATOM     89  C   UNL A   1      39.177  29.793  29.682  1.00  0.00     0.049 A 
ATOM     90  H   UNL A   1      40.548  29.324  31.179  1.00  0.00     0.167 HD
ATOM     91  C   UNL A   1      43.600  28.396  34.161  1.00  0.00     0.037 A 
ATOM     92  H   UNL A   1      45.185  26.611  32.679  1.00  0.00     0.065 H 
ATOM     93  H   UNL A   1      38.481  29.585  27.581  1.00  0.00     0.065 H 
ATOM     94  C   UNL A   1      38.269  30.632  30.217  1.00  0.00     0.037 A 
ATOM     95  C   UNL A   1      42.695  29.309  34.813  1.00  0.00     0.049 A 
ATOM     96  C   UNL A   1      38.409  31.044  31.655  1.00  0.00     0.074 A 
ATOM     97  C   UNL A   1      42.762  29.819  36.098  1.00  0.00    -0.036 A 
ATOM     98  N   UNL A   1      41.555  29.845  34.230  1.00  0.00    -0.354 N 
ATOM     99  N   UNL A   1      39.355  30.744  32.510  1.00  0.00    -0.248 NA
ATOM    100  C   UNL A   1      37.354  31.904  32.205  1.00  0.00    -0.034 C 
ATOM    101  C   UNL A   1      41.635  30.615  36.313  1.00  0.00    -0.036 A 
ATOM    102  H   UNL A   1      43.516  29.640  36.780  1.00  0.00     0.065 H 
ATOM    103  C   UNL A   1      40.895  30.656  35.142  1.00  0.00     0.049 A 
ATOM    104  H   UNL A   1      41.259  29.677  33.307  1.00  0.00     0.167 HD
ATOM    105  C   UNL A   1      39.021  31.388  33.692  1.00  0.00     0.074 A 
ATOM    106  C   UNL A   1      37.792  32.113  33.439  1.00  0.00    -0.034 C 
ATOM    107  H   UNL A   1      36.496  32.256  31.750  1.00  0.00     0.065 H 
ATOM    108  H   UNL A   1      41.393  31.092  37.196  1.00  0.00     0.065 H 
ATOM    109  C   UNL A   1      39.674  31.375  34.879  1.00  0.00     0.037 A 
ATOM    110  H   UNL A   1      37.318  32.714  34.132  1.00  0.00     0.065 H 
BRANCH  91 111
ATOM    111  C   UNL A   1      44.765  27.877  34.958  1.00  0.00     0.064 A 
ATOM    112  C   UNL A   1      46.002  28.539  34.972  1.00  0.00     0.173 A 
ATOM    113  C   UNL A   1      44.622  26.741  35.771  1.00  0.00     0.173 A 
ATOM    114  F   UNL A   1      46.195  29.625  34.208  1.00  0.00    -0.203 F 
ATOM    115  C   UNL A   1      47.058  28.071  35.751  1.00  0.00     0.198 A 
ATOM    116  C   UNL A   1      45.670  26.295  36.572  1.00  0.00     0.198 A 
ATOM    117  F   UNL A   1      43.459  26.076  35.804  1.00  0.00    -0.203 F 
ATOM    118  F   UNL A   1      48.243  28.697  35.715  1.00  0.00    -0.200 F 
ATOM    119  C   UNL A   1      46.888  26.956  36.557  1.00  0.00     0.200 A 
ATOM    120  F   UNL A   1      45.498  25.227  37.364  1.00  0.00    -0.200 F 
ATOM    121  F   UNL A   1      47.901  26.516  37.318  1.00  0.00    -0.200 F 
ENDBRANCH  91 111
BRANCH  94 122
ATOM    122  C   UNL A   1      37.162  31.143  29.368  1.00  0.00     0.064 A 
ATOM    123  C   UNL A   1      36.075  30.324  29.035  1.00  0.00     0.173 A 
ATOM    124  C   UNL A   1      37.138  32.472  28.921  1.00  0.00     0.173 A 
ATOM    125  F   UNL A   1      36.060  29.040  29.423  1.00  0.00    -0.203 F 
ATOM    126  C   UNL A   1      35.006  30.817  28.290  1.00  0.00     0.198 A 
ATOM    127  C   UNL A   1      36.056  32.973  28.203  1.00  0.00     0.198 A 
ATOM    128  F   UNL A   1      38.153  33.299  29.219  1.00  0.00    -0.203 F 
ATOM    129  F   UNL A   1      33.989  30.006  27.965  1.00  0.00    -0.200 F 
ATOM    130  C   UNL A   1      34.991  32.142  27.885  1.00  0.00     0.200 A 
ATOM    131  F   UNL A   1      36.036  34.260  27.833  1.00  0.00    -0.200 F 
ATOM    132  F   UNL A   1      33.951  32.622  27.190  1.00  0.00    -0.200 F 
ENDBRANCH  94 122
BRANCH 109 133
ATOM    133  C   UNL A   1      39.092  32.180  36.006  1.00  0.00     0.064 A 
ATOM    134  C   UNL A   1      38.211  31.609  36.935  1.00  0.00     0.173 A 
ATOM    135  C   UNL A   1      39.492  33.510  36.209  1.00  0.00     0.173 A 
ATOM    136  F   UNL A   1      37.787  30.347  36.776  1.00  0.00    -0.203 F 
ATOM    137  C   UNL A   1      37.744  32.344  38.022  1.00  0.00     0.198 A 
ATOM    138  C   UNL A   1      39.048  34.230  37.314  1.00  0.00     0.198 A 
ATOM    139  F   UNL A   1      40.340  34.101  35.353  1.00  0.00    -0.203 F 
ATOM    140  F   UNL A   1      36.878  31.788  38.881  1.00  0.00    -0.200 F 
ATOM    141  C   UNL A   1      38.172  33.648  38.218  1.00  0.00     0.200 A 
ATOM    142  F   UNL A   1      39.477  35.485  37.512  1.00  0.00    -0.200 F 
ATOM    143  F   UNL A   1      37.741  34.344  39.279  1.00  0.00    -0.200 F 
ENDBRANCH 109 133
ENDBRANCH  74  77
ENDBRANCH  64  67
ENDBRANCH  60  63
ENDBRANCH  57  60
ENDBRANCH  54  57
ENDBRANCH  51  54
ENDBRANCH   1  51
TORSDOF 19
ENDMDL
MODEL 5
REMARK VINA RESULT:     -11.9      2.457      4.474
REMARK SMILES Cc1cc(=O)c(Oc2ccc(C(=O)NCCCCCCNC(=O)c3ccc(-c4c5nc(c(-c6c(F)c(F)c(F)c(F)c6F)c6ccc([nH]6)c(-c6c(F)c(F)c(F)c(F)c6F)c6nc(c(-c7c(F)c(F)c(F)c(F)c7F)c7ccc4[nH]7)C=C6)C=C5)cc3)cc2)c(-c2ccc(S(C)(=O)=O)cc2)o1
REMARK SMILES IDX 16 1 15 4 14 7 12 8 13 9 11 11 8 12 9 13 88 14 10 15 87 17
REMARK SMILES IDX 7 21 6 22 2 23 3 24 100 25 4 26 89 28 5 29 1 30 90 34 91 35
REMARK SMILES IDX 99 36 92 37 98 39 93 41 94 44 96 45 97 46 95 47 17 51 18 54
REMARK SMILES IDX 19 57 20 60 21 63 22 64 23 66 24 67 25 68 86 69 26 70 85 72
REMARK SMILES IDX 27 74 28 77 29 78 79 79 30 80 84 81 78 82 80 83 31 84 83 85
REMARK SMILES IDX 77 87 76 89 32 91 64 94 44 95 63 96 45 97 48 98 62 99 81 100
REMARK SMILES IDX 46 101 47 103 61 105 82 106 49 109 33 111 34 112 42 113
REMARK SMILES IDX 35 114 36 115 40 116 43 117 37 118 38 119 41 120 39 121
REMARK SMILES IDX 65 122 66 123 74 124 67 125 68 126 72 127 75 128 69 129
REMARK SMILES IDX 70 130 73 131 71 132 50 133 51 134 59 135 52 136 53 137
REMARK SMILES IDX 57 138 60 139 54 140 55 141 58 142 56 143
REMARK H PARENT 16 2 16 3 15 5 15 6 14 10 9 16 88 18 10 19 87 20 3 27 1 31
REMARK H PARENT 1 32 1 33 91 38 99 40 92 42 98 43 95 48 95 49 95 50 17 52
REMARK H PARENT 17 53 18 55 18 56 19 58 19 59 20 61 20 62 21 65 25 71 86 73
REMARK H PARENT 26 75 85 76 84 86 78 88 80 90 83 92 77 93 45 102 48 104 81 107
REMARK H PARENT 46 108 82 110
REMARK Flexibility Score: inf
ROOT
ATOM      1  C   UNL A   1      39.269  23.576  26.336  1.00  0.00    -0.036 C 
ATOM      2  H   UNL A   1      39.688  24.334  26.964  1.00  0.00     0.028 H 
ATOM      3  H   UNL A   1      39.574  23.609  25.310  1.00  0.00     0.028 H 
ENDROOT
BRANCH   1   4
ATOM      4  C   UNL A   1      37.760  23.799  26.298  1.00  0.00     0.018 C 
ATOM      5  H   UNL A   1      37.434  24.001  27.297  1.00  0.00     0.049 H 
ATOM      6  H   UNL A   1      37.603  24.607  25.615  1.00  0.00     0.049 H 
BRANCH   4   7
ATOM      7  N   UNL A   1      36.971  22.697  25.788  1.00  0.00    -0.352 N 
ATOM      8  C   UNL A   1      35.630  22.618  25.481  1.00  0.00     0.251 C 
ATOM      9  O   UNL A   1      35.203  21.602  24.934  1.00  0.00    -0.269 OA
ATOM     10  H   UNL A   1      37.477  21.867  25.634  1.00  0.00     0.163 HD
BRANCH   8  11
ATOM     11  C   UNL A   1      34.665  23.674  25.896  1.00  0.00     0.040 A 
ATOM     12  C   UNL A   1      32.620  25.553  26.089  1.00  0.00     0.127 A 
ATOM     13  C   UNL A   1      33.807  25.905  25.458  1.00  0.00    -0.019 A 
ATOM     14  C   UNL A   1      32.546  24.368  26.819  1.00  0.00    -0.019 A 
ATOM     15  C   UNL A   1      34.817  24.947  25.326  1.00  0.00    -0.046 A 
ATOM     16  H   UNL A   1      33.942  26.860  25.093  1.00  0.00     0.066 H 
ATOM     17  C   UNL A   1      33.588  23.443  26.752  1.00  0.00    -0.046 A 
ATOM     18  H   UNL A   1      31.721  24.175  27.408  1.00  0.00     0.066 H 
ATOM     19  H   UNL A   1      35.678  25.179  24.808  1.00  0.00     0.063 H 
ATOM     20  H   UNL A   1      33.562  22.591  27.333  1.00  0.00     0.063 H 
BRANCH  12  21
ATOM     21  O   UNL A   1      31.520  26.357  26.105  1.00  0.00    -0.449 OA
BRANCH  21  22
ATOM     22  C   UNL A   1      31.221  27.284  25.114  1.00  0.00     0.217 A 
ATOM     23  C   UNL A   1      30.277  28.834  22.932  1.00  0.00     0.105 A 
ATOM     24  C   UNL A   1      29.978  27.534  22.897  1.00  0.00     0.028 A 
ATOM     25  O   UNL A   1      31.061  29.387  23.922  1.00  0.00    -0.457 OA
ATOM     26  C   UNL A   1      30.472  26.664  23.972  1.00  0.00     0.228 A 
ATOM     27  H   UNL A   1      29.409  27.147  22.128  1.00  0.00     0.070 H 
ATOM     28  C   UNL A   1      31.512  28.608  24.985  1.00  0.00     0.180 A 
ATOM     29  O   UNL A   1      30.260  25.456  23.907  1.00  0.00    -0.285 OA
BRANCH  23  30
ATOM     30  C   UNL A   1      29.795  29.809  21.906  1.00  0.00    -0.006 C 
ATOM     31  H   UNL A   1      28.759  29.631  21.703  1.00  0.00     0.031 H 
ATOM     32  H   UNL A   1      30.360  29.687  21.005  1.00  0.00     0.031 H 
ATOM     33  H   UNL A   1      29.921  30.805  22.273  1.00  0.00     0.031 H 
ENDBRANCH  23  30
BRANCH  28  34
ATOM     34  C   UNL A   1      32.293  29.452  25.909  1.00  0.00     0.021 A 
ATOM     35  C   UNL A   1      33.573  29.033  26.317  1.00  0.00    -0.050 A 
ATOM     36  C   UNL A   1      31.782  30.661  26.405  1.00  0.00    -0.050 A 
ATOM     37  C   UNL A   1      34.364  29.848  27.132  1.00  0.00    -0.043 A 
ATOM     38  H   UNL A   1      33.930  28.114  26.011  1.00  0.00     0.063 H 
ATOM     39  C   UNL A   1      32.566  31.475  27.231  1.00  0.00    -0.043 A 
ATOM     40  H   UNL A   1      30.823  30.951  26.159  1.00  0.00     0.063 H 
ATOM     41  C   UNL A   1      33.857  31.071  27.577  1.00  0.00     0.067 A 
ATOM     42  H   UNL A   1      35.313  29.548  27.401  1.00  0.00     0.064 H 
ATOM     43  H   UNL A   1      32.190  32.370  27.582  1.00  0.00     0.064 H 
BRANCH  41  44
ATOM     44  S   UNL A   1      34.919  32.160  28.502  1.00  0.00     0.175 S 
ATOM     45  O   UNL A   1      34.629  31.954  29.906  1.00  0.00    -0.224 OA
ATOM     46  O   UNL A   1      36.267  32.020  27.979  1.00  0.00    -0.224 OA
BRANCH  44  47
ATOM     47  C   UNL A   1      34.350  33.778  28.065  1.00  0.00     0.043 C 
ATOM     48  H   UNL A   1      34.470  34.436  28.900  1.00  0.00     0.040 H 
ATOM     49  H   UNL A   1      33.316  33.731  27.794  1.00  0.00     0.040 H 
ATOM     50  H   UNL A   1      34.920  34.145  27.237  1.00  0.00     0.040 H 
ENDBRANCH  44  47
ENDBRANCH  41  44
ENDBRANCH  28  34
ENDBRANCH  21  22
ENDBRANCH  12  21
ENDBRANCH   8  11
ENDBRANCH   4   7
ENDBRANCH   1   4
BRANCH   1  51
ATOM     51  C   UNL A   1      39.773  22.227  26.848  1.00  0.00    -0.052 C 
ATOM     52  H   UNL A   1      38.991  21.513  26.699  1.00  0.00     0.027 H 
ATOM     53  H   UNL A   1      40.038  22.399  27.870  1.00  0.00     0.027 H 
BRANCH  51  54
ATOM     54  C   UNL A   1      41.039  21.668  26.197  1.00  0.00    -0.052 C 
ATOM     55  H   UNL A   1      41.874  21.974  26.793  1.00  0.00     0.027 H 
ATOM     56  H   UNL A   1      41.039  22.054  25.199  1.00  0.00     0.027 H 
BRANCH  54  57
ATOM     57  C   UNL A   1      41.113  20.150  26.044  1.00  0.00    -0.036 C 
ATOM     58  H   UNL A   1      41.006  19.920  25.005  1.00  0.00     0.028 H 
ATOM     59  H   UNL A   1      40.332  19.759  26.662  1.00  0.00     0.028 H 
BRANCH  57  60
ATOM     60  C   UNL A   1      42.396  19.494  26.537  1.00  0.00     0.018 C 
ATOM     61  H   UNL A   1      42.134  18.702  27.208  1.00  0.00     0.049 H 
ATOM     62  H   UNL A   1      42.975  20.257  27.014  1.00  0.00     0.049 H 
BRANCH  60  63
ATOM     63  N   UNL A   1      43.213  18.940  25.469  1.00  0.00    -0.352 N 
ATOM     64  C   UNL A   1      44.177  19.545  24.695  1.00  0.00     0.251 C 
ATOM     65  H   UNL A   1      43.054  17.989  25.270  1.00  0.00     0.163 HD
ATOM     66  O   UNL A   1      44.685  18.939  23.756  1.00  0.00    -0.269 OA
BRANCH  64  67
ATOM     67  C   UNL A   1      44.577  20.945  24.966  1.00  0.00     0.039 A 
ATOM     68  C   UNL A   1      45.349  21.268  26.081  1.00  0.00    -0.049 A 
ATOM     69  C   UNL A   1      44.154  21.955  24.096  1.00  0.00    -0.049 A 
ATOM     70  C   UNL A   1      45.529  22.601  26.433  1.00  0.00    -0.053 A 
ATOM     71  H   UNL A   1      45.784  20.520  26.644  1.00  0.00     0.063 H 
ATOM     72  C   UNL A   1      44.429  23.294  24.396  1.00  0.00    -0.053 A 
ATOM     73  H   UNL A   1      43.641  21.714  23.234  1.00  0.00     0.063 H 
ATOM     74  C   UNL A   1      45.071  23.633  25.596  1.00  0.00    -0.014 A 
ATOM     75  H   UNL A   1      46.006  22.835  27.319  1.00  0.00     0.063 H 
ATOM     76  H   UNL A   1      44.157  24.036  23.731  1.00  0.00     0.063 H 
BRANCH  74  77
ATOM     77  C   UNL A   1      45.284  25.048  26.003  1.00  0.00     0.031 A 
ATOM     78  C   UNL A   1      44.169  25.858  26.612  1.00  0.00     0.074 A 
ATOM     79  C   UNL A   1      46.512  25.587  25.880  1.00  0.00     0.049 A 
ATOM     80  N   UNL A   1      44.197  27.085  27.071  1.00  0.00    -0.248 NA
ATOM     81  C   UNL A   1      42.851  25.214  26.714  1.00  0.00    -0.034 C 
ATOM     82  C   UNL A   1      47.674  24.903  25.309  1.00  0.00    -0.036 A 
ATOM     83  N   UNL A   1      47.001  26.814  26.253  1.00  0.00    -0.354 N 
ATOM     84  C   UNL A   1      42.906  27.361  27.504  1.00  0.00     0.074 A 
ATOM     85  C   UNL A   1      42.107  26.190  27.216  1.00  0.00    -0.034 C 
ATOM     86  H   UNL A   1      42.577  24.251  26.463  1.00  0.00     0.065 H 
ATOM     87  C   UNL A   1      48.751  25.691  25.428  1.00  0.00    -0.036 A 
ATOM     88  H   UNL A   1      47.664  23.963  24.883  1.00  0.00     0.065 H 
ATOM     89  C   UNL A   1      48.345  26.963  26.017  1.00  0.00     0.049 A 
ATOM     90  H   UNL A   1      46.440  27.520  26.650  1.00  0.00     0.167 HD
ATOM     91  C   UNL A   1      42.436  28.481  28.104  1.00  0.00     0.037 A 
ATOM     92  H   UNL A   1      41.090  26.123  27.379  1.00  0.00     0.065 H 
ATOM     93  H   UNL A   1      49.711  25.440  25.146  1.00  0.00     0.065 H 
ATOM     94  C   UNL A   1      49.165  28.008  26.240  1.00  0.00     0.037 A 
ATOM     95  C   UNL A   1      43.239  29.639  28.404  1.00  0.00     0.049 A 
ATOM     96  C   UNL A   1      48.607  29.259  26.857  1.00  0.00     0.074 A 
ATOM     97  C   UNL A   1      42.859  30.811  29.035  1.00  0.00    -0.036 A 
ATOM     98  N   UNL A   1      44.584  29.774  28.089  1.00  0.00    -0.354 N 
ATOM     99  N   UNL A   1      47.392  29.495  27.287  1.00  0.00    -0.248 NA
ATOM    100  C   UNL A   1      49.529  30.391  27.013  1.00  0.00    -0.034 C 
ATOM    101  C   UNL A   1      43.956  31.676  29.050  1.00  0.00    -0.036 A 
ATOM    102  H   UNL A   1      41.925  31.011  29.427  1.00  0.00     0.065 H 
ATOM    103  C   UNL A   1      45.039  31.022  28.487  1.00  0.00     0.049 A 
ATOM    104  H   UNL A   1      45.134  29.085  27.650  1.00  0.00     0.167 HD
ATOM    105  C   UNL A   1      47.405  30.792  27.779  1.00  0.00     0.074 A 
ATOM    106  C   UNL A   1      48.757  31.288  27.611  1.00  0.00    -0.034 C 
ATOM    107  H   UNL A   1      50.520  30.468  26.733  1.00  0.00     0.065 H 
ATOM    108  H   UNL A   1      43.958  32.640  29.419  1.00  0.00     0.065 H 
ATOM    109  C   UNL A   1      46.388  31.505  28.318  1.00  0.00     0.037 A 
ATOM    110  H   UNL A   1      49.076  32.220  27.918  1.00  0.00     0.065 H 
BRANCH  91 111
ATOM    111  C   UNL A   1      40.980  28.522  28.477  1.00  0.00     0.064 A 
ATOM    112  C   UNL A   1      40.537  28.155  29.756  1.00  0.00     0.173 A 
ATOM    113  C   UNL A   1      40.025  28.999  27.566  1.00  0.00     0.173 A 
ATOM    114  F   UNL A   1      41.407  27.685  30.664  1.00  0.00    -0.203 F 
ATOM    115  C   UNL A   1      39.190  28.242  30.102  1.00  0.00     0.198 A 
ATOM    116  C   UNL A   1      38.684  29.115  27.925  1.00  0.00     0.198 A 
ATOM    117  F   UNL A   1      40.394  29.374  26.332  1.00  0.00    -0.203 F 
ATOM    118  F   UNL A   1      38.785  27.846  31.317  1.00  0.00    -0.200 F 
ATOM    119  C   UNL A   1      38.267  28.730  29.189  1.00  0.00     0.200 A 
ATOM    120  F   UNL A   1      37.796  29.604  27.048  1.00  0.00    -0.200 F 
ATOM    121  F   UNL A   1      36.973  28.828  29.529  1.00  0.00    -0.200 F 
ENDBRANCH  91 111
BRANCH  94 122
ATOM    122  C   UNL A   1      50.603  27.893  25.885  1.00  0.00     0.064 A 
ATOM    123  C   UNL A   1      51.560  27.576  26.858  1.00  0.00     0.173 A 
ATOM    124  C   UNL A   1      51.043  28.041  24.561  1.00  0.00     0.173 A 
ATOM    125  F   UNL A   1      51.192  27.443  28.141  1.00  0.00    -0.203 F 
ATOM    126  C   UNL A   1      52.901  27.407  26.519  1.00  0.00     0.198 A 
ATOM    127  C   UNL A   1      52.378  27.842  24.218  1.00  0.00     0.198 A 
ATOM    128  F   UNL A   1      50.165  28.339  23.591  1.00  0.00    -0.203 F 
ATOM    129  F   UNL A   1      53.800  27.126  27.473  1.00  0.00    -0.200 F 
ATOM    130  C   UNL A   1      53.306  27.529  25.199  1.00  0.00     0.200 A 
ATOM    131  F   UNL A   1      52.761  27.939  22.938  1.00  0.00    -0.200 F 
ATOM    132  F   UNL A   1      54.592  27.342  24.870  1.00  0.00    -0.200 F 
ENDBRANCH  94 122
BRANCH 109 133
ATOM    133  C   UNL A   1      46.683  32.901  28.787  1.00  0.00     0.064 A 
ATOM    134  C   UNL A   1      47.204  33.148  30.065  1.00  0.00     0.173 A 
ATOM    135  C   UNL A   1      46.528  33.991  27.917  1.00  0.00     0.173 A 
ATOM    136  F   UNL A   1      47.357  32.142  30.939  1.00  0.00    -0.203 F 
ATOM    137  C   UNL A   1      47.551  34.439  30.457  1.00  0.00     0.198 A 
ATOM    138  C   UNL A   1      46.906  35.274  28.302  1.00  0.00     0.198 A 
ATOM    139  F   UNL A   1      46.041  33.806  26.681  1.00  0.00    -0.203 F 
ATOM    140  F   UNL A   1      48.019  34.657  31.694  1.00  0.00    -0.200 F 
ATOM    141  C   UNL A   1      47.414  35.498  29.572  1.00  0.00     0.200 A 
ATOM    142  F   UNL A   1      46.789  36.293  27.439  1.00  0.00    -0.200 F 
ATOM    143  F   UNL A   1      47.772  36.735  29.944  1.00  0.00    -0.200 F 
ENDBRANCH 109 133
ENDBRANCH  74  77
ENDBRANCH  64  67
ENDBRANCH  60  63
ENDBRANCH  57  60
ENDBRANCH  54  57
ENDBRANCH  51  54
ENDBRANCH   1  51
TORSDOF 19
ENDMDL
MODEL 6
REMARK VINA RESULT:     -11.9      6.545     12.072
REMARK SMILES Cc1cc(=O)c(Oc2ccc(C(=O)NCCCCCCNC(=O)c3ccc(-c4c5nc(c(-c6c(F)c(F)c(F)c(F)c6F)c6ccc([nH]6)c(-c6c(F)c(F)c(F)c(F)c6F)c6nc(c(-c7c(F)c(F)c(F)c(F)c7F)c7ccc4[nH]7)C=C6)C=C5)cc3)cc2)c(-c2ccc(S(C)(=O)=O)cc2)o1
REMARK SMILES IDX 16 1 15 4 14 7 12 8 13 9 11 11 8 12 9 13 88 14 10 15 87 17
REMARK SMILES IDX 7 21 6 22 2 23 3 24 100 25 4 26 89 28 5 29 1 30 90 34 91 35
REMARK SMILES IDX 99 36 92 37 98 39 93 41 94 44 96 45 97 46 95 47 17 51 18 54
REMARK SMILES IDX 19 57 20 60 21 63 22 64 23 66 24 67 25 68 86 69 26 70 85 72
REMARK SMILES IDX 27 74 28 77 29 78 79 79 30 80 84 81 78 82 80 83 31 84 83 85
REMARK SMILES IDX 77 87 76 89 32 91 64 94 44 95 63 96 45 97 48 98 62 99 81 100
REMARK SMILES IDX 46 101 47 103 61 105 82 106 49 109 33 111 34 112 42 113
REMARK SMILES IDX 35 114 36 115 40 116 43 117 37 118 38 119 41 120 39 121
REMARK SMILES IDX 65 122 66 123 74 124 67 125 68 126 72 127 75 128 69 129
REMARK SMILES IDX 70 130 73 131 71 132 50 133 51 134 59 135 52 136 53 137
REMARK SMILES IDX 57 138 60 139 54 140 55 141 58 142 56 143
REMARK H PARENT 16 2 16 3 15 5 15 6 14 10 9 16 88 18 10 19 87 20 3 27 1 31
REMARK H PARENT 1 32 1 33 91 38 99 40 92 42 98 43 95 48 95 49 95 50 17 52
REMARK H PARENT 17 53 18 55 18 56 19 58 19 59 20 61 20 62 21 65 25 71 86 73
REMARK H PARENT 26 75 85 76 84 86 78 88 80 90 83 92 77 93 45 102 48 104 81 107
REMARK H PARENT 46 108 82 110
REMARK Flexibility Score: inf
ROOT
ATOM      1  C   UNL A   1      33.507  31.196  27.611  1.00  0.00    -0.036 C 
ATOM      2  H   UNL A   1      33.098  30.780  28.508  1.00  0.00     0.028 H 
ATOM      3  H   UNL A   1      32.922  31.968  27.154  1.00  0.00     0.028 H 
ENDROOT
BRANCH   1   4
ATOM      4  C   UNL A   1      33.557  30.080  26.572  1.00  0.00     0.018 C 
ATOM      5  H   UNL A   1      34.305  30.339  25.850  1.00  0.00     0.049 H 
ATOM      6  H   UNL A   1      33.770  29.186  27.118  1.00  0.00     0.049 H 
BRANCH   4   7
ATOM      7  N   UNL A   1      32.324  29.823  25.860  1.00  0.00    -0.352 N 
ATOM      8  C   UNL A   1      31.936  28.746  25.093  1.00  0.00     0.251 C 
ATOM      9  O   UNL A   1      30.776  28.690  24.687  1.00  0.00    -0.269 OA
ATOM     10  H   UNL A   1      31.649  30.535  25.938  1.00  0.00     0.163 HD
BRANCH   8  11
ATOM     11  C   UNL A   1      32.908  27.710  24.646  1.00  0.00     0.040 A 
ATOM     12  C   UNL A   1      34.208  25.398  23.799  1.00  0.00     0.127 A 
ATOM     13  C   UNL A   1      33.961  25.580  25.154  1.00  0.00    -0.019 A 
ATOM     14  C   UNL A   1      34.027  26.458  22.912  1.00  0.00    -0.019 A 
ATOM     15  C   UNL A   1      33.272  26.721  25.573  1.00  0.00    -0.046 A 
ATOM     16  H   UNL A   1      34.282  24.882  25.843  1.00  0.00     0.066 H 
ATOM     17  C   UNL A   1      33.408  27.630  23.346  1.00  0.00    -0.046 A 
ATOM     18  H   UNL A   1      34.348  26.374  21.935  1.00  0.00     0.066 H 
ATOM     19  H   UNL A   1      33.030  26.838  26.569  1.00  0.00     0.063 H 
ATOM     20  H   UNL A   1      33.322  28.436  22.707  1.00  0.00     0.063 H 
BRANCH  12  21
ATOM     21  O   UNL A   1      34.709  24.241  23.284  1.00  0.00    -0.449 OA
BRANCH  21  22
ATOM     22  C   UNL A   1      34.354  22.973  23.729  1.00  0.00     0.217 A 
ATOM     23  C   UNL A   1      33.244  20.427  24.313  1.00  0.00     0.105 A 
ATOM     24  C   UNL A   1      32.444  21.279  23.667  1.00  0.00     0.028 A 
ATOM     25  O   UNL A   1      34.505  20.778  24.744  1.00  0.00    -0.457 OA
ATOM     26  C   UNL A   1      32.939  22.629  23.371  1.00  0.00     0.228 A 
ATOM     27  H   UNL A   1      31.495  20.992  23.380  1.00  0.00     0.070 H 
ATOM     28  C   UNL A   1      35.031  22.033  24.444  1.00  0.00     0.180 A 
ATOM     29  O   UNL A   1      32.182  23.438  22.840  1.00  0.00    -0.285 OA
BRANCH  23  30
ATOM     30  C   UNL A   1      32.849  19.021  24.631  1.00  0.00    -0.006 C 
ATOM     31  H   UNL A   1      33.164  18.778  25.625  1.00  0.00     0.031 H 
ATOM     32  H   UNL A   1      33.316  18.354  23.936  1.00  0.00     0.031 H 
ATOM     33  H   UNL A   1      31.787  18.923  24.559  1.00  0.00     0.031 H 
ENDBRANCH  23  30
BRANCH  28  34
ATOM     34  C   UNL A   1      36.398  22.130  24.991  1.00  0.00     0.021 A 
ATOM     35  C   UNL A   1      36.801  23.308  25.647  1.00  0.00    -0.050 A 
ATOM     36  C   UNL A   1      37.315  21.077  24.857  1.00  0.00    -0.050 A 
ATOM     37  C   UNL A   1      38.063  23.398  26.239  1.00  0.00    -0.043 A 
ATOM     38  H   UNL A   1      36.156  24.113  25.691  1.00  0.00     0.063 H 
ATOM     39  C   UNL A   1      38.586  21.168  25.438  1.00  0.00    -0.043 A 
ATOM     40  H   UNL A   1      37.052  20.232  24.328  1.00  0.00     0.063 H 
ATOM     41  C   UNL A   1      38.947  22.321  26.138  1.00  0.00     0.067 A 
ATOM     42  H   UNL A   1      38.340  24.254  26.745  1.00  0.00     0.064 H 
ATOM     43  H   UNL A   1      39.253  20.385  25.348  1.00  0.00     0.064 H 
BRANCH  41  44
ATOM     44  S   UNL A   1      40.499  22.393  27.007  1.00  0.00     0.175 S 
ATOM     45  O   UNL A   1      40.748  23.784  27.327  1.00  0.00    -0.224 OA
ATOM     46  O   UNL A   1      40.482  21.370  28.038  1.00  0.00    -0.224 OA
BRANCH  44  47
ATOM     47  C   UNL A   1      41.688  21.898  25.792  1.00  0.00     0.043 C 
ATOM     48  H   UNL A   1      41.552  22.478  24.903  1.00  0.00     0.040 H 
ATOM     49  H   UNL A   1      41.554  20.861  25.565  1.00  0.00     0.040 H 
ATOM     50  H   UNL A   1      42.674  22.055  26.174  1.00  0.00     0.040 H 
ENDBRANCH  44  47
ENDBRANCH  41  44
ENDBRANCH  28  34
ENDBRANCH  21  22
ENDBRANCH  12  21
ENDBRANCH   8  11
ENDBRANCH   4   7
ENDBRANCH   1   4
BRANCH   1  51
ATOM     51  C   UNL A   1      34.824  31.878  27.983  1.00  0.00    -0.052 C 
ATOM     52  H   UNL A   1      35.283  32.209  27.076  1.00  0.00     0.027 H 
ATOM     53  H   UNL A   1      35.376  31.139  28.525  1.00  0.00     0.027 H 
BRANCH  51  54
ATOM     54  C   UNL A   1      34.740  33.081  28.924  1.00  0.00    -0.052 C 
ATOM     55  H   UNL A   1      35.581  33.712  28.720  1.00  0.00     0.027 H 
ATOM     56  H   UNL A   1      34.723  32.668  29.911  1.00  0.00     0.027 H 
BRANCH  54  57
ATOM     57  C   UNL A   1      33.482  33.940  28.822  1.00  0.00    -0.036 C 
ATOM     58  H   UNL A   1      32.751  33.530  29.486  1.00  0.00     0.028 H 
ATOM     59  H   UNL A   1      33.199  33.916  27.791  1.00  0.00     0.028 H 
BRANCH  57  60
ATOM     60  C   UNL A   1      33.653  35.413  29.168  1.00  0.00     0.018 C 
ATOM     61  H   UNL A   1      33.495  35.990  28.280  1.00  0.00     0.049 H 
ATOM     62  H   UNL A   1      34.642  35.531  29.559  1.00  0.00     0.049 H 
BRANCH  60  63
ATOM     63  N   UNL A   1      32.730  35.881  30.191  1.00  0.00    -0.352 N 
ATOM     64  C   UNL A   1      32.762  35.699  31.554  1.00  0.00     0.251 C 
ATOM     65  H   UNL A   1      31.968  36.407  29.858  1.00  0.00     0.163 HD
ATOM     66  O   UNL A   1      31.825  36.076  32.250  1.00  0.00    -0.269 OA
BRANCH  64  67
ATOM     67  C   UNL A   1      33.912  35.011  32.185  1.00  0.00     0.039 A 
ATOM     68  C   UNL A   1      35.145  35.648  32.319  1.00  0.00    -0.049 A 
ATOM     69  C   UNL A   1      33.756  33.694  32.633  1.00  0.00    -0.049 A 
ATOM     70  C   UNL A   1      36.261  34.917  32.713  1.00  0.00    -0.053 A 
ATOM     71  H   UNL A   1      35.230  36.658  32.127  1.00  0.00     0.063 H 
ATOM     72  C   UNL A   1      34.860  32.991  33.129  1.00  0.00    -0.053 A 
ATOM     73  H   UNL A   1      32.829  33.242  32.597  1.00  0.00     0.063 H 
ATOM     74  C   UNL A   1      36.134  33.578  33.122  1.00  0.00    -0.014 A 
ATOM     75  H   UNL A   1      37.192  35.362  32.705  1.00  0.00     0.063 H 
ATOM     76  H   UNL A   1      34.735  32.037  33.502  1.00  0.00     0.063 H 
BRANCH  74  77
ATOM     77  C   UNL A   1      37.349  32.827  33.540  1.00  0.00     0.031 A 
ATOM     78  C   UNL A   1      37.987  31.813  32.627  1.00  0.00     0.074 A 
ATOM     79  C   UNL A   1      37.917  33.109  34.728  1.00  0.00     0.049 A 
ATOM     80  N   UNL A   1      39.077  31.109  32.811  1.00  0.00    -0.248 NA
ATOM     81  C   UNL A   1      37.316  31.547  31.346  1.00  0.00    -0.034 C 
ATOM     82  C   UNL A   1      37.395  34.073  35.698  1.00  0.00    -0.036 A 
ATOM     83  N   UNL A   1      39.069  32.642  35.311  1.00  0.00    -0.354 N 
ATOM     84  C   UNL A   1      39.214  30.315  31.679  1.00  0.00     0.074 A 
ATOM     85  C   UNL A   1      38.076  30.590  30.831  1.00  0.00    -0.034 C 
ATOM     86  H   UNL A   1      36.473  31.992  30.949  1.00  0.00     0.065 H 
ATOM     87  C   UNL A   1      38.253  34.175  36.722  1.00  0.00    -0.036 A 
ATOM     88  H   UNL A   1      36.507  34.592  35.607  1.00  0.00     0.065 H 
ATOM     89  C   UNL A   1      39.349  33.234  36.518  1.00  0.00     0.049 A 
ATOM     90  H   UNL A   1      39.638  31.950  34.903  1.00  0.00     0.167 HD
ATOM     91  C   UNL A   1      40.209  29.449  31.369  1.00  0.00     0.037 A 
ATOM     92  H   UNL A   1      37.879  30.104  29.942  1.00  0.00     0.065 H 
ATOM     93  H   UNL A   1      38.154  34.815  37.526  1.00  0.00     0.065 H 
ATOM     94  C   UNL A   1      40.370  33.037  37.375  1.00  0.00     0.037 A 
ATOM     95  C   UNL A   1      41.351  29.189  32.209  1.00  0.00     0.049 A 
ATOM     96  C   UNL A   1      41.432  32.032  37.032  1.00  0.00     0.074 A 
ATOM     97  C   UNL A   1      42.425  28.351  31.968  1.00  0.00    -0.036 A 
ATOM     98  N   UNL A   1      41.565  29.762  33.455  1.00  0.00    -0.354 N 
ATOM     99  N   UNL A   1      41.564  31.310  35.947  1.00  0.00    -0.248 NA
ATOM    100  C   UNL A   1      42.483  31.809  38.033  1.00  0.00    -0.034 C 
ATOM    101  C   UNL A   1      43.258  28.371  33.089  1.00  0.00    -0.036 A 
ATOM    102  H   UNL A   1      42.584  27.805  31.106  1.00  0.00     0.065 H 
ATOM    103  C   UNL A   1      42.738  29.270  34.006  1.00  0.00     0.049 A 
ATOM    104  H   UNL A   1      40.972  30.421  33.884  1.00  0.00     0.167 HD
ATOM    105  C   UNL A   1      42.717  30.559  36.125  1.00  0.00     0.074 A 
ATOM    106  C   UNL A   1      43.259  30.928  37.417  1.00  0.00    -0.034 C 
ATOM    107  H   UNL A   1      42.590  32.229  38.970  1.00  0.00     0.065 H 
ATOM    108  H   UNL A   1      44.115  27.809  33.214  1.00  0.00     0.065 H 
ATOM    109  C   UNL A   1      43.271  29.646  35.292  1.00  0.00     0.037 A 
ATOM    110  H   UNL A   1      44.138  30.552  37.808  1.00  0.00     0.065 H 
BRANCH  91 111
ATOM    111  C   UNL A   1      40.116  28.706  30.066  1.00  0.00     0.064 A 
ATOM    112  C   UNL A   1      40.710  29.196  28.893  1.00  0.00     0.173 A 
ATOM    113  C   UNL A   1      39.481  27.455  30.003  1.00  0.00     0.173 A 
ATOM    114  F   UNL A   1      41.324  30.389  28.895  1.00  0.00    -0.203 F 
ATOM    115  C   UNL A   1      40.654  28.474  27.703  1.00  0.00     0.198 A 
ATOM    116  C   UNL A   1      39.454  26.721  28.819  1.00  0.00     0.198 A 
ATOM    117  F   UNL A   1      38.904  26.934  31.095  1.00  0.00    -0.203 F 
ATOM    118  F   UNL A   1      41.194  28.982  26.587  1.00  0.00    -0.200 F 
ATOM    119  C   UNL A   1      40.034  27.234  27.670  1.00  0.00     0.200 A 
ATOM    120  F   UNL A   1      38.870  25.515  28.794  1.00  0.00    -0.200 F 
ATOM    121  F   UNL A   1      39.994  26.533  26.527  1.00  0.00    -0.200 F 
ENDBRANCH  91 111
BRANCH  94 122
ATOM    122  C   UNL A   1      40.429  33.831  38.630  1.00  0.00     0.064 A 
ATOM    123  C   UNL A   1      39.745  33.411  39.779  1.00  0.00     0.173 A 
ATOM    124  C   UNL A   1      41.212  34.991  38.724  1.00  0.00     0.173 A 
ATOM    125  F   UNL A   1      38.969  32.319  39.734  1.00  0.00    -0.203 F 
ATOM    126  C   UNL A   1      39.847  34.120  40.974  1.00  0.00     0.198 A 
ATOM    127  C   UNL A   1      41.338  35.681  39.927  1.00  0.00     0.198 A 
ATOM    128  F   UNL A   1      41.891  35.431  37.653  1.00  0.00    -0.203 F 
ATOM    129  F   UNL A   1      39.165  33.709  42.053  1.00  0.00    -0.200 F 
ATOM    130  C   UNL A   1      40.651  35.246  41.050  1.00  0.00     0.200 A 
ATOM    131  F   UNL A   1      42.134  36.756  40.001  1.00  0.00    -0.200 F 
ATOM    132  F   UNL A   1      40.768  35.912  42.207  1.00  0.00    -0.200 F 
ENDBRANCH  94 122
BRANCH 109 133
ATOM    133  C   UNL A   1      44.544  28.980  35.732  1.00  0.00     0.064 A 
ATOM    134  C   UNL A   1      44.530  27.771  36.441  1.00  0.00     0.173 A 
ATOM    135  C   UNL A   1      45.788  29.512  35.361  1.00  0.00     0.173 A 
ATOM    136  F   UNL A   1      43.367  27.230  36.832  1.00  0.00    -0.203 F 
ATOM    137  C   UNL A   1      45.718  27.122  36.771  1.00  0.00     0.198 A 
ATOM    138  C   UNL A   1      46.971  28.844  35.664  1.00  0.00     0.198 A 
ATOM    139  F   UNL A   1      45.856  30.663  34.675  1.00  0.00    -0.203 F 
ATOM    140  F   UNL A   1      45.683  25.983  37.475  1.00  0.00    -0.200 F 
ATOM    141  C   UNL A   1      46.936  27.652  36.371  1.00  0.00     0.200 A 
ATOM    142  F   UNL A   1      48.147  29.349  35.262  1.00  0.00    -0.200 F 
ATOM    143  F   UNL A   1      48.076  27.013  36.668  1.00  0.00    -0.200 F 
ENDBRANCH 109 133
ENDBRANCH  74  77
ENDBRANCH  64  67
ENDBRANCH  60  63
ENDBRANCH  57  60
ENDBRANCH  54  57
ENDBRANCH  51  54
ENDBRANCH   1  51
TORSDOF 19
ENDMDL
MODEL 7
REMARK VINA RESULT:     -11.9      5.146      9.040
REMARK SMILES Cc1cc(=O)c(Oc2ccc(C(=O)NCCCCCCNC(=O)c3ccc(-c4c5nc(c(-c6c(F)c(F)c(F)c(F)c6F)c6ccc([nH]6)c(-c6c(F)c(F)c(F)c(F)c6F)c6nc(c(-c7c(F)c(F)c(F)c(F)c7F)c7ccc4[nH]7)C=C6)C=C5)cc3)cc2)c(-c2ccc(S(C)(=O)=O)cc2)o1
REMARK SMILES IDX 16 1 15 4 14 7 12 8 13 9 11 11 8 12 9 13 88 14 10 15 87 17
REMARK SMILES IDX 7 21 6 22 2 23 3 24 100 25 4 26 89 28 5 29 1 30 90 34 91 35
REMARK SMILES IDX 99 36 92 37 98 39 93 41 94 44 96 45 97 46 95 47 17 51 18 54
REMARK SMILES IDX 19 57 20 60 21 63 22 64 23 66 24 67 25 68 86 69 26 70 85 72
REMARK SMILES IDX 27 74 28 77 29 78 79 79 30 80 84 81 78 82 80 83 31 84 83 85
REMARK SMILES IDX 77 87 76 89 32 91 64 94 44 95 63 96 45 97 48 98 62 99 81 100
REMARK SMILES IDX 46 101 47 103 61 105 82 106 49 109 33 111 34 112 42 113
REMARK SMILES IDX 35 114 36 115 40 116 43 117 37 118 38 119 41 120 39 121
REMARK SMILES IDX 65 122 66 123 74 124 67 125 68 126 72 127 75 128 69 129
REMARK SMILES IDX 70 130 73 131 71 132 50 133 51 134 59 135 52 136 53 137
REMARK SMILES IDX 57 138 60 139 54 140 55 141 58 142 56 143
REMARK H PARENT 16 2 16 3 15 5 15 6 14 10 9 16 88 18 10 19 87 20 3 27 1 31
REMARK H PARENT 1 32 1 33 91 38 99 40 92 42 98 43 95 48 95 49 95 50 17 52
REMARK H PARENT 17 53 18 55 18 56 19 58 19 59 20 61 20 62 21 65 25 71 86 73
REMARK H PARENT 26 75 85 76 84 86 78 88 80 90 83 92 77 93 45 102 48 104 81 107
REMARK H PARENT 46 108 82 110
REMARK Flexibility Score: inf
ROOT
ATOM      1  C   UNL A   1      40.328  25.342  26.311  1.00  0.00    -0.036 C 
ATOM      2  H   UNL A   1      40.254  26.333  26.710  1.00  0.00     0.028 H 
ATOM      3  H   UNL A   1      40.217  25.265  25.249  1.00  0.00     0.028 H 
ENDROOT
BRANCH   1   4
ATOM      4  C   UNL A   1      39.166  24.533  26.881  1.00  0.00     0.018 C 
ATOM      5  H   UNL A   1      39.101  24.748  27.928  1.00  0.00     0.049 H 
ATOM      6  H   UNL A   1      38.305  24.829  26.321  1.00  0.00     0.049 H 
BRANCH   4   7
ATOM      7  N   UNL A   1      39.261  23.097  26.728  1.00  0.00    -0.352 N 
ATOM      8  C   UNL A   1      38.557  22.231  25.921  1.00  0.00     0.251 C 
ATOM      9  O   UNL A   1      38.904  21.052  25.867  1.00  0.00    -0.269 OA
ATOM     10  H   UNL A   1      39.942  22.668  27.295  1.00  0.00     0.163 HD
BRANCH   8  11
ATOM     11  C   UNL A   1      37.322  22.653  25.204  1.00  0.00     0.040 A 
ATOM     12  C   UNL A   1      35.332  23.989  23.788  1.00  0.00     0.127 A 
ATOM     13  C   UNL A   1      35.446  24.196  25.157  1.00  0.00    -0.019 A 
ATOM     14  C   UNL A   1      36.041  22.954  23.181  1.00  0.00    -0.019 A 
ATOM     15  C   UNL A   1      36.471  23.556  25.859  1.00  0.00    -0.046 A 
ATOM     16  H   UNL A   1      34.782  24.814  25.649  1.00  0.00     0.066 H 
ATOM     17  C   UNL A   1      37.013  22.259  23.901  1.00  0.00    -0.046 A 
ATOM     18  H   UNL A   1      35.848  22.703  22.198  1.00  0.00     0.066 H 
ATOM     19  H   UNL A   1      36.602  23.749  26.864  1.00  0.00     0.063 H 
ATOM     20  H   UNL A   1      37.500  21.458  23.473  1.00  0.00     0.063 H 
BRANCH  12  21
ATOM     21  O   UNL A   1      34.484  24.703  22.996  1.00  0.00    -0.449 OA
BRANCH  21  22
ATOM     22  C   UNL A   1      33.143  24.920  23.291  1.00  0.00     0.217 A 
ATOM     23  C   UNL A   1      30.487  25.829  23.712  1.00  0.00     0.105 A 
ATOM     24  C   UNL A   1      31.404  26.777  23.510  1.00  0.00     0.028 A 
ATOM     25  O   UNL A   1      30.812  24.491  23.791  1.00  0.00    -0.457 OA
ATOM     26  C   UNL A   1      32.806  26.381  23.328  1.00  0.00     0.228 A 
ATOM     27  H   UNL A   1      31.132  27.772  23.482  1.00  0.00     0.070 H 
ATOM     28  C   UNL A   1      32.122  24.067  23.578  1.00  0.00     0.180 A 
ATOM     29  O   UNL A   1      33.663  27.254  23.212  1.00  0.00    -0.285 OA
BRANCH  23  30
ATOM     30  C   UNL A   1      29.031  26.124  23.875  1.00  0.00    -0.006 C 
ATOM     31  H   UNL A   1      28.539  25.271  24.294  1.00  0.00     0.031 H 
ATOM     32  H   UNL A   1      28.604  26.347  22.919  1.00  0.00     0.031 H 
ATOM     33  H   UNL A   1      28.907  26.964  24.524  1.00  0.00     0.031 H 
ENDBRANCH  23  30
BRANCH  28  34
ATOM     34  C   UNL A   1      32.181  22.597  23.687  1.00  0.00     0.021 A 
ATOM     35  C   UNL A   1      32.035  21.810  22.530  1.00  0.00    -0.050 A 
ATOM     36  C   UNL A   1      32.363  21.962  24.925  1.00  0.00    -0.050 A 
ATOM     37  C   UNL A   1      32.161  20.419  22.594  1.00  0.00    -0.043 A 
ATOM     38  H   UNL A   1      31.834  22.264  21.626  1.00  0.00     0.063 H 
ATOM     39  C   UNL A   1      32.477  20.569  24.995  1.00  0.00    -0.043 A 
ATOM     40  H   UNL A   1      32.413  22.526  25.787  1.00  0.00     0.063 H 
ATOM     41  C   UNL A   1      32.391  19.807  23.828  1.00  0.00     0.067 A 
ATOM     42  H   UNL A   1      32.084  19.851  21.736  1.00  0.00     0.064 H 
ATOM     43  H   UNL A   1      32.625  20.108  25.907  1.00  0.00     0.064 H 
BRANCH  41  44
ATOM     44  S   UNL A   1      32.682  18.051  23.880  1.00  0.00     0.175 S 
ATOM     45  O   UNL A   1      31.914  17.521  24.988  1.00  0.00    -0.224 OA
ATOM     46  O   UNL A   1      32.524  17.532  22.533  1.00  0.00    -0.224 OA
BRANCH  44  47
ATOM     47  C   UNL A   1      34.397  17.919  24.299  1.00  0.00     0.043 C 
ATOM     48  H   UNL A   1      34.493  17.676  25.336  1.00  0.00     0.040 H 
ATOM     49  H   UNL A   1      34.884  18.852  24.105  1.00  0.00     0.040 H 
ATOM     50  H   UNL A   1      34.850  17.151  23.708  1.00  0.00     0.040 H 
ENDBRANCH  44  47
ENDBRANCH  41  44
ENDBRANCH  28  34
ENDBRANCH  21  22
ENDBRANCH  12  21
ENDBRANCH   8  11
ENDBRANCH   4   7
ENDBRANCH   1   4
BRANCH   1  51
ATOM     51  C   UNL A   1      41.744  24.842  26.591  1.00  0.00    -0.052 C 
ATOM     52  H   UNL A   1      41.661  23.939  27.158  1.00  0.00     0.027 H 
ATOM     53  H   UNL A   1      42.230  25.649  27.098  1.00  0.00     0.027 H 
BRANCH  51  54
ATOM     54  C   UNL A   1      42.628  24.545  25.378  1.00  0.00    -0.052 C 
ATOM     55  H   UNL A   1      43.526  25.118  25.482  1.00  0.00     0.027 H 
ATOM     56  H   UNL A   1      42.034  24.801  24.526  1.00  0.00     0.027 H 
BRANCH  54  57
ATOM     57  C   UNL A   1      43.031  23.088  25.168  1.00  0.00    -0.036 C 
ATOM     58  H   UNL A   1      43.718  23.052  24.350  1.00  0.00     0.028 H 
ATOM     59  H   UNL A   1      42.118  22.557  24.996  1.00  0.00     0.028 H 
BRANCH  57  60
ATOM     60  C   UNL A   1      43.687  22.401  26.359  1.00  0.00     0.018 C 
ATOM     61  H   UNL A   1      43.568  21.344  26.247  1.00  0.00     0.049 H 
ATOM     62  H   UNL A   1      43.208  22.775  27.240  1.00  0.00     0.049 H 
BRANCH  60  63
ATOM     63  N   UNL A   1      45.106  22.693  26.488  1.00  0.00    -0.352 N 
ATOM     64  C   UNL A   1      45.740  23.678  27.210  1.00  0.00     0.251 C 
ATOM     65  H   UNL A   1      45.704  22.096  25.983  1.00  0.00     0.163 HD
ATOM     66  O   UNL A   1      46.952  23.839  27.105  1.00  0.00    -0.269 OA
BRANCH  64  67
ATOM     67  C   UNL A   1      44.956  24.576  28.090  1.00  0.00     0.039 A 
ATOM     68  C   UNL A   1      45.002  25.960  27.928  1.00  0.00    -0.049 A 
ATOM     69  C   UNL A   1      44.174  24.019  29.108  1.00  0.00    -0.049 A 
ATOM     70  C   UNL A   1      44.435  26.786  28.892  1.00  0.00    -0.053 A 
ATOM     71  H   UNL A   1      45.455  26.370  27.097  1.00  0.00     0.063 H 
ATOM     72  C   UNL A   1      43.516  24.855  30.017  1.00  0.00    -0.053 A 
ATOM     73  H   UNL A   1      44.085  22.994  29.190  1.00  0.00     0.063 H 
ATOM     74  C   UNL A   1      43.685  26.245  29.950  1.00  0.00    -0.014 A 
ATOM     75  H   UNL A   1      44.565  27.809  28.829  1.00  0.00     0.063 H 
ATOM     76  H   UNL A   1      42.903  24.445  30.740  1.00  0.00     0.063 H 
BRANCH  74  77
ATOM     77  C   UNL A   1      43.090  27.160  30.962  1.00  0.00     0.031 A 
ATOM     78  C   UNL A   1      43.751  27.377  32.298  1.00  0.00     0.074 A 
ATOM     79  C   UNL A   1      41.977  27.850  30.647  1.00  0.00     0.049 A 
ATOM     80  N   UNL A   1      43.398  28.178  33.273  1.00  0.00    -0.248 NA
ATOM     81  C   UNL A   1      44.961  26.591  32.583  1.00  0.00    -0.034 C 
ATOM     82  C   UNL A   1      41.246  27.729  29.385  1.00  0.00    -0.036 A 
ATOM     83  N   UNL A   1      41.282  28.808  31.342  1.00  0.00    -0.354 N 
ATOM     84  C   UNL A   1      44.330  27.985  34.284  1.00  0.00     0.074 A 
ATOM     85  C   UNL A   1      45.243  26.961  33.824  1.00  0.00    -0.034 C 
ATOM     86  H   UNL A   1      45.462  25.925  31.973  1.00  0.00     0.065 H 
ATOM     87  C   UNL A   1      40.248  28.623  29.367  1.00  0.00    -0.036 A 
ATOM     88  H   UNL A   1      41.465  27.061  28.628  1.00  0.00     0.065 H 
ATOM     89  C   UNL A   1      40.222  29.331  30.642  1.00  0.00     0.049 A 
ATOM     90  H   UNL A   1      41.520  29.092  32.254  1.00  0.00     0.167 HD
ATOM     91  C   UNL A   1      44.427  28.618  35.478  1.00  0.00     0.037 A 
ATOM     92  H   UNL A   1      46.013  26.569  34.389  1.00  0.00     0.065 H 
ATOM     93  H   UNL A   1      39.601  28.784  28.579  1.00  0.00     0.065 H 
ATOM     94  C   UNL A   1      39.320  30.270  30.988  1.00  0.00     0.037 A 
ATOM     95  C   UNL A   1      43.525  29.649  35.926  1.00  0.00     0.049 A 
ATOM     96  C   UNL A   1      39.418  30.918  32.340  1.00  0.00     0.074 A 
ATOM     97  C   UNL A   1      43.559  30.369  37.107  1.00  0.00    -0.036 A 
ATOM     98  N   UNL A   1      42.426  30.104  35.213  1.00  0.00    -0.354 N 
ATOM     99  N   UNL A   1      40.321  30.746  33.273  1.00  0.00    -0.248 NA
ATOM    100  C   UNL A   1      38.368  31.884  32.690  1.00  0.00    -0.034 C 
ATOM    101  C   UNL A   1      42.449  31.216  37.136  1.00  0.00    -0.036 A 
ATOM    102  H   UNL A   1      44.280  30.292  37.842  1.00  0.00     0.065 H 
ATOM    103  C   UNL A   1      41.756  31.073  35.945  1.00  0.00     0.049 A 
ATOM    104  H   UNL A   1      42.160  29.787  34.319  1.00  0.00     0.167 HD
ATOM    105  C   UNL A   1      39.961  31.590  34.313  1.00  0.00     0.074 A 
ATOM    106  C   UNL A   1      38.765  32.290  33.888  1.00  0.00    -0.034 C 
ATOM    107  H   UNL A   1      37.540  32.172  32.146  1.00  0.00     0.065 H 
ATOM    108  H   UNL A   1      42.188  31.842  37.914  1.00  0.00     0.065 H 
ATOM    109  C   UNL A   1      40.568  31.766  35.511  1.00  0.00     0.037 A 
ATOM    110  H   UNL A   1      38.284  33.011  34.448  1.00  0.00     0.065 H 
BRANCH  91 111
ATOM    111  C   UNL A   1      45.544  28.215  36.400  1.00  0.00     0.064 A 
ATOM    112  C   UNL A   1      45.386  27.191  37.346  1.00  0.00     0.173 A 
ATOM    113  C   UNL A   1      46.808  28.815  36.293  1.00  0.00     0.173 A 
ATOM    114  F   UNL A   1      44.196  26.588  37.497  1.00  0.00    -0.203 F 
ATOM    115  C   UNL A   1      46.444  26.798  38.163  1.00  0.00     0.198 A 
ATOM    116  C   UNL A   1      47.872  28.398  37.089  1.00  0.00     0.198 A 
ATOM    117  F   UNL A   1      47.019  29.792  35.399  1.00  0.00    -0.203 F 
ATOM    118  F   UNL A   1      46.256  25.845  39.087  1.00  0.00    -0.200 F 
ATOM    119  C   UNL A   1      47.688  27.395  38.027  1.00  0.00     0.200 A 
ATOM    120  F   UNL A   1      49.079  28.964  36.943  1.00  0.00    -0.200 F 
ATOM    121  F   UNL A   1      48.709  27.005  38.803  1.00  0.00    -0.200 F 
ENDBRANCH  91 111
BRANCH  94 122
ATOM    122  C   UNL A   1      38.262  30.654  30.018  1.00  0.00     0.064 A 
ATOM    123  C   UNL A   1      37.190  29.794  29.746  1.00  0.00     0.173 A 
ATOM    124  C   UNL A   1      38.270  31.907  29.387  1.00  0.00     0.173 A 
ATOM    125  F   UNL A   1      37.148  28.578  30.309  1.00  0.00    -0.203 F 
ATOM    126  C   UNL A   1      36.164  30.175  28.883  1.00  0.00     0.198 A 
ATOM    127  C   UNL A   1      37.229  32.299  28.549  1.00  0.00     0.198 A 
ATOM    128  F   UNL A   1      39.272  32.769  29.619  1.00  0.00    -0.203 F 
ATOM    129  F   UNL A   1      35.162  29.324  28.622  1.00  0.00    -0.200 F 
ATOM    130  C   UNL A   1      36.178  31.430  28.296  1.00  0.00     0.200 A 
ATOM    131  F   UNL A   1      37.236  33.522  28.002  1.00  0.00    -0.200 F 
ATOM    132  F   UNL A   1      35.179  31.805  27.486  1.00  0.00    -0.200 F 
ENDBRANCH  94 122
BRANCH 109 133
ATOM    133  C   UNL A   1      39.968  32.764  36.459  1.00  0.00     0.064 A 
ATOM    134  C   UNL A   1      38.879  32.434  37.279  1.00  0.00     0.173 A 
ATOM    135  C   UNL A   1      40.546  34.034  36.613  1.00  0.00     0.173 A 
ATOM    136  F   UNL A   1      38.282  31.239  37.159  1.00  0.00    -0.203 F 
ATOM    137  C   UNL A   1      38.386  33.342  38.212  1.00  0.00     0.198 A 
ATOM    138  C   UNL A   1      40.070  34.927  37.569  1.00  0.00     0.198 A 
ATOM    139  F   UNL A   1      41.594  34.396  35.858  1.00  0.00    -0.203 F 
ATOM    140  F   UNL A   1      37.325  33.017  38.964  1.00  0.00    -0.200 F 
ATOM    141  C   UNL A   1      38.989  34.582  38.366  1.00  0.00     0.200 A 
ATOM    142  F   UNL A   1      40.665  36.117  37.728  1.00  0.00    -0.200 F 
ATOM    143  F   UNL A   1      38.528  35.444  39.282  1.00  0.00    -0.200 F 
ENDBRANCH 109 133
ENDBRANCH  74  77
ENDBRANCH  64  67
ENDBRANCH  60  63
ENDBRANCH  57  60
ENDBRANCH  54  57
ENDBRANCH  51  54
ENDBRANCH   1  51
TORSDOF 19
ENDMDL
MODEL 8
REMARK VINA RESULT:     -11.6      5.929     10.930
REMARK SMILES Cc1cc(=O)c(Oc2ccc(C(=O)NCCCCCCNC(=O)c3ccc(-c4c5nc(c(-c6c(F)c(F)c(F)c(F)c6F)c6ccc([nH]6)c(-c6c(F)c(F)c(F)c(F)c6F)c6nc(c(-c7c(F)c(F)c(F)c(F)c7F)c7ccc4[nH]7)C=C6)C=C5)cc3)cc2)c(-c2ccc(S(C)(=O)=O)cc2)o1
REMARK SMILES IDX 16 1 15 4 14 7 12 8 13 9 11 11 8 12 9 13 88 14 10 15 87 17
REMARK SMILES IDX 7 21 6 22 2 23 3 24 100 25 4 26 89 28 5 29 1 30 90 34 91 35
REMARK SMILES IDX 99 36 92 37 98 39 93 41 94 44 96 45 97 46 95 47 17 51 18 54
REMARK SMILES IDX 19 57 20 60 21 63 22 64 23 66 24 67 25 68 86 69 26 70 85 72
REMARK SMILES IDX 27 74 28 77 29 78 79 79 30 80 84 81 78 82 80 83 31 84 83 85
REMARK SMILES IDX 77 87 76 89 32 91 64 94 44 95 63 96 45 97 48 98 62 99 81 100
REMARK SMILES IDX 46 101 47 103 61 105 82 106 49 109 33 111 34 112 42 113
REMARK SMILES IDX 35 114 36 115 40 116 43 117 37 118 38 119 41 120 39 121
REMARK SMILES IDX 65 122 66 123 74 124 67 125 68 126 72 127 75 128 69 129
REMARK SMILES IDX 70 130 73 131 71 132 50 133 51 134 59 135 52 136 53 137
REMARK SMILES IDX 57 138 60 139 54 140 55 141 58 142 56 143
REMARK H PARENT 16 2 16 3 15 5 15 6 14 10 9 16 88 18 10 19 87 20 3 27 1 31
REMARK H PARENT 1 32 1 33 91 38 99 40 92 42 98 43 95 48 95 49 95 50 17 52
REMARK H PARENT 17 53 18 55 18 56 19 58 19 59 20 61 20 62 21 65 25 71 86 73
REMARK H PARENT 26 75 85 76 84 86 78 88 80 90 83 92 77 93 45 102 48 104 81 107
REMARK H PARENT 46 108 82 110
REMARK Flexibility Score: inf
ROOT
ATOM      1  C   UNL A   1      33.251  29.659  26.893  1.00  0.00    -0.036 C 
ATOM      2  H   UNL A   1      32.984  28.759  27.408  1.00  0.00     0.028 H 
ATOM      3  H   UNL A   1      32.562  30.471  26.999  1.00  0.00     0.028 H 
ENDROOT
BRANCH   1   4
ATOM      4  C   UNL A   1      33.255  29.345  25.400  1.00  0.00     0.018 C 
ATOM      5  H   UNL A   1      33.545  30.235  24.880  1.00  0.00     0.049 H 
ATOM      6  H   UNL A   1      33.934  28.528  25.277  1.00  0.00     0.049 H 
BRANCH   4   7
ATOM      7  N   UNL A   1      31.996  28.897  24.844  1.00  0.00    -0.352 N 
ATOM      8  C   UNL A   1      31.626  27.675  24.325  1.00  0.00     0.251 C 
ATOM      9  O   UNL A   1      30.448  27.487  24.026  1.00  0.00    -0.269 OA
ATOM     10  H   UNL A   1      31.285  29.577  24.838  1.00  0.00     0.163 HD
BRANCH   8  11
ATOM     11  C   UNL A   1      32.628  26.620  24.008  1.00  0.00     0.040 A 
ATOM     12  C   UNL A   1      34.018  24.253  23.544  1.00  0.00     0.127 A 
ATOM     13  C   UNL A   1      33.887  24.718  24.846  1.00  0.00    -0.019 A 
ATOM     14  C   UNL A   1      33.672  25.077  22.474  1.00  0.00    -0.019 A 
ATOM     15  C   UNL A   1      33.154  25.884  25.082  1.00  0.00    -0.046 A 
ATOM     16  H   UNL A   1      34.325  24.209  25.630  1.00  0.00     0.066 H 
ATOM     17  C   UNL A   1      33.009  26.281  22.709  1.00  0.00    -0.046 A 
ATOM     18  H   UNL A   1      33.906  24.796  21.509  1.00  0.00     0.066 H 
ATOM     19  H   UNL A   1      32.999  26.207  26.050  1.00  0.00     0.063 H 
ATOM     20  H   UNL A   1      32.800  26.919  21.926  1.00  0.00     0.063 H 
BRANCH  12  21
ATOM     21  O   UNL A   1      34.557  23.040  23.239  1.00  0.00    -0.449 OA
BRANCH  21  22
ATOM     22  C   UNL A   1      34.209  21.853  23.873  1.00  0.00     0.217 A 
ATOM     23  C   UNL A   1      33.083  19.452  24.883  1.00  0.00     0.105 A 
ATOM     24  C   UNL A   1      32.247  20.258  24.226  1.00  0.00     0.028 A 
ATOM     25  O   UNL A   1      34.396  19.790  25.130  1.00  0.00    -0.457 OA
ATOM     26  C   UNL A   1      32.751  21.538  23.714  1.00  0.00     0.228 A 
ATOM     27  H   UNL A   1      31.262  19.985  24.080  1.00  0.00     0.070 H 
ATOM     28  C   UNL A   1      34.929  20.973  24.622  1.00  0.00     0.180 A 
ATOM     29  O   UNL A   1      31.969  22.313  23.171  1.00  0.00    -0.285 OA
BRANCH  23  30
ATOM     30  C   UNL A   1      32.677  18.114  25.414  1.00  0.00    -0.006 C 
ATOM     31  H   UNL A   1      33.543  17.592  25.765  1.00  0.00     0.031 H 
ATOM     32  H   UNL A   1      32.211  17.548  24.635  1.00  0.00     0.031 H 
ATOM     33  H   UNL A   1      31.988  18.245  26.221  1.00  0.00     0.031 H 
ENDBRANCH  23  30
BRANCH  28  34
ATOM     34  C   UNL A   1      36.351  21.069  25.004  1.00  0.00     0.021 A 
ATOM     35  C   UNL A   1      36.877  22.307  25.415  1.00  0.00    -0.050 A 
ATOM     36  C   UNL A   1      37.199  19.952  24.950  1.00  0.00    -0.050 A 
ATOM     37  C   UNL A   1      38.201  22.409  25.852  1.00  0.00    -0.043 A 
ATOM     38  H   UNL A   1      36.279  23.148  25.394  1.00  0.00     0.063 H 
ATOM     39  C   UNL A   1      38.528  20.053  25.375  1.00  0.00    -0.043 A 
ATOM     40  H   UNL A   1      36.840  19.053  24.595  1.00  0.00     0.063 H 
ATOM     41  C   UNL A   1      39.018  21.276  25.838  1.00  0.00     0.067 A 
ATOM     42  H   UNL A   1      38.570  23.314  26.182  1.00  0.00     0.064 H 
ATOM     43  H   UNL A   1      39.145  19.225  25.347  1.00  0.00     0.064 H 
BRANCH  41  44
ATOM     44  S   UNL A   1      40.658  21.386  26.521  1.00  0.00     0.175 S 
ATOM     45  O   UNL A   1      41.381  22.373  25.746  1.00  0.00    -0.224 OA
ATOM     46  O   UNL A   1      40.535  21.499  27.963  1.00  0.00    -0.224 OA
BRANCH  44  47
ATOM     47  C   UNL A   1      41.367  19.802  26.174  1.00  0.00     0.043 C 
ATOM     48  H   UNL A   1      41.721  19.363  27.084  1.00  0.00     0.040 H 
ATOM     49  H   UNL A   1      42.184  19.918  25.494  1.00  0.00     0.040 H 
ATOM     50  H   UNL A   1      40.626  19.168  25.736  1.00  0.00     0.040 H 
ENDBRANCH  44  47
ENDBRANCH  41  44
ENDBRANCH  28  34
ENDBRANCH  21  22
ENDBRANCH  12  21
ENDBRANCH   8  11
ENDBRANCH   4   7
ENDBRANCH   1   4
BRANCH   1  51
ATOM     51  C   UNL A   1      34.551  30.171  27.512  1.00  0.00    -0.052 C 
ATOM     52  H   UNL A   1      35.302  30.147  26.752  1.00  0.00     0.027 H 
ATOM     53  H   UNL A   1      34.734  29.527  28.347  1.00  0.00     0.027 H 
BRANCH  51  54
ATOM     54  C   UNL A   1      34.531  31.585  28.097  1.00  0.00    -0.052 C 
ATOM     55  H   UNL A   1      35.258  32.165  27.568  1.00  0.00     0.027 H 
ATOM     56  H   UNL A   1      34.733  31.463  29.140  1.00  0.00     0.027 H 
BRANCH  54  57
ATOM     57  C   UNL A   1      33.202  32.332  28.027  1.00  0.00    -0.036 C 
ATOM     58  H   UNL A   1      32.892  32.546  29.028  1.00  0.00     0.028 H 
ATOM     59  H   UNL A   1      32.536  31.688  27.491  1.00  0.00     0.028 H 
BRANCH  57  60
ATOM     60  C   UNL A   1      33.216  33.644  27.253  1.00  0.00     0.018 C 
ATOM     61  H   UNL A   1      32.633  33.519  26.365  1.00  0.00     0.049 H 
ATOM     62  H   UNL A   1      34.240  33.870  27.039  1.00  0.00     0.049 H 
BRANCH  60  63
ATOM     63  N   UNL A   1      32.678  34.767  28.004  1.00  0.00    -0.352 N 
ATOM     64  C   UNL A   1      33.068  35.282  29.219  1.00  0.00     0.251 C 
ATOM     65  H   UNL A   1      31.920  35.230  27.578  1.00  0.00     0.163 HD
ATOM     66  O   UNL A   1      32.413  36.172  29.752  1.00  0.00    -0.269 OA
BRANCH  64  67
ATOM     67  C   UNL A   1      34.258  34.735  29.910  1.00  0.00     0.039 A 
ATOM     68  C   UNL A   1      35.538  34.916  29.387  1.00  0.00    -0.049 A 
ATOM     69  C   UNL A   1      34.086  34.009  31.094  1.00  0.00    -0.049 A 
ATOM     70  C   UNL A   1      36.611  34.216  29.929  1.00  0.00    -0.053 A 
ATOM     71  H   UNL A   1      35.689  35.567  28.601  1.00  0.00     0.063 H 
ATOM     72  C   UNL A   1      35.186  33.391  31.699  1.00  0.00    -0.053 A 
ATOM     73  H   UNL A   1      33.149  33.929  31.519  1.00  0.00     0.063 H 
ATOM     74  C   UNL A   1      36.449  33.443  31.092  1.00  0.00    -0.014 A 
ATOM     75  H   UNL A   1      37.536  34.265  29.473  1.00  0.00     0.063 H 
ATOM     76  H   UNL A   1      35.067  32.895  32.597  1.00  0.00     0.063 H 
BRANCH  74  77
ATOM     77  C   UNL A   1      37.620  32.710  31.646  1.00  0.00     0.031 A 
ATOM     78  C   UNL A   1      38.164  33.034  33.013  1.00  0.00     0.074 A 
ATOM     79  C   UNL A   1      38.156  31.699  30.936  1.00  0.00     0.049 A 
ATOM     80  N   UNL A   1      39.141  32.459  33.669  1.00  0.00    -0.248 NA
ATOM     81  C   UNL A   1      37.537  34.151  33.736  1.00  0.00    -0.034 C 
ATOM     82  C   UNL A   1      37.715  31.287  29.602  1.00  0.00    -0.036 A 
ATOM     83  N   UNL A   1      39.161  30.815  31.240  1.00  0.00    -0.354 N 
ATOM     84  C   UNL A   1      39.252  33.147  34.871  1.00  0.00     0.074 A 
ATOM     85  C   UNL A   1      38.272  34.210  34.839  1.00  0.00    -0.034 C 
ATOM     86  H   UNL A   1      36.734  34.736  33.458  1.00  0.00     0.065 H 
ATOM     87  C   UNL A   1      38.397  30.196  29.231  1.00  0.00    -0.036 A 
ATOM     88  H   UNL A   1      36.993  31.763  29.037  1.00  0.00     0.065 H 
ATOM     89  C   UNL A   1      39.373  29.871  30.266  1.00  0.00     0.049 A 
ATOM     90  H   UNL A   1      39.679  30.856  32.076  1.00  0.00     0.167 HD
ATOM     91  C   UNL A   1      40.083  32.902  35.912  1.00  0.00     0.037 A 
ATOM     92  H   UNL A   1      38.159  34.923  35.577  1.00  0.00     0.065 H 
ATOM     93  H   UNL A   1      38.257  29.670  28.354  1.00  0.00     0.065 H 
ATOM     94  C   UNL A   1      40.259  28.859  30.204  1.00  0.00     0.037 A 
ATOM     95  C   UNL A   1      41.047  31.832  35.948  1.00  0.00     0.049 A 
ATOM     96  C   UNL A   1      41.206  28.642  31.350  1.00  0.00     0.074 A 
ATOM     97  C   UNL A   1      41.913  31.487  36.970  1.00  0.00    -0.036 A 
ATOM     98  N   UNL A   1      41.275  30.937  34.913  1.00  0.00    -0.354 N 
ATOM     99  N   UNL A   1      41.280  29.282  32.490  1.00  0.00    -0.248 NA
ATOM    100  C   UNL A   1      42.197  27.568  31.198  1.00  0.00    -0.034 C 
ATOM    101  C   UNL A   1      42.704  30.422  36.533  1.00  0.00    -0.036 A 
ATOM    102  H   UNL A   1      41.966  31.939  37.897  1.00  0.00     0.065 H 
ATOM    103  C   UNL A   1      42.290  30.059  35.262  1.00  0.00     0.049 A 
ATOM    104  H   UNL A   1      40.787  30.925  34.057  1.00  0.00     0.167 HD
ATOM    105  C   UNL A   1      42.311  28.683  33.199  1.00  0.00     0.074 A 
ATOM    106  C   UNL A   1      42.823  27.612  32.366  1.00  0.00    -0.034 C 
ATOM    107  H   UNL A   1      42.362  26.942  30.394  1.00  0.00     0.065 H 
ATOM    108  H   UNL A   1      43.470  29.980  37.067  1.00  0.00     0.065 H 
ATOM    109  C   UNL A   1      42.790  28.995  34.427  1.00  0.00     0.037 A 
ATOM    110  H   UNL A   1      43.578  26.967  32.647  1.00  0.00     0.065 H 
BRANCH  91 111
ATOM    111  C   UNL A   1      39.999  33.809  37.109  1.00  0.00     0.064 A 
ATOM    112  C   UNL A   1      39.130  33.541  38.178  1.00  0.00     0.173 A 
ATOM    113  C   UNL A   1      40.845  34.924  37.219  1.00  0.00     0.173 A 
ATOM    114  F   UNL A   1      38.294  32.492  38.121  1.00  0.00    -0.203 F 
ATOM    115  C   UNL A   1      39.096  34.365  39.300  1.00  0.00     0.198 A 
ATOM    116  C   UNL A   1      40.831  35.727  38.356  1.00  0.00     0.198 A 
ATOM    117  F   UNL A   1      41.703  35.222  36.232  1.00  0.00    -0.203 F 
ATOM    118  F   UNL A   1      38.229  34.111  40.290  1.00  0.00    -0.200 F 
ATOM    119  C   UNL A   1      39.953  35.452  39.392  1.00  0.00     0.200 A 
ATOM    120  F   UNL A   1      41.673  36.766  38.451  1.00  0.00    -0.200 F 
ATOM    121  F   UNL A   1      39.930  36.235  40.480  1.00  0.00    -0.200 F 
ENDBRANCH  91 111
BRANCH  94 122
ATOM    122  C   UNL A   1      40.268  27.972  29.012  1.00  0.00     0.064 A 
ATOM    123  C   UNL A   1      40.998  28.315  27.866  1.00  0.00     0.173 A 
ATOM    124  C   UNL A   1      39.596  26.741  29.013  1.00  0.00     0.173 A 
ATOM    125  F   UNL A   1      41.642  29.489  27.809  1.00  0.00    -0.203 F 
ATOM    126  C   UNL A   1      41.058  27.458  26.769  1.00  0.00     0.198 A 
ATOM    127  C   UNL A   1      39.681  25.871  27.929  1.00  0.00     0.198 A 
ATOM    128  F   UNL A   1      38.887  26.364  30.089  1.00  0.00    -0.203 F 
ATOM    129  F   UNL A   1      41.745  27.819  25.676  1.00  0.00    -0.200 F 
ATOM    130  C   UNL A   1      40.410  26.233  26.806  1.00  0.00     0.200 A 
ATOM    131  F   UNL A   1      39.071  24.680  27.978  1.00  0.00    -0.200 F 
ATOM    132  F   UNL A   1      40.488  25.398  25.760  1.00  0.00    -0.200 F 
ENDBRANCH  94 122
BRANCH 109 133
ATOM    133  C   UNL A   1      43.918  28.166  34.970  1.00  0.00     0.064 A 
ATOM    134  C   UNL A   1      43.681  26.967  35.658  1.00  0.00     0.173 A 
ATOM    135  C   UNL A   1      45.250  28.528  34.720  1.00  0.00     0.173 A 
ATOM    136  F   UNL A   1      42.425  26.584  35.934  1.00  0.00    -0.203 F 
ATOM    137  C   UNL A   1      44.738  26.166  36.083  1.00  0.00     0.198 A 
ATOM    138  C   UNL A   1      46.303  27.709  35.119  1.00  0.00     0.198 A 
ATOM    139  F   UNL A   1      45.531  29.661  34.059  1.00  0.00    -0.203 F 
ATOM    140  F   UNL A   1      44.489  25.039  36.766  1.00  0.00    -0.200 F 
ATOM    141  C   UNL A   1      46.046  26.530  35.803  1.00  0.00     0.200 A 
ATOM    142  F   UNL A   1      47.566  28.054  34.832  1.00  0.00    -0.200 F 
ATOM    143  F   UNL A   1      47.060  25.745  36.192  1.00  0.00    -0.200 F 
ENDBRANCH 109 133
ENDBRANCH  74  77
ENDBRANCH  64  67
ENDBRANCH  60  63
ENDBRANCH  57  60
ENDBRANCH  54  57
ENDBRANCH  51  54
ENDBRANCH   1  51
TORSDOF 19
ENDMDL
MODEL 9
REMARK VINA RESULT:     -11.5      4.903      9.199
REMARK SMILES Cc1cc(=O)c(Oc2ccc(C(=O)NCCCCCCNC(=O)c3ccc(-c4c5nc(c(-c6c(F)c(F)c(F)c(F)c6F)c6ccc([nH]6)c(-c6c(F)c(F)c(F)c(F)c6F)c6nc(c(-c7c(F)c(F)c(F)c(F)c7F)c7ccc4[nH]7)C=C6)C=C5)cc3)cc2)c(-c2ccc(S(C)(=O)=O)cc2)o1
REMARK SMILES IDX 16 1 15 4 14 7 12 8 13 9 11 11 8 12 9 13 88 14 10 15 87 17
REMARK SMILES IDX 7 21 6 22 2 23 3 24 100 25 4 26 89 28 5 29 1 30 90 34 91 35
REMARK SMILES IDX 99 36 92 37 98 39 93 41 94 44 96 45 97 46 95 47 17 51 18 54
REMARK SMILES IDX 19 57 20 60 21 63 22 64 23 66 24 67 25 68 86 69 26 70 85 72
REMARK SMILES IDX 27 74 28 77 29 78 79 79 30 80 84 81 78 82 80 83 31 84 83 85
REMARK SMILES IDX 77 87 76 89 32 91 64 94 44 95 63 96 45 97 48 98 62 99 81 100
REMARK SMILES IDX 46 101 47 103 61 105 82 106 49 109 33 111 34 112 42 113
REMARK SMILES IDX 35 114 36 115 40 116 43 117 37 118 38 119 41 120 39 121
REMARK SMILES IDX 65 122 66 123 74 124 67 125 68 126 72 127 75 128 69 129
REMARK SMILES IDX 70 130 73 131 71 132 50 133 51 134 59 135 52 136 53 137
REMARK SMILES IDX 57 138 60 139 54 140 55 141 58 142 56 143
REMARK H PARENT 16 2 16 3 15 5 15 6 14 10 9 16 88 18 10 19 87 20 3 27 1 31
REMARK H PARENT 1 32 1 33 91 38 99 40 92 42 98 43 95 48 95 49 95 50 17 52
REMARK H PARENT 17 53 18 55 18 56 19 58 19 59 20 61 20 62 21 65 25 71 86 73
REMARK H PARENT 26 75 85 76 84 86 78 88 80 90 83 92 77 93 45 102 48 104 81 107
REMARK H PARENT 46 108 82 110
REMARK Flexibility Score: inf
ROOT
ATOM      1  C   UNL A   1      30.684  27.868  24.043  1.00  0.00    -0.036 C 
ATOM      2  H   UNL A   1      30.007  27.325  23.416  1.00  0.00     0.028 H 
ATOM      3  H   UNL A   1      30.455  28.905  24.176  1.00  0.00     0.028 H 
ENDROOT
BRANCH   1   4
ATOM      4  C   UNL A   1      32.048  27.856  23.359  1.00  0.00     0.018 C 
ATOM      5  H   UNL A   1      32.318  28.872  23.152  1.00  0.00     0.049 H 
ATOM      6  H   UNL A   1      32.708  27.359  24.038  1.00  0.00     0.049 H 
BRANCH   4   7
ATOM      7  N   UNL A   1      32.127  27.114  22.119  1.00  0.00    -0.352 N 
ATOM      8  C   UNL A   1      32.501  25.811  21.873  1.00  0.00     0.251 C 
ATOM      9  O   UNL A   1      32.366  25.356  20.739  1.00  0.00    -0.269 OA
ATOM     10  H   UNL A   1      31.870  27.625  21.318  1.00  0.00     0.163 HD
BRANCH   8  11
ATOM     11  C   UNL A   1      33.169  24.977  22.911  1.00  0.00     0.040 A 
ATOM     12  C   UNL A   1      34.742  23.954  24.968  1.00  0.00     0.127 A 
ATOM     13  C   UNL A   1      35.262  24.011  23.681  1.00  0.00    -0.019 A 
ATOM     14  C   UNL A   1      33.382  24.178  25.178  1.00  0.00    -0.019 A 
ATOM     15  C   UNL A   1      34.486  24.563  22.658  1.00  0.00    -0.046 A 
ATOM     16  H   UNL A   1      36.208  23.651  23.483  1.00  0.00     0.066 H 
ATOM     17  C   UNL A   1      32.586  24.655  24.137  1.00  0.00    -0.046 A 
ATOM     18  H   UNL A   1      32.965  23.992  26.104  1.00  0.00     0.066 H 
ATOM     19  H   UNL A   1      34.884  24.665  21.711  1.00  0.00     0.063 H 
ATOM     20  H   UNL A   1      31.570  24.769  24.273  1.00  0.00     0.063 H 
BRANCH  12  21
ATOM     21  O   UNL A   1      35.484  23.603  26.055  1.00  0.00    -0.449 OA
BRANCH  21  22
ATOM     22  C   UNL A   1      36.669  22.879  25.986  1.00  0.00     0.217 A 
ATOM     23  C   UNL A   1      39.284  21.783  26.112  1.00  0.00     0.105 A 
ATOM     24  C   UNL A   1      39.179  23.080  26.407  1.00  0.00     0.028 A 
ATOM     25  O   UNL A   1      38.207  21.030  25.695  1.00  0.00    -0.457 OA
ATOM     26  C   UNL A   1      37.862  23.724  26.320  1.00  0.00     0.228 A 
ATOM     27  H   UNL A   1      40.010  23.622  26.692  1.00  0.00     0.070 H 
ATOM     28  C   UNL A   1      36.931  21.588  25.643  1.00  0.00     0.180 A 
ATOM     29  O   UNL A   1      37.774  24.932  26.521  1.00  0.00    -0.285 OA
BRANCH  23  30
ATOM     30  C   UNL A   1      40.571  21.028  26.203  1.00  0.00    -0.006 C 
ATOM     31  H   UNL A   1      41.241  21.372  25.443  1.00  0.00     0.031 H 
ATOM     32  H   UNL A   1      40.381  19.983  26.064  1.00  0.00     0.031 H 
ATOM     33  H   UNL A   1      41.009  21.185  27.166  1.00  0.00     0.031 H 
ENDBRANCH  23  30
BRANCH  28  34
ATOM     34  C   UNL A   1      35.970  20.561  25.201  1.00  0.00     0.021 A 
ATOM     35  C   UNL A   1      36.431  19.272  24.877  1.00  0.00    -0.050 A 
ATOM     36  C   UNL A   1      34.601  20.845  25.079  1.00  0.00    -0.050 A 
ATOM     37  C   UNL A   1      35.532  18.260  24.527  1.00  0.00    -0.043 A 
ATOM     38  H   UNL A   1      37.443  19.072  24.898  1.00  0.00     0.063 H 
ATOM     39  C   UNL A   1      33.699  19.838  24.717  1.00  0.00    -0.043 A 
ATOM     40  H   UNL A   1      34.258  21.801  25.257  1.00  0.00     0.063 H 
ATOM     41  C   UNL A   1      34.167  18.548  24.458  1.00  0.00     0.067 A 
ATOM     42  H   UNL A   1      35.875  17.309  24.321  1.00  0.00     0.064 H 
ATOM     43  H   UNL A   1      32.691  20.049  24.642  1.00  0.00     0.064 H 
BRANCH  41  44
ATOM     44  S   UNL A   1      33.020  17.224  24.142  1.00  0.00     0.175 S 
ATOM     45  O   UNL A   1      31.809  17.520  24.879  1.00  0.00    -0.224 OA
ATOM     46  O   UNL A   1      32.995  16.986  22.710  1.00  0.00    -0.224 OA
BRANCH  44  47
ATOM     47  C   UNL A   1      33.782  15.816  24.897  1.00  0.00     0.043 C 
ATOM     48  H   UNL A   1      33.088  15.351  25.566  1.00  0.00     0.040 H 
ATOM     49  H   UNL A   1      34.647  16.128  25.443  1.00  0.00     0.040 H 
ATOM     50  H   UNL A   1      34.070  15.118  24.140  1.00  0.00     0.040 H 
ENDBRANCH  44  47
ENDBRANCH  41  44
ENDBRANCH  28  34
ENDBRANCH  21  22
ENDBRANCH  12  21
ENDBRANCH   8  11
ENDBRANCH   4   7
ENDBRANCH   1   4
BRANCH   1  51
ATOM     51  C   UNL A   1      30.589  27.267  25.445  1.00  0.00    -0.052 C 
ATOM     52  H   UNL A   1      30.489  26.207  25.336  1.00  0.00     0.027 H 
ATOM     53  H   UNL A   1      29.753  27.754  25.901  1.00  0.00     0.027 H 
BRANCH  51  54
ATOM     54  C   UNL A   1      31.764  27.524  26.390  1.00  0.00    -0.052 C 
ATOM     55  H   UNL A   1      32.667  27.350  25.842  1.00  0.00     0.027 H 
ATOM     56  H   UNL A   1      31.612  26.863  27.217  1.00  0.00     0.027 H 
BRANCH  54  57
ATOM     57  C   UNL A   1      31.855  28.921  27.000  1.00  0.00    -0.036 C 
ATOM     58  H   UNL A   1      32.158  28.815  28.019  1.00  0.00     0.028 H 
ATOM     59  H   UNL A   1      30.885  29.355  26.874  1.00  0.00     0.028 H 
BRANCH  57  60
ATOM     60  C   UNL A   1      32.826  29.880  26.323  1.00  0.00     0.018 C 
ATOM     61  H   UNL A   1      32.729  29.767  25.263  1.00  0.00     0.049 H 
ATOM     62  H   UNL A   1      33.807  29.632  26.671  1.00  0.00     0.049 H 
BRANCH  60  63
ATOM     63  N   UNL A   1      32.593  31.276  26.660  1.00  0.00    -0.352 N 
ATOM     64  C   UNL A   1      33.355  32.138  27.415  1.00  0.00     0.251 C 
ATOM     65  H   UNL A   1      31.766  31.663  26.292  1.00  0.00     0.163 HD
ATOM     66  O   UNL A   1      32.935  33.258  27.686  1.00  0.00    -0.269 OA
BRANCH  64  67
ATOM     67  C   UNL A   1      34.670  31.702  27.938  1.00  0.00     0.039 A 
ATOM     68  C   UNL A   1      34.885  30.383  28.334  1.00  0.00    -0.049 A 
ATOM     69  C   UNL A   1      35.702  32.640  28.053  1.00  0.00    -0.049 A 
ATOM     70  C   UNL A   1      36.048  30.048  29.019  1.00  0.00    -0.053 A 
ATOM     71  H   UNL A   1      34.184  29.657  28.119  1.00  0.00     0.063 H 
ATOM     72  C   UNL A   1      36.915  32.274  28.648  1.00  0.00    -0.053 A 
ATOM     73  H   UNL A   1      35.569  33.601  27.700  1.00  0.00     0.063 H 
ATOM     74  C   UNL A   1      37.078  30.989  29.186  1.00  0.00    -0.014 A 
ATOM     75  H   UNL A   1      36.156  29.098  29.407  1.00  0.00     0.063 H 
ATOM     76  H   UNL A   1      37.692  32.952  28.691  1.00  0.00     0.063 H 
BRANCH  74  77
ATOM     77  C   UNL A   1      38.311  30.595  29.922  1.00  0.00     0.031 A 
ATOM     78  C   UNL A   1      38.518  30.993  31.360  1.00  0.00     0.074 A 
ATOM     79  C   UNL A   1      39.221  29.817  29.306  1.00  0.00     0.049 A 
ATOM     80  N   UNL A   1      39.506  30.689  32.165  1.00  0.00    -0.248 NA
ATOM     81  C   UNL A   1      37.490  31.846  31.974  1.00  0.00    -0.034 C 
ATOM     82  C   UNL A   1      39.132  29.363  27.917  1.00  0.00    -0.036 A 
ATOM     83  N   UNL A   1      40.380  29.244  29.767  1.00  0.00    -0.354 N 
ATOM     84  C   UNL A   1      39.225  31.320  33.371  1.00  0.00     0.074 A 
ATOM     85  C   UNL A   1      37.995  32.058  33.182  1.00  0.00    -0.034 C 
ATOM     86  H   UNL A   1      36.604  32.189  31.571  1.00  0.00     0.065 H 
ATOM     87  C   UNL A   1      40.151  28.533  27.658  1.00  0.00    -0.036 A 
ATOM     88  H   UNL A   1      38.399  29.640  27.243  1.00  0.00     0.065 H 
ATOM     89  C   UNL A   1      41.006  28.450  28.838  1.00  0.00     0.049 A 
ATOM     90  H   UNL A   1      40.728  29.389  30.677  1.00  0.00     0.167 HD
ATOM     91  C   UNL A   1      39.919  31.272  34.533  1.00  0.00     0.037 A 
ATOM     92  H   UNL A   1      37.566  32.670  33.894  1.00  0.00     0.065 H 
ATOM     93  H   UNL A   1      40.307  28.034  26.769  1.00  0.00     0.065 H 
ATOM     94  C   UNL A   1      42.147  27.739  28.918  1.00  0.00     0.037 A 
ATOM     95  C   UNL A   1      41.135  30.522  34.722  1.00  0.00     0.049 A 
ATOM     96  C   UNL A   1      42.926  27.745  30.203  1.00  0.00     0.074 A 
ATOM     97  C   UNL A   1      41.895  30.389  35.871  1.00  0.00    -0.036 A 
ATOM     98  N   UNL A   1      41.771  29.782  33.735  1.00  0.00    -0.354 N 
ATOM     99  N   UNL A   1      42.633  28.322  31.341  1.00  0.00    -0.248 NA
ATOM    100  C   UNL A   1      44.197  27.010  30.211  1.00  0.00    -0.034 C 
ATOM    101  C   UNL A   1      43.019  29.618  35.566  1.00  0.00    -0.036 A 
ATOM    102  H   UNL A   1      41.669  30.790  36.795  1.00  0.00     0.065 H 
ATOM    103  C   UNL A   1      42.931  29.216  34.243  1.00  0.00     0.049 A 
ATOM    104  H   UNL A   1      41.447  29.674  32.812  1.00  0.00     0.167 HD
ATOM    105  C   UNL A   1      43.671  28.009  32.207  1.00  0.00     0.074 A 
ATOM    106  C   UNL A   1      44.594  27.173  31.466  1.00  0.00    -0.034 C 
ATOM    107  H   UNL A   1      44.660  26.498  29.443  1.00  0.00     0.065 H 
ATOM    108  H   UNL A   1      43.787  29.388  36.216  1.00  0.00     0.065 H 
ATOM    109  C   UNL A   1      43.841  28.383  33.498  1.00  0.00     0.037 A 
ATOM    110  H   UNL A   1      45.451  26.758  31.864  1.00  0.00     0.065 H 
BRANCH  91 111
ATOM    111  C   UNL A   1      39.390  32.055  35.702  1.00  0.00     0.064 A 
ATOM    112  C   UNL A   1      38.452  31.509  36.592  1.00  0.00     0.173 A 
ATOM    113  C   UNL A   1      39.877  33.343  35.976  1.00  0.00     0.173 A 
ATOM    114  F   UNL A   1      37.948  30.285  36.374  1.00  0.00    -0.203 F 
ATOM    115  C   UNL A   1      38.005  32.231  37.697  1.00  0.00     0.198 A 
ATOM    116  C   UNL A   1      39.453  34.049  37.099  1.00  0.00     0.198 A 
ATOM    117  F   UNL A   1      40.782  33.910  35.165  1.00  0.00    -0.203 F 
ATOM    118  F   UNL A   1      37.078  31.704  38.509  1.00  0.00    -0.200 F 
ATOM    119  C   UNL A   1      38.513  33.496  37.954  1.00  0.00     0.200 A 
ATOM    120  F   UNL A   1      39.958  35.264  37.356  1.00  0.00    -0.200 F 
ATOM    121  F   UNL A   1      38.094  34.182  39.027  1.00  0.00    -0.200 F 
ENDBRANCH  91 111
BRANCH  94 122
ATOM    122  C   UNL A   1      42.598  26.953  27.741  1.00  0.00     0.064 A 
ATOM    123  C   UNL A   1      43.425  27.527  26.767  1.00  0.00     0.173 A 
ATOM    124  C   UNL A   1      42.260  25.599  27.595  1.00  0.00     0.173 A 
ATOM    125  F   UNL A   1      43.761  28.822  26.853  1.00  0.00    -0.203 F 
ATOM    126  C   UNL A   1      43.899  26.776  25.693  1.00  0.00     0.198 A 
ATOM    127  C   UNL A   1      42.759  24.841  26.538  1.00  0.00     0.198 A 
ATOM    128  F   UNL A   1      41.474  25.001  28.504  1.00  0.00    -0.203 F 
ATOM    129  F   UNL A   1      44.670  27.355  24.763  1.00  0.00    -0.200 F 
ATOM    130  C   UNL A   1      43.576  25.432  25.586  1.00  0.00     0.200 A 
ATOM    131  F   UNL A   1      42.462  23.538  26.451  1.00  0.00    -0.200 F 
ATOM    132  F   UNL A   1      44.053  24.704  24.567  1.00  0.00    -0.200 F 
ENDBRANCH  94 122
BRANCH 109 133
ATOM    133  C   UNL A   1      45.064  27.886  34.215  1.00  0.00     0.064 A 
ATOM    134  C   UNL A   1      45.087  26.629  34.837  1.00  0.00     0.173 A 
ATOM    135  C   UNL A   1      46.250  28.635  34.201  1.00  0.00     0.173 A 
ATOM    136  F   UNL A   1      43.975  25.881  34.890  1.00  0.00    -0.203 F 
ATOM    137  C   UNL A   1      46.253  26.145  35.427  1.00  0.00     0.198 A 
ATOM    138  C   UNL A   1      47.420  28.135  34.764  1.00  0.00     0.198 A 
ATOM    139  F   UNL A   1      46.282  29.840  33.612  1.00  0.00    -0.203 F 
ATOM    140  F   UNL A   1      46.244  24.955  36.042  1.00  0.00    -0.200 F 
ATOM    141  C   UNL A   1      47.420  26.892  35.378  1.00  0.00     0.200 A 
ATOM    142  F   UNL A   1      48.552  28.850  34.700  1.00  0.00    -0.200 F 
ATOM    143  F   UNL A   1      48.546  26.413  35.925  1.00  0.00    -0.200 F 
ENDBRANCH 109 133
ENDBRANCH  74  77
ENDBRANCH  64  67
ENDBRANCH  60  63
ENDBRANCH  57  60
ENDBRANCH  54  57
ENDBRANCH  51  54
ENDBRANCH   1  51
TORSDOF 19
ENDMDL
MODEL 10
REMARK VINA RESULT:     -11.3      3.630      9.028
REMARK SMILES Cc1cc(=O)c(Oc2ccc(C(=O)NCCCCCCNC(=O)c3ccc(-c4c5nc(c(-c6c(F)c(F)c(F)c(F)c6F)c6ccc([nH]6)c(-c6c(F)c(F)c(F)c(F)c6F)c6nc(c(-c7c(F)c(F)c(F)c(F)c7F)c7ccc4[nH]7)C=C6)C=C5)cc3)cc2)c(-c2ccc(S(C)(=O)=O)cc2)o1
REMARK SMILES IDX 16 1 15 4 14 7 12 8 13 9 11 11 8 12 9 13 88 14 10 15 87 17
REMARK SMILES IDX 7 21 6 22 2 23 3 24 100 25 4 26 89 28 5 29 1 30 90 34 91 35
REMARK SMILES IDX 99 36 92 37 98 39 93 41 94 44 96 45 97 46 95 47 17 51 18 54
REMARK SMILES IDX 19 57 20 60 21 63 22 64 23 66 24 67 25 68 86 69 26 70 85 72
REMARK SMILES IDX 27 74 28 77 29 78 79 79 30 80 84 81 78 82 80 83 31 84 83 85
REMARK SMILES IDX 77 87 76 89 32 91 64 94 44 95 63 96 45 97 48 98 62 99 81 100
REMARK SMILES IDX 46 101 47 103 61 105 82 106 49 109 33 111 34 112 42 113
REMARK SMILES IDX 35 114 36 115 40 116 43 117 37 118 38 119 41 120 39 121
REMARK SMILES IDX 65 122 66 123 74 124 67 125 68 126 72 127 75 128 69 129
REMARK SMILES IDX 70 130 73 131 71 132 50 133 51 134 59 135 52 136 53 137
REMARK SMILES IDX 57 138 60 139 54 140 55 141 58 142 56 143
REMARK H PARENT 16 2 16 3 15 5 15 6 14 10 9 16 88 18 10 19 87 20 3 27 1 31
REMARK H PARENT 1 32 1 33 91 38 99 40 92 42 98 43 95 48 95 49 95 50 17 52
REMARK H PARENT 17 53 18 55 18 56 19 58 19 59 20 61 20 62 21 65 25 71 86 73
REMARK H PARENT 26 75 85 76 84 86 78 88 80 90 83 92 77 93 45 102 48 104 81 107
REMARK H PARENT 46 108 82 110
REMARK Flexibility Score: inf
ROOT
ATOM      1  C   UNL A   1      35.735  31.920  28.215  1.00  0.00    -0.036 C 
ATOM      2  H   UNL A   1      36.206  32.291  27.328  1.00  0.00     0.028 H 
ATOM      3  H   UNL A   1      36.379  31.401  28.895  1.00  0.00     0.028 H 
ENDROOT
BRANCH   1   4
ATOM      4  C   UNL A   1      34.706  30.880  27.785  1.00  0.00     0.018 C 
ATOM      5  H   UNL A   1      35.151  30.277  27.020  1.00  0.00     0.049 H 
ATOM      6  H   UNL A   1      34.451  30.340  28.673  1.00  0.00     0.049 H 
BRANCH   4   7
ATOM      7  N   UNL A   1      33.457  31.400  27.270  1.00  0.00    -0.352 N 
ATOM      8  C   UNL A   1      32.368  30.753  26.730  1.00  0.00     0.251 C 
ATOM      9  O   UNL A   1      31.355  31.403  26.474  1.00  0.00    -0.269 OA
ATOM     10  H   UNL A   1      33.372  32.380  27.314  1.00  0.00     0.163 HD
BRANCH   8  11
ATOM     11  C   UNL A   1      32.421  29.317  26.339  1.00  0.00     0.040 A 
ATOM     12  C   UNL A   1      33.048  26.630  25.968  1.00  0.00     0.127 A 
ATOM     13  C   UNL A   1      33.675  27.587  25.181  1.00  0.00    -0.019 A 
ATOM     14  C   UNL A   1      31.955  26.986  26.756  1.00  0.00    -0.019 A 
ATOM     15  C   UNL A   1      33.390  28.938  25.397  1.00  0.00    -0.046 A 
ATOM     16  H   UNL A   1      34.343  27.305  24.447  1.00  0.00     0.066 H 
ATOM     17  C   UNL A   1      31.618  28.330  26.912  1.00  0.00    -0.046 A 
ATOM     18  H   UNL A   1      31.396  26.255  27.224  1.00  0.00     0.066 H 
ATOM     19  H   UNL A   1      33.893  29.661  24.860  1.00  0.00     0.063 H 
ATOM     20  H   UNL A   1      30.777  28.594  27.449  1.00  0.00     0.063 H 
BRANCH  12  21
ATOM     21  O   UNL A   1      33.394  25.312  25.953  1.00  0.00    -0.449 OA
BRANCH  21  22
ATOM     22  C   UNL A   1      33.023  24.422  24.952  1.00  0.00     0.217 A 
ATOM     23  C   UNL A   1      32.488  22.256  23.198  1.00  0.00     0.105 A 
ATOM     24  C   UNL A   1      33.419  22.038  24.129  1.00  0.00     0.028 A 
ATOM     25  O   UNL A   1      31.873  23.480  23.039  1.00  0.00    -0.457 OA
ATOM     26  C   UNL A   1      33.778  23.129  25.043  1.00  0.00     0.228 A 
ATOM     27  H   UNL A   1      33.878  21.117  24.206  1.00  0.00     0.070 H 
ATOM     28  C   UNL A   1      32.149  24.529  23.913  1.00  0.00     0.180 A 
ATOM     29  O   UNL A   1      34.683  22.955  25.855  1.00  0.00    -0.285 OA
BRANCH  23  30
ATOM     30  C   UNL A   1      32.027  21.202  22.243  1.00  0.00    -0.006 C 
ATOM     31  H   UNL A   1      32.275  20.236  22.631  1.00  0.00     0.031 H 
ATOM     32  H   UNL A   1      32.512  21.341  21.299  1.00  0.00     0.031 H 
ATOM     33  H   UNL A   1      30.968  21.276  22.114  1.00  0.00     0.031 H 
ENDBRANCH  23  30
BRANCH  28  34
ATOM     34  C   UNL A   1      31.336  25.701  23.538  1.00  0.00     0.021 A 
ATOM     35  C   UNL A   1      30.038  25.841  24.063  1.00  0.00    -0.050 A 
ATOM     36  C   UNL A   1      31.822  26.676  22.654  1.00  0.00    -0.050 A 
ATOM     37  C   UNL A   1      29.275  26.978  23.783  1.00  0.00    -0.043 A 
ATOM     38  H   UNL A   1      29.646  25.096  24.660  1.00  0.00     0.063 H 
ATOM     39  C   UNL A   1      31.057  27.810  22.361  1.00  0.00    -0.043 A 
ATOM     40  H   UNL A   1      32.749  26.555  22.217  1.00  0.00     0.063 H 
ATOM     41  C   UNL A   1      29.794  27.962  22.939  1.00  0.00     0.067 A 
ATOM     42  H   UNL A   1      28.336  27.088  24.196  1.00  0.00     0.064 H 
ATOM     43  H   UNL A   1      31.424  28.531  21.720  1.00  0.00     0.064 H 
BRANCH  41  44
ATOM     44  S   UNL A   1      28.872  29.465  22.695  1.00  0.00     0.175 S 
ATOM     45  O   UNL A   1      29.328  30.415  23.689  1.00  0.00    -0.224 OA
ATOM     46  O   UNL A   1      28.899  29.781  21.278  1.00  0.00    -0.224 OA
BRANCH  44  47
ATOM     47  C   UNL A   1      27.210  29.013  23.103  1.00  0.00     0.043 C 
ATOM     48  H   UNL A   1      27.216  28.361  23.952  1.00  0.00     0.040 H 
ATOM     49  H   UNL A   1      26.763  28.511  22.271  1.00  0.00     0.040 H 
ATOM     50  H   UNL A   1      26.647  29.893  23.333  1.00  0.00     0.040 H 
ENDBRANCH  44  47
ENDBRANCH  41  44
ENDBRANCH  28  34
ENDBRANCH  21  22
ENDBRANCH  12  21
ENDBRANCH   8  11
ENDBRANCH   4   7
ENDBRANCH   1   4
BRANCH   1  51
ATOM     51  C   UNL A   1      35.233  33.129  29.004  1.00  0.00    -0.052 C 
ATOM     52  H   UNL A   1      34.379  33.518  28.490  1.00  0.00     0.027 H 
ATOM     53  H   UNL A   1      36.069  33.795  29.056  1.00  0.00     0.027 H 
BRANCH  51  54
ATOM     54  C   UNL A   1      34.826  32.888  30.459  1.00  0.00    -0.052 C 
ATOM     55  H   UNL A   1      33.769  32.721  30.477  1.00  0.00     0.027 H 
ATOM     56  H   UNL A   1      35.149  33.758  30.991  1.00  0.00     0.027 H 
BRANCH  54  57
ATOM     57  C   UNL A   1      35.492  31.710  31.166  1.00  0.00    -0.036 C 
ATOM     58  H   UNL A   1      36.410  31.499  30.659  1.00  0.00     0.028 H 
ATOM     59  H   UNL A   1      34.780  30.913  31.132  1.00  0.00     0.028 H 
BRANCH  57  60
ATOM     60  C   UNL A   1      35.811  31.914  32.641  1.00  0.00     0.018 C 
ATOM     61  H   UNL A   1      36.527  31.177  32.938  1.00  0.00     0.049 H 
ATOM     62  H   UNL A   1      34.889  31.825  33.177  1.00  0.00     0.049 H 
BRANCH  60  63
ATOM     63  N   UNL A   1      36.354  33.230  32.942  1.00  0.00    -0.352 N 
ATOM     64  C   UNL A   1      37.625  33.722  32.755  1.00  0.00     0.251 C 
ATOM     65  H   UNL A   1      35.714  33.866  33.338  1.00  0.00     0.163 HD
ATOM     66  O   UNL A   1      37.927  34.833  33.179  1.00  0.00    -0.269 OA
BRANCH  64  67
ATOM     67  C   UNL A   1      38.649  32.895  32.075  1.00  0.00     0.039 A 
ATOM     68  C   UNL A   1      39.447  32.006  32.793  1.00  0.00    -0.049 A 
ATOM     69  C   UNL A   1      38.824  33.028  30.693  1.00  0.00    -0.049 A 
ATOM     70  C   UNL A   1      40.539  31.405  32.175  1.00  0.00    -0.053 A 
ATOM     71  H   UNL A   1      39.230  31.795  33.779  1.00  0.00     0.063 H 
ATOM     72  C   UNL A   1      39.859  32.338  30.052  1.00  0.00    -0.053 A 
ATOM     73  H   UNL A   1      38.191  33.634  30.148  1.00  0.00     0.063 H 
ATOM     74  C   UNL A   1      40.760  31.563  30.796  1.00  0.00    -0.014 A 
ATOM     75  H   UNL A   1      41.193  30.835  32.735  1.00  0.00     0.063 H 
ATOM     76  H   UNL A   1      39.959  32.400  29.026  1.00  0.00     0.063 H 
BRANCH  74  77
ATOM     77  C   UNL A   1      41.936  30.903  30.168  1.00  0.00     0.031 A 
ATOM     78  C   UNL A   1      41.820  29.535  29.549  1.00  0.00     0.074 A 
ATOM     79  C   UNL A   1      43.104  31.571  30.099  1.00  0.00     0.049 A 
ATOM     80  N   UNL A   1      42.730  28.838  28.913  1.00  0.00    -0.248 NA
ATOM     81  C   UNL A   1      40.520  28.856  29.661  1.00  0.00    -0.034 C 
ATOM     82  C   UNL A   1      43.340  32.903  30.658  1.00  0.00    -0.036 A 
ATOM     83  N   UNL A   1      44.298  31.244  29.507  1.00  0.00    -0.354 N 
ATOM     84  C   UNL A   1      42.117  27.641  28.561  1.00  0.00     0.074 A 
ATOM     85  C   UNL A   1      40.772  27.686  29.089  1.00  0.00    -0.034 C 
ATOM     86  H   UNL A   1      39.641  29.201  30.076  1.00  0.00     0.065 H 
ATOM     87  C   UNL A   1      44.575  33.306  30.329  1.00  0.00    -0.036 A 
ATOM     88  H   UNL A   1      42.663  33.446  31.218  1.00  0.00     0.065 H 
ATOM     89  C   UNL A   1      45.244  32.235  29.597  1.00  0.00     0.049 A 
ATOM     90  H   UNL A   1      44.460  30.380  29.062  1.00  0.00     0.167 HD
ATOM     91  C   UNL A   1      42.626  26.608  27.848  1.00  0.00     0.037 A 
ATOM     92  H   UNL A   1      40.095  26.909  29.030  1.00  0.00     0.065 H 
ATOM     93  H   UNL A   1      44.987  34.224  30.557  1.00  0.00     0.065 H 
ATOM     94  C   UNL A   1      46.513  32.280  29.150  1.00  0.00     0.037 A 
ATOM     95  C   UNL A   1      43.963  26.574  27.309  1.00  0.00     0.049 A 
ATOM     96  C   UNL A   1      47.071  31.099  28.407  1.00  0.00     0.074 A 
ATOM     97  C   UNL A   1      44.559  25.583  26.548  1.00  0.00    -0.036 A 
ATOM     98  N   UNL A   1      44.911  27.572  27.478  1.00  0.00    -0.354 N 
ATOM     99  N   UNL A   1      46.472  29.987  28.057  1.00  0.00    -0.248 NA
ATOM    100  C   UNL A   1      48.481  31.174  28.003  1.00  0.00    -0.034 C 
ATOM    101  C   UNL A   1      45.884  25.955  26.307  1.00  0.00    -0.036 A 
ATOM    102  H   UNL A   1      44.103  24.719  26.216  1.00  0.00     0.065 H 
ATOM    103  C   UNL A   1      46.098  27.206  26.862  1.00  0.00     0.049 A 
ATOM    104  H   UNL A   1      44.763  28.416  27.963  1.00  0.00     0.167 HD
ATOM    105  C   UNL A   1      47.423  29.237  27.381  1.00  0.00     0.074 A 
ATOM    106  C   UNL A   1      48.636  30.030  27.351  1.00  0.00    -0.034 C 
ATOM    107  H   UNL A   1      49.170  31.922  28.179  1.00  0.00     0.065 H 
ATOM    108  H   UNL A   1      46.586  25.391  25.801  1.00  0.00     0.065 H 
ATOM    109  C   UNL A   1      47.299  28.003  26.836  1.00  0.00     0.037 A 
ATOM    110  H   UNL A   1      49.509  29.740  26.883  1.00  0.00     0.065 H 
BRANCH  91 111
ATOM    111  C   UNL A   1      41.742  25.417  27.604  1.00  0.00     0.064 A 
ATOM    112  C   UNL A   1      41.920  24.212  28.303  1.00  0.00     0.173 A 
ATOM    113  C   UNL A   1      40.663  25.500  26.711  1.00  0.00     0.173 A 
ATOM    114  F   UNL A   1      42.941  24.075  29.163  1.00  0.00    -0.203 F 
ATOM    115  C   UNL A   1      41.065  23.131  28.100  1.00  0.00     0.198 A 
ATOM    116  C   UNL A   1      39.791  24.429  26.535  1.00  0.00     0.198 A 
ATOM    117  F   UNL A   1      40.439  26.630  26.025  1.00  0.00    -0.203 F 
ATOM    118  F   UNL A   1      41.280  21.978  28.749  1.00  0.00    -0.200 F 
ATOM    119  C   UNL A   1      39.996  23.244  27.223  1.00  0.00     0.200 A 
ATOM    120  F   UNL A   1      38.748  24.546  25.701  1.00  0.00    -0.200 F 
ATOM    121  F   UNL A   1      39.165  22.208  27.041  1.00  0.00    -0.200 F 
ENDBRANCH  91 111
BRANCH  94 122
ATOM    122  C   UNL A   1      47.325  33.501  29.386  1.00  0.00     0.064 A 
ATOM    123  C   UNL A   1      48.103  33.634  30.544  1.00  0.00     0.173 A 
ATOM    124  C   UNL A   1      47.386  34.533  28.437  1.00  0.00     0.173 A 
ATOM    125  F   UNL A   1      48.064  32.684  31.489  1.00  0.00    -0.203 F 
ATOM    126  C   UNL A   1      48.913  34.751  30.742  1.00  0.00     0.198 A 
ATOM    127  C   UNL A   1      48.219  35.634  28.621  1.00  0.00     0.198 A 
ATOM    128  F   UNL A   1      46.664  34.450  27.309  1.00  0.00    -0.203 F 
ATOM    129  F   UNL A   1      49.629  34.864  31.869  1.00  0.00    -0.200 F 
ATOM    130  C   UNL A   1      48.979  35.743  29.776  1.00  0.00     0.200 A 
ATOM    131  F   UNL A   1      48.296  36.579  27.675  1.00  0.00    -0.200 F 
ATOM    132  F   UNL A   1      49.777  36.804  29.955  1.00  0.00    -0.200 F 
ENDBRANCH  94 122
BRANCH 109 133
ATOM    133  C   UNL A   1      48.497  27.422  26.141  1.00  0.00     0.064 A 
ATOM    134  C   UNL A   1      48.632  27.475  24.746  1.00  0.00     0.173 A 
ATOM    135  C   UNL A   1      49.560  26.888  26.885  1.00  0.00     0.173 A 
ATOM    136  F   UNL A   1      47.637  27.962  23.990  1.00  0.00    -0.203 F 
ATOM    137  C   UNL A   1      49.785  27.007  24.121  1.00  0.00     0.198 A 
ATOM    138  C   UNL A   1      50.724  26.450  26.259  1.00  0.00     0.198 A 
ATOM    139  F   UNL A   1      49.484  26.821  28.223  1.00  0.00    -0.203 F 
ATOM    140  F   UNL A   1      49.880  27.040  22.785  1.00  0.00    -0.200 F 
ATOM    141  C   UNL A   1      50.834  26.507  24.878  1.00  0.00     0.200 A 
ATOM    142  F   UNL A   1      51.744  25.984  26.993  1.00  0.00    -0.200 F 
ATOM    143  F   UNL A   1      51.953  26.080  24.276  1.00  0.00    -0.200 F 
ENDBRANCH 109 133
ENDBRANCH  74  77
ENDBRANCH  64  67
ENDBRANCH  60  63
ENDBRANCH  57  60
ENDBRANCH  54  57
ENDBRANCH  51  54
ENDBRANCH   1  51
TORSDOF 19
ENDMDL
