MODEL 1
REMARK VINA RESULT:     -12.7      0.000      0.000
REMARK SMILES Cc1cc2cc(-c3ccc([C@@H](C)C(=O)NCCCCCCNC(=O)c4ccc(-c5c6nc(c(-c7c(F)c(F)c(F)c(F)c7F)c7ccc([nH]7)c(-c7c(F)c(F)c(F)c(F)c7F)c7nc(c(-c8c(F)c(F)c(F)c(F)c8F)c8ccc5[nH]8)C=C7)C=C6)cc4)cc3)ccc2[nH]1
REMARK SMILES IDX 18 1 17 4 16 7 15 10 13 11 14 12 11 14 10 16 7 17 8 18 89 19
REMARK SMILES IDX 9 20 88 22 6 26 2 27 3 28 93 29 4 30 92 32 5 34 91 35 90 37
REMARK SMILES IDX 1 40 12 44 19 48 20 51 21 54 22 57 23 58 24 60 25 61 26 62
REMARK SMILES IDX 87 63 27 64 86 66 28 68 29 71 30 72 80 73 31 74 85 75 79 76
REMARK SMILES IDX 81 77 32 78 84 79 78 81 77 83 33 85 65 88 45 89 64 90 46 91
REMARK SMILES IDX 49 92 63 93 82 94 47 95 48 97 62 99 83 100 50 103 34 105
REMARK SMILES IDX 35 106 43 107 36 108 37 109 41 110 44 111 38 112 39 113
REMARK SMILES IDX 42 114 40 115 66 116 67 117 75 118 68 119 69 120 73 121
REMARK SMILES IDX 76 122 70 123 71 124 74 125 72 126 51 127 52 128 60 129
REMARK SMILES IDX 53 130 54 131 58 132 61 133 55 134 56 135 59 136 57 137
REMARK H PARENT 18 2 18 3 17 5 17 6 16 8 16 9 15 13 11 15 8 21 89 23 9 24
REMARK H PARENT 88 25 3 31 93 33 5 36 91 38 90 39 1 41 1 42 1 43 12 45 12 46
REMARK H PARENT 12 47 19 49 19 50 20 52 20 53 21 55 21 56 22 59 26 65 87 67
REMARK H PARENT 27 69 86 70 85 80 79 82 81 84 84 86 78 87 46 96 49 98 82 101
REMARK H PARENT 47 102 83 104
REMARK Flexibility Score: inf
ROOT
ATOM      1  C   UNL A   1      34.086  25.372  24.726  1.00  0.00    -0.052 C 
ATOM      2  H   UNL A   1      33.260  24.713  24.555  1.00  0.00     0.027 H 
ATOM      3  H   UNL A   1      34.468  25.820  23.834  1.00  0.00     0.027 H 
ENDROOT
BRANCH   1   4
ATOM      4  C   UNL A   1      35.237  24.547  25.312  1.00  0.00    -0.036 C 
ATOM      5  H   UNL A   1      36.069  24.603  24.639  1.00  0.00     0.028 H 
ATOM      6  H   UNL A   1      35.457  24.960  26.273  1.00  0.00     0.028 H 
BRANCH   4   7
ATOM      7  C   UNL A   1      34.895  23.071  25.531  1.00  0.00     0.017 C 
ATOM      8  H   UNL A   1      34.270  22.738  24.728  1.00  0.00     0.049 H 
ATOM      9  H   UNL A   1      35.811  22.519  25.561  1.00  0.00     0.049 H 
BRANCH   7  10
ATOM     10  N   UNL A   1      34.201  22.858  26.784  1.00  0.00    -0.356 N 
ATOM     11  C   UNL A   1      32.907  22.538  27.061  1.00  0.00     0.227 C 
ATOM     12  O   UNL A   1      32.595  22.506  28.258  1.00  0.00    -0.274 OA
ATOM     13  H   UNL A   1      34.769  22.963  27.581  1.00  0.00     0.163 HD
BRANCH  11  14
ATOM     14  C   UNL A   1      31.858  22.210  25.988  1.00  0.00     0.060 C 
ATOM     15  H   UNL A   1      31.066  21.706  26.502  1.00  0.00     0.045 H 
BRANCH  14  16
ATOM     16  C   UNL A   1      31.171  23.439  25.414  1.00  0.00    -0.036 A 
ATOM     17  C   UNL A   1      29.800  25.667  24.264  1.00  0.00    -0.018 A 
ATOM     18  C   UNL A   1      29.932  25.515  25.653  1.00  0.00    -0.054 A 
ATOM     19  C   UNL A   1      30.385  24.681  23.457  1.00  0.00    -0.054 A 
ATOM     20  C   UNL A   1      30.633  24.445  26.215  1.00  0.00    -0.058 A 
ATOM     21  H   UNL A   1      29.500  26.212  26.278  1.00  0.00     0.063 H 
ATOM     22  C   UNL A   1      31.042  23.577  24.022  1.00  0.00    -0.058 A 
ATOM     23  H   UNL A   1      30.330  24.768  22.431  1.00  0.00     0.063 H 
ATOM     24  H   UNL A   1      30.755  24.398  27.238  1.00  0.00     0.063 H 
ATOM     25  H   UNL A   1      31.439  22.854  23.402  1.00  0.00     0.063 H 
BRANCH  17  26
ATOM     26  C   UNL A   1      29.072  26.831  23.708  1.00  0.00    -0.018 A 
ATOM     27  C   UNL A   1      28.470  30.987  21.705  1.00  0.00     0.013 A 
ATOM     28  C   UNL A   1      29.565  30.168  21.885  1.00  0.00    -0.034 A 
ATOM     29  N   UNL A   1      27.380  30.335  22.230  1.00  0.00    -0.359 N 
ATOM     30  C   UNL A   1      29.125  28.995  22.553  1.00  0.00     0.000 A 
ATOM     31  H   UNL A   1      30.531  30.370  21.587  1.00  0.00     0.065 H 
ATOM     32  C   UNL A   1      27.757  29.123  22.766  1.00  0.00     0.046 A 
ATOM     33  H   UNL A   1      26.460  30.684  22.225  1.00  0.00     0.166 HD
ATOM     34  C   UNL A   1      29.774  27.834  23.007  1.00  0.00    -0.045 A 
ATOM     35  C   UNL A   1      27.007  28.139  23.417  1.00  0.00    -0.037 A 
ATOM     36  H   UNL A   1      30.784  27.713  22.825  1.00  0.00     0.064 H 
ATOM     37  C   UNL A   1      27.689  27.005  23.889  1.00  0.00    -0.052 A 
ATOM     38  H   UNL A   1      25.988  28.242  23.546  1.00  0.00     0.065 H 
ATOM     39  H   UNL A   1      27.157  26.274  24.384  1.00  0.00     0.063 H 
BRANCH  27  40
ATOM     40  C   UNL A   1      28.364  32.325  21.078  1.00  0.00    -0.024 C 
ATOM     41  H   UNL A   1      29.092  32.980  21.509  1.00  0.00     0.029 H 
ATOM     42  H   UNL A   1      27.384  32.721  21.247  1.00  0.00     0.029 H 
ATOM     43  H   UNL A   1      28.537  32.242  20.026  1.00  0.00     0.029 H 
ENDBRANCH  27  40
ENDBRANCH  17  26
ENDBRANCH  14  16
BRANCH  14  44
ATOM     44  C   UNL A   1      32.317  21.164  24.970  1.00  0.00    -0.049 C 
ATOM     45  H   UNL A   1      32.593  20.266  25.482  1.00  0.00     0.024 H 
ATOM     46  H   UNL A   1      33.160  21.540  24.428  1.00  0.00     0.024 H 
ATOM     47  H   UNL A   1      31.519  20.956  24.289  1.00  0.00     0.024 H 
ENDBRANCH  14  44
ENDBRANCH  11  14
ENDBRANCH   7  10
ENDBRANCH   4   7
ENDBRANCH   1   4
BRANCH   1  48
ATOM     48  C   UNL A   1      33.596  26.529  25.607  1.00  0.00    -0.052 C 
ATOM     49  H   UNL A   1      34.441  26.926  26.128  1.00  0.00     0.027 H 
ATOM     50  H   UNL A   1      32.848  26.111  26.249  1.00  0.00     0.027 H 
BRANCH  48  51
ATOM     51  C   UNL A   1      32.914  27.683  24.866  1.00  0.00    -0.036 C 
ATOM     52  H   UNL A   1      31.983  27.888  25.354  1.00  0.00     0.028 H 
ATOM     53  H   UNL A   1      32.798  27.361  23.852  1.00  0.00     0.028 H 
BRANCH  51  54
ATOM     54  C   UNL A   1      33.718  28.980  24.816  1.00  0.00     0.018 C 
ATOM     55  H   UNL A   1      33.964  29.194  23.797  1.00  0.00     0.049 H 
ATOM     56  H   UNL A   1      34.600  28.844  25.406  1.00  0.00     0.049 H 
BRANCH  54  57
ATOM     57  N   UNL A   1      32.976  30.101  25.367  1.00  0.00    -0.352 N 
ATOM     58  C   UNL A   1      33.145  30.773  26.552  1.00  0.00     0.251 C 
ATOM     59  H   UNL A   1      32.238  30.431  24.803  1.00  0.00     0.163 HD
ATOM     60  O   UNL A   1      32.285  31.554  26.944  1.00  0.00    -0.269 OA
BRANCH  58  61
ATOM     61  C   UNL A   1      34.358  30.552  27.368  1.00  0.00     0.039 A 
ATOM     62  C   UNL A   1      34.594  29.280  27.897  1.00  0.00    -0.049 A 
ATOM     63  C   UNL A   1      35.236  31.602  27.650  1.00  0.00    -0.049 A 
ATOM     64  C   UNL A   1      35.737  29.048  28.666  1.00  0.00    -0.053 A 
ATOM     65  H   UNL A   1      33.925  28.514  27.720  1.00  0.00     0.063 H 
ATOM     66  C   UNL A   1      36.407  31.356  28.364  1.00  0.00    -0.053 A 
ATOM     67  H   UNL A   1      35.018  32.559  27.330  1.00  0.00     0.063 H 
ATOM     68  C   UNL A   1      36.666  30.078  28.883  1.00  0.00    -0.014 A 
ATOM     69  H   UNL A   1      35.900  28.115  29.075  1.00  0.00     0.063 H 
ATOM     70  H   UNL A   1      37.088  32.117  28.511  1.00  0.00     0.063 H 
BRANCH  68  71
ATOM     71  C   UNL A   1      37.907  29.843  29.664  1.00  0.00     0.031 A 
ATOM     72  C   UNL A   1      38.965  28.915  29.134  1.00  0.00     0.074 A 
ATOM     73  C   UNL A   1      38.053  30.415  30.873  1.00  0.00     0.049 A 
ATOM     74  N   UNL A   1      40.078  28.520  29.699  1.00  0.00    -0.248 NA
ATOM     75  C   UNL A   1      38.730  28.338  27.802  1.00  0.00    -0.034 C 
ATOM     76  C   UNL A   1      37.082  31.304  31.510  1.00  0.00    -0.036 A 
ATOM     77  N   UNL A   1      39.072  30.325  31.788  1.00  0.00    -0.354 N 
ATOM     78  C   UNL A   1      40.666  27.640  28.800  1.00  0.00     0.074 A 
ATOM     79  C   UNL A   1      39.765  27.520  27.674  1.00  0.00    -0.034 C 
ATOM     80  H   UNL A   1      37.960  28.522  27.140  1.00  0.00     0.065 H 
ATOM     81  C   UNL A   1      37.558  31.692  32.705  1.00  0.00    -0.036 A 
ATOM     82  H   UNL A   1      36.175  31.588  31.106  1.00  0.00     0.065 H 
ATOM     83  C   UNL A   1      38.850  31.052  32.932  1.00  0.00     0.049 A 
ATOM     84  H   UNL A   1      39.885  29.789  31.640  1.00  0.00     0.167 HD
ATOM     85  C   UNL A   1      41.859  27.005  28.895  1.00  0.00     0.037 A 
ATOM     86  H   UNL A   1      39.908  26.882  26.876  1.00  0.00     0.065 H 
ATOM     87  H   UNL A   1      37.086  32.338  33.357  1.00  0.00     0.065 H 
ATOM     88  C   UNL A   1      39.602  31.182  34.041  1.00  0.00     0.037 A 
ATOM     89  C   UNL A   1      42.765  27.145  30.005  1.00  0.00     0.049 A 
ATOM     90  C   UNL A   1      40.919  30.460  34.124  1.00  0.00     0.074 A 
ATOM     91  C   UNL A   1      44.017  26.580  30.175  1.00  0.00    -0.036 A 
ATOM     92  N   UNL A   1      42.513  27.905  31.137  1.00  0.00    -0.354 N 
ATOM     93  N   UNL A   1      41.490  29.673  33.245  1.00  0.00    -0.248 NA
ATOM     94  C   UNL A   1      41.702  30.650  35.355  1.00  0.00    -0.034 C 
ATOM     95  C   UNL A   1      44.509  26.971  31.425  1.00  0.00    -0.036 A 
ATOM     96  H   UNL A   1      44.506  25.976  29.495  1.00  0.00     0.065 H 
ATOM     97  C   UNL A   1      43.581  27.814  32.015  1.00  0.00     0.049 A 
ATOM     98  H   UNL A   1      41.697  28.433  31.293  1.00  0.00     0.167 HD
ATOM     99  C   UNL A   1      42.706  29.299  33.799  1.00  0.00     0.074 A 
ATOM    100  C   UNL A   1      42.798  29.955  35.087  1.00  0.00    -0.034 C 
ATOM    101  H   UNL A   1      41.460  31.185  36.204  1.00  0.00     0.065 H 
ATOM    102  H   UNL A   1      45.409  26.681  31.837  1.00  0.00     0.065 H 
ATOM    103  C   UNL A   1      43.661  28.485  33.288  1.00  0.00     0.037 A 
ATOM    104  H   UNL A   1      43.613  29.890  35.717  1.00  0.00     0.065 H 
BRANCH  85 105
ATOM    105  C   UNL A   1      42.258  26.107  27.761  1.00  0.00     0.064 A 
ATOM    106  C   UNL A   1      43.131  26.543  26.752  1.00  0.00     0.173 A 
ATOM    107  C   UNL A   1      41.792  24.785  27.699  1.00  0.00     0.173 A 
ATOM    108  F   UNL A   1      43.595  27.801  26.760  1.00  0.00    -0.203 F 
ATOM    109  C   UNL A   1      43.499  25.699  25.708  1.00  0.00     0.198 A 
ATOM    110  C   UNL A   1      42.184  23.934  26.668  1.00  0.00     0.198 A 
ATOM    111  F   UNL A   1      40.961  24.315  28.641  1.00  0.00    -0.203 F 
ATOM    112  F   UNL A   1      44.295  26.152  24.731  1.00  0.00    -0.200 F 
ATOM    113  C   UNL A   1      43.031  24.394  25.670  1.00  0.00     0.200 A 
ATOM    114  F   UNL A   1      41.741  22.670  26.640  1.00  0.00    -0.200 F 
ATOM    115  F   UNL A   1      43.391  23.580  24.668  1.00  0.00    -0.200 F 
ENDBRANCH  85 105
BRANCH  88 116
ATOM    116  C   UNL A   1      39.141  32.052  35.154  1.00  0.00     0.064 A 
ATOM    117  C   UNL A   1      39.389  33.431  35.136  1.00  0.00     0.173 A 
ATOM    118  C   UNL A   1      38.454  31.526  36.258  1.00  0.00     0.173 A 
ATOM    119  F   UNL A   1      40.061  33.976  34.111  1.00  0.00    -0.203 F 
ATOM    120  C   UNL A   1      38.985  34.249  36.188  1.00  0.00     0.198 A 
ATOM    121  C   UNL A   1      38.027  32.349  37.297  1.00  0.00     0.198 A 
ATOM    122  F   UNL A   1      38.189  30.213  36.321  1.00  0.00    -0.203 F 
ATOM    123  F   UNL A   1      39.274  35.558  36.165  1.00  0.00    -0.200 F 
ATOM    124  C   UNL A   1      38.299  33.709  37.266  1.00  0.00     0.200 A 
ATOM    125  F   UNL A   1      37.354  31.826  38.331  1.00  0.00    -0.200 F 
ATOM    126  F   UNL A   1      37.909  34.496  38.276  1.00  0.00    -0.200 F 
ENDBRANCH  88 116
BRANCH 103 127
ATOM    127  C   UNL A   1      44.906  28.289  34.102  1.00  0.00     0.064 A 
ATOM    128  C   UNL A   1      46.003  29.154  33.986  1.00  0.00     0.173 A 
ATOM    129  C   UNL A   1      44.984  27.246  35.037  1.00  0.00     0.173 A 
ATOM    130  F   UNL A   1      45.982  30.156  33.094  1.00  0.00    -0.203 F 
ATOM    131  C   UNL A   1      47.145  28.967  34.760  1.00  0.00     0.198 A 
ATOM    132  C   UNL A   1      46.116  27.079  35.829  1.00  0.00     0.198 A 
ATOM    133  F   UNL A   1      43.958  26.396  35.190  1.00  0.00    -0.203 F 
ATOM    134  F   UNL A   1      48.200  29.778  34.601  1.00  0.00    -0.200 F 
ATOM    135  C   UNL A   1      47.198  27.935  35.685  1.00  0.00     0.200 A 
ATOM    136  F   UNL A   1      46.161  26.088  36.731  1.00  0.00    -0.200 F 
ATOM    137  F   UNL A   1      48.296  27.760  36.434  1.00  0.00    -0.200 F 
ENDBRANCH 103 127
ENDBRANCH  68  71
ENDBRANCH  58  61
ENDBRANCH  54  57
ENDBRANCH  51  54
ENDBRANCH  48  51
ENDBRANCH   1  48
TORSDOF 17
ENDMDL
MODEL 2
REMARK VINA RESULT:     -12.4      2.156      7.352
REMARK SMILES Cc1cc2cc(-c3ccc([C@@H](C)C(=O)NCCCCCCNC(=O)c4ccc(-c5c6nc(c(-c7c(F)c(F)c(F)c(F)c7F)c7ccc([nH]7)c(-c7c(F)c(F)c(F)c(F)c7F)c7nc(c(-c8c(F)c(F)c(F)c(F)c8F)c8ccc5[nH]8)C=C7)C=C6)cc4)cc3)ccc2[nH]1
REMARK SMILES IDX 18 1 17 4 16 7 15 10 13 11 14 12 11 14 10 16 7 17 8 18 89 19
REMARK SMILES IDX 9 20 88 22 6 26 2 27 3 28 93 29 4 30 92 32 5 34 91 35 90 37
REMARK SMILES IDX 1 40 12 44 19 48 20 51 21 54 22 57 23 58 24 60 25 61 26 62
REMARK SMILES IDX 87 63 27 64 86 66 28 68 29 71 30 72 80 73 31 74 85 75 79 76
REMARK SMILES IDX 81 77 32 78 84 79 78 81 77 83 33 85 65 88 45 89 64 90 46 91
REMARK SMILES IDX 49 92 63 93 82 94 47 95 48 97 62 99 83 100 50 103 34 105
REMARK SMILES IDX 35 106 43 107 36 108 37 109 41 110 44 111 38 112 39 113
REMARK SMILES IDX 42 114 40 115 66 116 67 117 75 118 68 119 69 120 73 121
REMARK SMILES IDX 76 122 70 123 71 124 74 125 72 126 51 127 52 128 60 129
REMARK SMILES IDX 53 130 54 131 58 132 61 133 55 134 56 135 59 136 57 137
REMARK H PARENT 18 2 18 3 17 5 17 6 16 8 16 9 15 13 11 15 8 21 89 23 9 24
REMARK H PARENT 88 25 3 31 93 33 5 36 91 38 90 39 1 41 1 42 1 43 12 45 12 46
REMARK H PARENT 12 47 19 49 19 50 20 52 20 53 21 55 21 56 22 59 26 65 87 67
REMARK H PARENT 27 69 86 70 85 80 79 82 81 84 84 86 78 87 46 96 49 98 82 101
REMARK H PARENT 47 102 83 104
REMARK Flexibility Score: inf
ROOT
ATOM      1  C   UNL A   1      34.018  25.625  25.504  1.00  0.00    -0.052 C 
ATOM      2  H   UNL A   1      34.390  26.193  26.331  1.00  0.00     0.027 H 
ATOM      3  H   UNL A   1      33.176  25.013  25.751  1.00  0.00     0.027 H 
ENDROOT
BRANCH   1   4
ATOM      4  C   UNL A   1      35.123  24.663  25.054  1.00  0.00    -0.036 C 
ATOM      5  H   UNL A   1      35.298  24.816  24.009  1.00  0.00     0.028 H 
ATOM      6  H   UNL A   1      35.984  24.880  25.651  1.00  0.00     0.028 H 
BRANCH   4   7
ATOM      7  C   UNL A   1      34.790  23.186  25.275  1.00  0.00     0.017 C 
ATOM      8  H   UNL A   1      34.065  22.883  24.548  1.00  0.00     0.049 H 
ATOM      9  H   UNL A   1      35.694  22.623  25.175  1.00  0.00     0.049 H 
BRANCH   7  10
ATOM     10  N   UNL A   1      34.254  22.945  26.598  1.00  0.00    -0.356 N 
ATOM     11  C   UNL A   1      33.010  22.594  27.023  1.00  0.00     0.227 C 
ATOM     12  O   UNL A   1      32.843  22.543  28.248  1.00  0.00    -0.274 OA
ATOM     13  H   UNL A   1      34.911  23.054  27.324  1.00  0.00     0.163 HD
BRANCH  11  14
ATOM     14  C   UNL A   1      31.847  22.254  26.078  1.00  0.00     0.060 C 
ATOM     15  H   UNL A   1      31.086  21.826  26.698  1.00  0.00     0.045 H 
BRANCH  14  16
ATOM     16  C   UNL A   1      31.167  23.478  25.487  1.00  0.00    -0.036 A 
ATOM     17  C   UNL A   1      29.807  25.696  24.305  1.00  0.00    -0.018 A 
ATOM     18  C   UNL A   1      29.927  25.556  25.696  1.00  0.00    -0.054 A 
ATOM     19  C   UNL A   1      30.398  24.702  23.513  1.00  0.00    -0.054 A 
ATOM     20  C   UNL A   1      30.623  24.491  26.274  1.00  0.00    -0.058 A 
ATOM     21  H   UNL A   1      29.490  26.260  26.311  1.00  0.00     0.063 H 
ATOM     22  C   UNL A   1      31.049  23.603  24.093  1.00  0.00    -0.058 A 
ATOM     23  H   UNL A   1      30.352  24.779  22.485  1.00  0.00     0.063 H 
ATOM     24  H   UNL A   1      30.735  24.454  27.299  1.00  0.00     0.063 H 
ATOM     25  H   UNL A   1      31.451  22.873  23.483  1.00  0.00     0.063 H 
BRANCH  17  26
ATOM     26  C   UNL A   1      29.085  26.855  23.732  1.00  0.00    -0.018 A 
ATOM     27  C   UNL A   1      28.503  31.004  21.710  1.00  0.00     0.013 A 
ATOM     28  C   UNL A   1      29.597  30.191  21.914  1.00  0.00    -0.034 A 
ATOM     29  N   UNL A   1      27.406  30.348  22.214  1.00  0.00    -0.359 N 
ATOM     30  C   UNL A   1      29.150  29.017  22.575  1.00  0.00     0.000 A 
ATOM     31  H   UNL A   1      30.569  30.399  21.636  1.00  0.00     0.065 H 
ATOM     32  C   UNL A   1      27.777  29.139  22.759  1.00  0.00     0.046 A 
ATOM     33  H   UNL A   1      26.484  30.692  22.188  1.00  0.00     0.166 HD
ATOM     34  C   UNL A   1      29.796  27.860  23.045  1.00  0.00    -0.045 A 
ATOM     35  C   UNL A   1      27.019  28.151  23.396  1.00  0.00    -0.037 A 
ATOM     36  H   UNL A   1      30.810  27.745  22.883  1.00  0.00     0.064 H 
ATOM     37  C   UNL A   1      27.698  27.022  23.884  1.00  0.00    -0.052 A 
ATOM     38  H   UNL A   1      25.997  28.249  23.504  1.00  0.00     0.065 H 
ATOM     39  H   UNL A   1      27.159  26.289  24.369  1.00  0.00     0.063 H 
BRANCH  27  40
ATOM     40  C   UNL A   1      28.403  32.342  21.079  1.00  0.00    -0.024 C 
ATOM     41  H   UNL A   1      29.003  32.364  20.193  1.00  0.00     0.029 H 
ATOM     42  H   UNL A   1      28.750  33.086  21.764  1.00  0.00     0.029 H 
ATOM     43  H   UNL A   1      27.384  32.540  20.824  1.00  0.00     0.029 H 
ENDBRANCH  27  40
ENDBRANCH  17  26
ENDBRANCH  14  16
BRANCH  14  44
ATOM     44  C   UNL A   1      32.156  21.121  25.097  1.00  0.00    -0.049 C 
ATOM     45  H   UNL A   1      32.854  21.466  24.363  1.00  0.00     0.024 H 
ATOM     46  H   UNL A   1      31.253  20.811  24.614  1.00  0.00     0.024 H 
ATOM     47  H   UNL A   1      32.578  20.294  25.629  1.00  0.00     0.024 H 
ENDBRANCH  14  44
ENDBRANCH  11  14
ENDBRANCH   7  10
ENDBRANCH   4   7
ENDBRANCH   1   4
BRANCH   1  48
ATOM     48  C   UNL A   1      33.530  26.609  24.433  1.00  0.00    -0.052 C 
ATOM     49  H   UNL A   1      32.574  26.275  24.090  1.00  0.00     0.027 H 
ATOM     50  H   UNL A   1      34.286  26.614  23.675  1.00  0.00     0.027 H 
BRANCH  48  51
ATOM     51  C   UNL A   1      33.385  28.065  24.888  1.00  0.00    -0.036 C 
ATOM     52  H   UNL A   1      32.341  28.289  24.958  1.00  0.00     0.028 H 
ATOM     53  H   UNL A   1      33.897  28.659  24.159  1.00  0.00     0.028 H 
BRANCH  51  54
ATOM     54  C   UNL A   1      34.032  28.386  26.233  1.00  0.00     0.018 C 
ATOM     55  H   UNL A   1      35.090  28.249  26.150  1.00  0.00     0.049 H 
ATOM     56  H   UNL A   1      33.613  27.728  26.966  1.00  0.00     0.049 H 
BRANCH  54  57
ATOM     57  N   UNL A   1      33.766  29.752  26.652  1.00  0.00    -0.352 N 
ATOM     58  C   UNL A   1      34.442  30.547  27.543  1.00  0.00     0.251 C 
ATOM     59  H   UNL A   1      32.980  30.172  26.231  1.00  0.00     0.163 HD
ATOM     60  O   UNL A   1      33.943  31.599  27.930  1.00  0.00    -0.269 OA
BRANCH  58  61
ATOM     61  C   UNL A   1      35.770  30.140  28.049  1.00  0.00     0.039 A 
ATOM     62  C   UNL A   1      35.878  29.680  29.365  1.00  0.00    -0.049 A 
ATOM     63  C   UNL A   1      36.911  30.252  27.250  1.00  0.00    -0.049 A 
ATOM     64  C   UNL A   1      37.123  29.283  29.862  1.00  0.00    -0.053 A 
ATOM     65  H   UNL A   1      35.042  29.633  29.967  1.00  0.00     0.063 H 
ATOM     66  C   UNL A   1      38.140  29.799  27.726  1.00  0.00    -0.053 A 
ATOM     67  H   UNL A   1      36.843  30.671  26.309  1.00  0.00     0.063 H 
ATOM     68  C   UNL A   1      38.258  29.316  29.037  1.00  0.00    -0.014 A 
ATOM     69  H   UNL A   1      37.206  28.965  30.840  1.00  0.00     0.063 H 
ATOM     70  H   UNL A   1      38.967  29.818  27.109  1.00  0.00     0.063 H 
BRANCH  68  71
ATOM     71  C   UNL A   1      39.582  28.861  29.533  1.00  0.00     0.031 A 
ATOM     72  C   UNL A   1      40.342  29.696  30.526  1.00  0.00     0.074 A 
ATOM     73  C   UNL A   1      40.124  27.730  29.046  1.00  0.00     0.049 A 
ATOM     74  N   UNL A   1      41.542  29.511  31.018  1.00  0.00    -0.248 NA
ATOM     75  C   UNL A   1      39.674  30.913  31.013  1.00  0.00    -0.034 C 
ATOM     76  C   UNL A   1      39.501  26.853  28.054  1.00  0.00    -0.036 A 
ATOM     77  N   UNL A   1      41.329  27.129  29.311  1.00  0.00    -0.354 N 
ATOM     78  C   UNL A   1      41.775  30.592  31.857  1.00  0.00     0.074 A 
ATOM     79  C   UNL A   1      40.616  31.454  31.772  1.00  0.00    -0.034 C 
ATOM     80  H   UNL A   1      38.721  31.256  30.815  1.00  0.00     0.065 H 
ATOM     81  C   UNL A   1      40.320  25.818  27.806  1.00  0.00    -0.036 A 
ATOM     82  H   UNL A   1      38.580  27.007  27.614  1.00  0.00     0.065 H 
ATOM     83  C   UNL A   1      41.538  25.976  28.595  1.00  0.00     0.049 A 
ATOM     84  H   UNL A   1      41.982  27.490  29.954  1.00  0.00     0.167 HD
ATOM     85  C   UNL A   1      42.850  30.834  32.645  1.00  0.00     0.037 A 
ATOM     86  H   UNL A   1      40.532  32.369  32.241  1.00  0.00     0.065 H 
ATOM     87  H   UNL A   1      40.120  25.036  27.162  1.00  0.00     0.065 H 
ATOM     88  C   UNL A   1      42.597  25.144  28.573  1.00  0.00     0.037 A 
ATOM     89  C   UNL A   1      43.993  29.964  32.747  1.00  0.00     0.049 A 
ATOM     90  C   UNL A   1      43.782  25.440  29.451  1.00  0.00     0.074 A 
ATOM     91  C   UNL A   1      45.112  30.096  33.550  1.00  0.00    -0.036 A 
ATOM     92  N   UNL A   1      44.160  28.795  32.019  1.00  0.00    -0.354 N 
ATOM     93  N   UNL A   1      43.970  26.437  30.281  1.00  0.00    -0.248 NA
ATOM     94  C   UNL A   1      44.902  24.489  29.393  1.00  0.00    -0.034 C 
ATOM     95  C   UNL A   1      45.973  29.026  33.283  1.00  0.00    -0.036 A 
ATOM     96  H   UNL A   1      45.282  30.853  34.230  1.00  0.00     0.065 H 
ATOM     97  C   UNL A   1      45.370  28.204  32.345  1.00  0.00     0.049 A 
ATOM     98  H   UNL A   1      43.514  28.437  31.368  1.00  0.00     0.167 HD
ATOM     99  C   UNL A   1      45.210  26.219  30.866  1.00  0.00     0.074 A 
ATOM    100  C   UNL A   1      45.726  24.988  30.304  1.00  0.00    -0.034 C 
ATOM    101  H   UNL A   1      45.017  23.653  28.799  1.00  0.00     0.065 H 
ATOM    102  H   UNL A   1      46.899  28.875  33.712  1.00  0.00     0.065 H 
ATOM    103  C   UNL A   1      45.863  26.971  31.785  1.00  0.00     0.037 A 
ATOM    104  H   UNL A   1      46.622  24.555  30.577  1.00  0.00     0.065 H 
BRANCH  85 105
ATOM    105  C   UNL A   1      42.839  32.089  33.468  1.00  0.00     0.064 A 
ATOM    106  C   UNL A   1      43.361  33.294  32.973  1.00  0.00     0.173 A 
ATOM    107  C   UNL A   1      42.270  32.099  34.749  1.00  0.00     0.173 A 
ATOM    108  F   UNL A   1      43.926  33.335  31.757  1.00  0.00    -0.203 F 
ATOM    109  C   UNL A   1      43.340  34.455  33.742  1.00  0.00     0.198 A 
ATOM    110  C   UNL A   1      42.224  33.268  35.506  1.00  0.00     0.198 A 
ATOM    111  F   UNL A   1      41.751  30.976  35.268  1.00  0.00    -0.203 F 
ATOM    112  F   UNL A   1      43.887  35.581  33.267  1.00  0.00    -0.200 F 
ATOM    113  C   UNL A   1      42.766  34.442  35.004  1.00  0.00     0.200 A 
ATOM    114  F   UNL A   1      41.659  33.257  36.720  1.00  0.00    -0.200 F 
ATOM    115  F   UNL A   1      42.741  35.561  35.742  1.00  0.00    -0.200 F 
ENDBRANCH  85 105
BRANCH  88 116
ATOM    116  C   UNL A   1      42.575  23.936  27.708  1.00  0.00     0.064 A 
ATOM    117  C   UNL A   1      42.207  22.688  28.229  1.00  0.00     0.173 A 
ATOM    118  C   UNL A   1      42.927  24.000  26.352  1.00  0.00     0.173 A 
ATOM    119  F   UNL A   1      41.884  22.574  29.525  1.00  0.00    -0.203 F 
ATOM    120  C   UNL A   1      42.211  21.546  27.433  1.00  0.00     0.198 A 
ATOM    121  C   UNL A   1      42.905  22.862  25.549  1.00  0.00     0.198 A 
ATOM    122  F   UNL A   1      43.283  25.171  25.805  1.00  0.00    -0.203 F 
ATOM    123  F   UNL A   1      41.898  20.358  27.967  1.00  0.00    -0.200 F 
ATOM    124  C   UNL A   1      42.555  21.634  26.092  1.00  0.00     0.200 A 
ATOM    125  F   UNL A   1      43.226  22.953  24.252  1.00  0.00    -0.200 F 
ATOM    126  F   UNL A   1      42.556  20.536  25.325  1.00  0.00    -0.200 F 
ENDBRANCH  88 116
BRANCH 103 127
ATOM    127  C   UNL A   1      47.188  26.464  32.270  1.00  0.00     0.064 A 
ATOM    128  C   UNL A   1      48.394  26.898  31.701  1.00  0.00     0.173 A 
ATOM    129  C   UNL A   1      47.252  25.563  33.343  1.00  0.00     0.173 A 
ATOM    130  F   UNL A   1      48.383  27.747  30.663  1.00  0.00    -0.203 F 
ATOM    131  C   UNL A   1      49.617  26.429  32.174  1.00  0.00     0.198 A 
ATOM    132  C   UNL A   1      48.478  25.117  33.831  1.00  0.00     0.198 A 
ATOM    133  F   UNL A   1      46.127  25.123  33.925  1.00  0.00    -0.203 F 
ATOM    134  F   UNL A   1      50.755  26.822  31.586  1.00  0.00    -0.200 F 
ATOM    135  C   UNL A   1      49.658  25.545  33.242  1.00  0.00     0.200 A 
ATOM    136  F   UNL A   1      48.516  24.272  34.871  1.00  0.00    -0.200 F 
ATOM    137  F   UNL A   1      50.836  25.099  33.700  1.00  0.00    -0.200 F 
ENDBRANCH 103 127
ENDBRANCH  68  71
ENDBRANCH  58  61
ENDBRANCH  54  57
ENDBRANCH  51  54
ENDBRANCH  48  51
ENDBRANCH   1  48
TORSDOF 17
ENDMDL
MODEL 3
REMARK VINA RESULT:     -12.4      0.375      2.012
REMARK SMILES Cc1cc2cc(-c3ccc([C@@H](C)C(=O)NCCCCCCNC(=O)c4ccc(-c5c6nc(c(-c7c(F)c(F)c(F)c(F)c7F)c7ccc([nH]7)c(-c7c(F)c(F)c(F)c(F)c7F)c7nc(c(-c8c(F)c(F)c(F)c(F)c8F)c8ccc5[nH]8)C=C7)C=C6)cc4)cc3)ccc2[nH]1
REMARK SMILES IDX 18 1 17 4 16 7 15 10 13 11 14 12 11 14 10 16 7 17 8 18 89 19
REMARK SMILES IDX 9 20 88 22 6 26 2 27 3 28 93 29 4 30 92 32 5 34 91 35 90 37
REMARK SMILES IDX 1 40 12 44 19 48 20 51 21 54 22 57 23 58 24 60 25 61 26 62
REMARK SMILES IDX 87 63 27 64 86 66 28 68 29 71 30 72 80 73 31 74 85 75 79 76
REMARK SMILES IDX 81 77 32 78 84 79 78 81 77 83 33 85 65 88 45 89 64 90 46 91
REMARK SMILES IDX 49 92 63 93 82 94 47 95 48 97 62 99 83 100 50 103 34 105
REMARK SMILES IDX 35 106 43 107 36 108 37 109 41 110 44 111 38 112 39 113
REMARK SMILES IDX 42 114 40 115 66 116 67 117 75 118 68 119 69 120 73 121
REMARK SMILES IDX 76 122 70 123 71 124 74 125 72 126 51 127 52 128 60 129
REMARK SMILES IDX 53 130 54 131 58 132 61 133 55 134 56 135 59 136 57 137
REMARK H PARENT 18 2 18 3 17 5 17 6 16 8 16 9 15 13 11 15 8 21 89 23 9 24
REMARK H PARENT 88 25 3 31 93 33 5 36 91 38 90 39 1 41 1 42 1 43 12 45 12 46
REMARK H PARENT 12 47 19 49 19 50 20 52 20 53 21 55 21 56 22 59 26 65 87 67
REMARK H PARENT 27 69 86 70 85 80 79 82 81 84 84 86 78 87 46 96 49 98 82 101
REMARK H PARENT 47 102 83 104
REMARK Flexibility Score: inf
ROOT
ATOM      1  C   UNL A   1      33.698  26.127  25.510  1.00  0.00    -0.052 C 
ATOM      2  H   UNL A   1      33.885  26.811  26.312  1.00  0.00     0.027 H 
ATOM      3  H   UNL A   1      32.862  25.483  25.684  1.00  0.00     0.027 H 
ENDROOT
BRANCH   1   4
ATOM      4  C   UNL A   1      34.918  25.211  25.373  1.00  0.00    -0.036 C 
ATOM      5  H   UNL A   1      35.430  25.465  24.467  1.00  0.00     0.028 H 
ATOM      6  H   UNL A   1      35.522  25.366  26.242  1.00  0.00     0.028 H 
BRANCH   4   7
ATOM      7  C   UNL A   1      34.575  23.720  25.329  1.00  0.00     0.017 C 
ATOM      8  H   UNL A   1      33.791  23.567  24.618  1.00  0.00     0.049 H 
ATOM      9  H   UNL A   1      35.458  23.184  25.050  1.00  0.00     0.049 H 
BRANCH   7  10
ATOM     10  N   UNL A   1      34.140  23.228  26.620  1.00  0.00    -0.356 N 
ATOM     11  C   UNL A   1      32.970  22.667  27.029  1.00  0.00     0.227 C 
ATOM     12  O   UNL A   1      32.873  22.423  28.238  1.00  0.00    -0.274 OA
ATOM     13  H   UNL A   1      34.815  23.316  27.332  1.00  0.00     0.163 HD
BRANCH  11  14
ATOM     14  C   UNL A   1      31.811  22.320  26.083  1.00  0.00     0.060 C 
ATOM     15  H   UNL A   1      31.049  21.894  26.703  1.00  0.00     0.045 H 
BRANCH  14  16
ATOM     16  C   UNL A   1      31.129  23.540  25.484  1.00  0.00    -0.036 A 
ATOM     17  C   UNL A   1      29.767  25.751  24.289  1.00  0.00    -0.018 A 
ATOM     18  C   UNL A   1      29.891  25.621  25.681  1.00  0.00    -0.054 A 
ATOM     19  C   UNL A   1      30.355  24.750  23.503  1.00  0.00    -0.054 A 
ATOM     20  C   UNL A   1      30.588  24.560  26.265  1.00  0.00    -0.058 A 
ATOM     21  H   UNL A   1      29.456  26.330  26.292  1.00  0.00     0.063 H 
ATOM     22  C   UNL A   1      31.008  23.655  24.089  1.00  0.00    -0.058 A 
ATOM     23  H   UNL A   1      30.306  24.820  22.475  1.00  0.00     0.063 H 
ATOM     24  H   UNL A   1      30.704  24.531  27.290  1.00  0.00     0.063 H 
ATOM     25  H   UNL A   1      31.407  22.921  23.484  1.00  0.00     0.063 H 
BRANCH  17  26
ATOM     26  C   UNL A   1      29.044  26.906  23.710  1.00  0.00    -0.018 A 
ATOM     27  C   UNL A   1      28.459  31.028  21.635  1.00  0.00     0.013 A 
ATOM     28  C   UNL A   1      29.551  30.211  21.835  1.00  0.00    -0.034 A 
ATOM     29  N   UNL A   1      27.365  30.387  22.165  1.00  0.00    -0.359 N 
ATOM     30  C   UNL A   1      29.106  29.050  22.520  1.00  0.00     0.000 A 
ATOM     31  H   UNL A   1      30.520  30.408  21.540  1.00  0.00     0.065 H 
ATOM     32  C   UNL A   1      27.737  29.183  22.722  1.00  0.00     0.046 A 
ATOM     33  H   UNL A   1      26.445  30.736  22.148  1.00  0.00     0.166 HD
ATOM     34  C   UNL A   1      29.752  27.896  22.997  1.00  0.00    -0.045 A 
ATOM     35  C   UNL A   1      26.982  28.211  23.386  1.00  0.00    -0.037 A 
ATOM     36  H   UNL A   1      30.762  27.771  22.823  1.00  0.00     0.064 H 
ATOM     37  C   UNL A   1      27.660  27.084  23.879  1.00  0.00    -0.052 A 
ATOM     38  H   UNL A   1      25.962  28.317  23.507  1.00  0.00     0.065 H 
ATOM     39  H   UNL A   1      27.125  26.362  24.384  1.00  0.00     0.063 H 
BRANCH  27  40
ATOM     40  C   UNL A   1      28.358  32.357  20.985  1.00  0.00    -0.024 C 
ATOM     41  H   UNL A   1      27.866  33.040  21.645  1.00  0.00     0.029 H 
ATOM     42  H   UNL A   1      27.795  32.268  20.079  1.00  0.00     0.029 H 
ATOM     43  H   UNL A   1      29.338  32.720  20.761  1.00  0.00     0.029 H 
ENDBRANCH  27  40
ENDBRANCH  17  26
ENDBRANCH  14  16
BRANCH  14  44
ATOM     44  C   UNL A   1      32.124  21.184  25.107  1.00  0.00    -0.049 C 
ATOM     45  H   UNL A   1      31.338  20.460  25.139  1.00  0.00     0.024 H 
ATOM     46  H   UNL A   1      33.048  20.721  25.385  1.00  0.00     0.024 H 
ATOM     47  H   UNL A   1      32.207  21.579  24.116  1.00  0.00     0.024 H 
ENDBRANCH  14  44
ENDBRANCH  11  14
ENDBRANCH   7  10
ENDBRANCH   4   7
ENDBRANCH   1   4
BRANCH   1  48
ATOM     48  C   UNL A   1      33.351  26.947  24.260  1.00  0.00    -0.052 C 
ATOM     49  H   UNL A   1      32.459  26.536  23.835  1.00  0.00     0.027 H 
ATOM     50  H   UNL A   1      34.206  26.881  23.620  1.00  0.00     0.027 H 
BRANCH  48  51
ATOM     51  C   UNL A   1      33.116  28.443  24.493  1.00  0.00    -0.036 C 
ATOM     52  H   UNL A   1      32.251  28.735  23.934  1.00  0.00     0.028 H 
ATOM     53  H   UNL A   1      34.011  28.939  24.178  1.00  0.00     0.028 H 
BRANCH  51  54
ATOM     54  C   UNL A   1      32.896  28.840  25.951  1.00  0.00     0.018 C 
ATOM     55  H   UNL A   1      33.783  28.620  26.506  1.00  0.00     0.049 H 
ATOM     56  H   UNL A   1      32.059  28.286  26.321  1.00  0.00     0.049 H 
BRANCH  54  57
ATOM     57  N   UNL A   1      32.594  30.255  26.088  1.00  0.00    -0.352 N 
ATOM     58  C   UNL A   1      33.158  31.200  26.908  1.00  0.00     0.251 C 
ATOM     59  H   UNL A   1      31.874  30.588  25.503  1.00  0.00     0.163 HD
ATOM     60  O   UNL A   1      32.625  32.297  27.040  1.00  0.00    -0.269 OA
BRANCH  58  61
ATOM     61  C   UNL A   1      34.405  30.901  27.645  1.00  0.00     0.039 A 
ATOM     62  C   UNL A   1      35.289  31.947  27.927  1.00  0.00    -0.049 A 
ATOM     63  C   UNL A   1      34.725  29.593  28.018  1.00  0.00    -0.049 A 
ATOM     64  C   UNL A   1      36.470  31.688  28.628  1.00  0.00    -0.053 A 
ATOM     65  H   UNL A   1      35.071  32.907  27.618  1.00  0.00     0.063 H 
ATOM     66  C   UNL A   1      35.871  29.345  28.770  1.00  0.00    -0.053 A 
ATOM     67  H   UNL A   1      34.113  28.811  27.735  1.00  0.00     0.063 H 
ATOM     68  C   UNL A   1      36.757  30.389  29.078  1.00  0.00    -0.014 A 
ATOM     69  H   UNL A   1      37.133  32.455  28.817  1.00  0.00     0.063 H 
ATOM     70  H   UNL A   1      36.070  28.389  29.104  1.00  0.00     0.063 H 
BRANCH  68  71
ATOM     71  C   UNL A   1      37.986  30.100  29.859  1.00  0.00     0.031 A 
ATOM     72  C   UNL A   1      39.032  29.174  29.303  1.00  0.00     0.074 A 
ATOM     73  C   UNL A   1      38.132  30.623  31.091  1.00  0.00     0.049 A 
ATOM     74  N   UNL A   1      40.132  28.736  29.862  1.00  0.00    -0.248 NA
ATOM     75  C   UNL A   1      38.798  28.653  27.948  1.00  0.00    -0.034 C 
ATOM     76  C   UNL A   1      37.172  31.505  31.753  1.00  0.00    -0.036 A 
ATOM     77  N   UNL A   1      39.140  30.478  32.010  1.00  0.00    -0.354 N 
ATOM     78  C   UNL A   1      40.711  27.880  28.935  1.00  0.00     0.074 A 
ATOM     79  C   UNL A   1      39.818  27.821  27.797  1.00  0.00    -0.034 C 
ATOM     80  H   UNL A   1      38.038  28.876  27.286  1.00  0.00     0.065 H 
ATOM     81  C   UNL A   1      37.644  31.838  32.966  1.00  0.00    -0.036 A 
ATOM     82  H   UNL A   1      36.274  31.821  31.353  1.00  0.00     0.065 H 
ATOM     83  C   UNL A   1      38.921  31.165  33.179  1.00  0.00     0.049 A 
ATOM     84  H   UNL A   1      39.944  29.933  31.848  1.00  0.00     0.167 HD
ATOM     85  C   UNL A   1      41.891  27.220  29.015  1.00  0.00     0.037 A 
ATOM     86  H   UNL A   1      39.958  27.211  26.976  1.00  0.00     0.065 H 
ATOM     87  H   UNL A   1      37.178  32.467  33.638  1.00  0.00     0.065 H 
ATOM     88  C   UNL A   1      39.665  31.238  34.299  1.00  0.00     0.037 A 
ATOM     89  C   UNL A   1      42.789  27.299  30.137  1.00  0.00     0.049 A 
ATOM     90  C   UNL A   1      40.968  30.488  34.365  1.00  0.00     0.074 A 
ATOM     91  C   UNL A   1      44.030  26.704  30.296  1.00  0.00    -0.036 A 
ATOM     92  N   UNL A   1      42.541  28.020  31.295  1.00  0.00    -0.354 N 
ATOM     93  N   UNL A   1      41.532  29.724  33.461  1.00  0.00    -0.248 NA
ATOM     94  C   UNL A   1      41.743  30.616  35.609  1.00  0.00    -0.034 C 
ATOM     95  C   UNL A   1      44.517  27.038  31.564  1.00  0.00    -0.036 A 
ATOM     96  H   UNL A   1      44.513  26.118  29.598  1.00  0.00     0.065 H 
ATOM     97  C   UNL A   1      43.599  27.875  32.179  1.00  0.00     0.049 A 
ATOM     98  H   UNL A   1      41.734  28.557  31.465  1.00  0.00     0.167 HD
ATOM     99  C   UNL A   1      42.736  29.307  34.011  1.00  0.00     0.074 A 
ATOM    100  C   UNL A   1      42.828  29.911  35.324  1.00  0.00    -0.034 C 
ATOM    101  H   UNL A   1      41.503  31.122  36.476  1.00  0.00     0.065 H 
ATOM    102  H   UNL A   1      45.408  26.715  31.972  1.00  0.00     0.065 H 
ATOM    103  C   UNL A   1      43.680  28.495  33.477  1.00  0.00     0.037 A 
ATOM    104  H   UNL A   1      43.636  29.806  35.957  1.00  0.00     0.065 H 
BRANCH  85 105
ATOM    105  C   UNL A   1      42.284  26.358  27.851  1.00  0.00     0.064 A 
ATOM    106  C   UNL A   1      41.780  25.056  27.700  1.00  0.00     0.173 A 
ATOM    107  C   UNL A   1      43.144  26.847  26.857  1.00  0.00     0.173 A 
ATOM    108  F   UNL A   1      40.962  24.538  28.628  1.00  0.00    -0.203 F 
ATOM    109  C   UNL A   1      42.146  24.267  26.612  1.00  0.00     0.198 A 
ATOM    110  C   UNL A   1      43.487  26.065  25.756  1.00  0.00     0.198 A 
ATOM    111  F   UNL A   1      43.649  28.086  26.949  1.00  0.00    -0.203 F 
ATOM    112  F   UNL A   1      41.690  23.012  26.514  1.00  0.00    -0.200 F 
ATOM    113  C   UNL A   1      42.993  24.774  25.638  1.00  0.00     0.200 A 
ATOM    114  F   UNL A   1      44.295  26.561  24.809  1.00  0.00    -0.200 F 
ATOM    115  F   UNL A   1      43.340  24.016  24.589  1.00  0.00    -0.200 F 
ENDBRANCH  85 105
BRANCH  88 116
ATOM    116  C   UNL A   1      39.211  32.073  35.441  1.00  0.00     0.064 A 
ATOM    117  C   UNL A   1      38.440  31.518  36.472  1.00  0.00     0.173 A 
ATOM    118  C   UNL A   1      39.527  33.436  35.522  1.00  0.00     0.173 A 
ATOM    119  F   UNL A   1      38.094  30.224  36.426  1.00  0.00    -0.203 F 
ATOM    120  C   UNL A   1      37.986  32.300  37.531  1.00  0.00     0.198 A 
ATOM    121  C   UNL A   1      39.095  34.211  36.596  1.00  0.00     0.198 A 
ATOM    122  F   UNL A   1      40.265  34.013  34.563  1.00  0.00    -0.203 F 
ATOM    123  F   UNL A   1      37.213  31.754  38.480  1.00  0.00    -0.200 F 
ATOM    124  C   UNL A   1      38.318  33.645  37.596  1.00  0.00     0.200 A 
ATOM    125  F   UNL A   1      39.429  35.507  36.661  1.00  0.00    -0.200 F 
ATOM    126  F   UNL A   1      37.883  34.396  38.616  1.00  0.00    -0.200 F 
ENDBRANCH  88 116
BRANCH 103 127
ATOM    127  C   UNL A   1      44.913  28.245  34.294  1.00  0.00     0.064 A 
ATOM    128  C   UNL A   1      45.007  27.152  35.168  1.00  0.00     0.173 A 
ATOM    129  C   UNL A   1      46.027  29.088  34.171  1.00  0.00     0.173 A 
ATOM    130  F   UNL A   1      43.961  26.327  35.331  1.00  0.00    -0.203 F 
ATOM    131  C   UNL A   1      46.164  26.927  35.908  1.00  0.00     0.198 A 
ATOM    132  C   UNL A   1      47.193  28.843  34.892  1.00  0.00     0.198 A 
ATOM    133  F   UNL A   1      45.990  30.143  33.344  1.00  0.00    -0.203 F 
ATOM    134  F   UNL A   1      46.216  25.902  36.771  1.00  0.00    -0.200 F 
ATOM    135  C   UNL A   1      47.258  27.767  35.764  1.00  0.00     0.200 A 
ATOM    136  F   UNL A   1      48.253  29.650  34.743  1.00  0.00    -0.200 F 
ATOM    137  F   UNL A   1      48.374  27.545  36.473  1.00  0.00    -0.200 F 
ENDBRANCH 103 127
ENDBRANCH  68  71
ENDBRANCH  58  61
ENDBRANCH  54  57
ENDBRANCH  51  54
ENDBRANCH  48  51
ENDBRANCH   1  48
TORSDOF 17
ENDMDL
MODEL 4
REMARK VINA RESULT:     -12.3      3.936      7.590
REMARK SMILES Cc1cc2cc(-c3ccc([C@@H](C)C(=O)NCCCCCCNC(=O)c4ccc(-c5c6nc(c(-c7c(F)c(F)c(F)c(F)c7F)c7ccc([nH]7)c(-c7c(F)c(F)c(F)c(F)c7F)c7nc(c(-c8c(F)c(F)c(F)c(F)c8F)c8ccc5[nH]8)C=C7)C=C6)cc4)cc3)ccc2[nH]1
REMARK SMILES IDX 18 1 17 4 16 7 15 10 13 11 14 12 11 14 10 16 7 17 8 18 89 19
REMARK SMILES IDX 9 20 88 22 6 26 2 27 3 28 93 29 4 30 92 32 5 34 91 35 90 37
REMARK SMILES IDX 1 40 12 44 19 48 20 51 21 54 22 57 23 58 24 60 25 61 26 62
REMARK SMILES IDX 87 63 27 64 86 66 28 68 29 71 30 72 80 73 31 74 85 75 79 76
REMARK SMILES IDX 81 77 32 78 84 79 78 81 77 83 33 85 65 88 45 89 64 90 46 91
REMARK SMILES IDX 49 92 63 93 82 94 47 95 48 97 62 99 83 100 50 103 34 105
REMARK SMILES IDX 35 106 43 107 36 108 37 109 41 110 44 111 38 112 39 113
REMARK SMILES IDX 42 114 40 115 66 116 67 117 75 118 68 119 69 120 73 121
REMARK SMILES IDX 76 122 70 123 71 124 74 125 72 126 51 127 52 128 60 129
REMARK SMILES IDX 53 130 54 131 58 132 61 133 55 134 56 135 59 136 57 137
REMARK H PARENT 18 2 18 3 17 5 17 6 16 8 16 9 15 13 11 15 8 21 89 23 9 24
REMARK H PARENT 88 25 3 31 93 33 5 36 91 38 90 39 1 41 1 42 1 43 12 45 12 46
REMARK H PARENT 12 47 19 49 19 50 20 52 20 53 21 55 21 56 22 59 26 65 87 67
REMARK H PARENT 27 69 86 70 85 80 79 82 81 84 84 86 78 87 46 96 49 98 82 101
REMARK H PARENT 47 102 83 104
REMARK Flexibility Score: inf
ROOT
ATOM      1  C   UNL A   1      34.402  25.293  25.315  1.00  0.00    -0.052 C 
ATOM      2  H   UNL A   1      35.461  25.413  25.409  1.00  0.00     0.027 H 
ATOM      3  H   UNL A   1      34.050  25.369  24.308  1.00  0.00     0.027 H 
ENDROOT
BRANCH   1   4
ATOM      4  C   UNL A   1      33.725  26.430  26.087  1.00  0.00    -0.036 C 
ATOM      5  H   UNL A   1      33.140  26.001  26.875  1.00  0.00     0.028 H 
ATOM      6  H   UNL A   1      34.505  27.063  26.453  1.00  0.00     0.028 H 
BRANCH   4   7
ATOM      7  C   UNL A   1      32.809  27.305  25.229  1.00  0.00     0.017 C 
ATOM      8  H   UNL A   1      31.968  26.722  24.916  1.00  0.00     0.049 H 
ATOM      9  H   UNL A   1      32.499  28.141  25.820  1.00  0.00     0.049 H 
BRANCH   7  10
ATOM     10  N   UNL A   1      33.490  27.812  24.056  1.00  0.00    -0.356 N 
ATOM     11  C   UNL A   1      33.263  27.630  22.727  1.00  0.00     0.227 C 
ATOM     12  O   UNL A   1      34.086  28.141  21.955  1.00  0.00    -0.274 OA
ATOM     13  H   UNL A   1      34.257  28.396  24.258  1.00  0.00     0.163 HD
BRANCH  11  14
ATOM     14  C   UNL A   1      32.062  26.859  22.160  1.00  0.00     0.060 C 
ATOM     15  H   UNL A   1      32.142  26.938  21.096  1.00  0.00     0.045 H 
BRANCH  14  16
ATOM     16  C   UNL A   1      32.133  25.359  22.403  1.00  0.00    -0.036 A 
ATOM     17  C   UNL A   1      32.145  22.530  22.805  1.00  0.00    -0.018 A 
ATOM     18  C   UNL A   1      33.172  23.184  22.106  1.00  0.00    -0.054 A 
ATOM     19  C   UNL A   1      31.113  23.330  23.313  1.00  0.00    -0.054 A 
ATOM     20  C   UNL A   1      33.185  24.571  21.940  1.00  0.00    -0.058 A 
ATOM     21  H   UNL A   1      33.940  22.625  21.702  1.00  0.00     0.063 H 
ATOM     22  C   UNL A   1      31.097  24.717  23.101  1.00  0.00    -0.058 A 
ATOM     23  H   UNL A   1      30.351  22.891  23.852  1.00  0.00     0.063 H 
ATOM     24  H   UNL A   1      33.986  25.019  21.467  1.00  0.00     0.063 H 
ATOM     25  H   UNL A   1      30.309  25.275  23.464  1.00  0.00     0.063 H 
BRANCH  17  26
ATOM     26  C   UNL A   1      32.183  21.060  22.982  1.00  0.00    -0.018 A 
ATOM     27  C   UNL A   1      32.808  16.991  25.149  1.00  0.00     0.013 A 
ATOM     28  C   UNL A   1      32.763  18.300  25.579  1.00  0.00    -0.034 A 
ATOM     29  N   UNL A   1      32.577  16.997  23.794  1.00  0.00    -0.359 N 
ATOM     30  C   UNL A   1      32.513  19.121  24.448  1.00  0.00     0.000 A 
ATOM     31  H   UNL A   1      32.888  18.626  26.550  1.00  0.00     0.065 H 
ATOM     32  C   UNL A   1      32.408  18.286  23.341  1.00  0.00     0.046 A 
ATOM     33  H   UNL A   1      32.538  16.194  23.227  1.00  0.00     0.166 HD
ATOM     34  C   UNL A   1      32.377  20.508  24.265  1.00  0.00    -0.045 A 
ATOM     35  C   UNL A   1      32.173  18.780  22.053  1.00  0.00    -0.037 A 
ATOM     36  H   UNL A   1      32.420  21.135  25.085  1.00  0.00     0.064 H 
ATOM     37  C   UNL A   1      32.075  20.172  21.897  1.00  0.00    -0.052 A 
ATOM     38  H   UNL A   1      32.076  18.143  21.247  1.00  0.00     0.065 H 
ATOM     39  H   UNL A   1      31.916  20.558  20.954  1.00  0.00     0.063 H 
BRANCH  27  40
ATOM     40  C   UNL A   1      33.046  15.738  25.905  1.00  0.00    -0.024 C 
ATOM     41  H   UNL A   1      33.695  15.938  26.732  1.00  0.00     0.029 H 
ATOM     42  H   UNL A   1      33.502  15.015  25.261  1.00  0.00     0.029 H 
ATOM     43  H   UNL A   1      32.115  15.357  26.265  1.00  0.00     0.029 H 
ENDBRANCH  27  40
ENDBRANCH  17  26
ENDBRANCH  14  16
BRANCH  14  44
ATOM     44  C   UNL A   1      30.711  27.518  22.446  1.00  0.00    -0.049 C 
ATOM     45  H   UNL A   1      30.278  27.856  21.528  1.00  0.00     0.024 H 
ATOM     46  H   UNL A   1      30.852  28.350  23.103  1.00  0.00     0.024 H 
ATOM     47  H   UNL A   1      30.058  26.806  22.907  1.00  0.00     0.024 H 
ENDBRANCH  14  44
ENDBRANCH  11  14
ENDBRANCH   7  10
ENDBRANCH   4   7
ENDBRANCH   1   4
BRANCH   1  48
ATOM     48  C   UNL A   1      34.042  23.877  25.785  1.00  0.00    -0.052 C 
ATOM     49  H   UNL A   1      33.393  23.443  25.054  1.00  0.00     0.027 H 
ATOM     50  H   UNL A   1      33.592  23.995  26.749  1.00  0.00     0.027 H 
BRANCH  48  51
ATOM     51  C   UNL A   1      35.225  22.926  25.991  1.00  0.00    -0.036 C 
ATOM     52  H   UNL A   1      35.103  22.095  25.327  1.00  0.00     0.028 H 
ATOM     53  H   UNL A   1      35.212  22.649  27.024  1.00  0.00     0.028 H 
BRANCH  51  54
ATOM     54  C   UNL A   1      36.598  23.542  25.730  1.00  0.00     0.018 C 
ATOM     55  H   UNL A   1      36.729  24.381  26.381  1.00  0.00     0.049 H 
ATOM     56  H   UNL A   1      36.637  23.839  24.703  1.00  0.00     0.049 H 
BRANCH  54  57
ATOM     57  N   UNL A   1      37.673  22.593  25.965  1.00  0.00    -0.352 N 
ATOM     58  C   UNL A   1      38.964  22.809  26.379  1.00  0.00     0.251 C 
ATOM     59  H   UNL A   1      37.440  21.649  25.802  1.00  0.00     0.163 HD
ATOM     60  O   UNL A   1      39.790  21.904  26.313  1.00  0.00    -0.269 OA
BRANCH  58  61
ATOM     61  C   UNL A   1      39.370  24.132  26.899  1.00  0.00     0.039 A 
ATOM     62  C   UNL A   1      39.065  24.460  28.223  1.00  0.00    -0.049 A 
ATOM     63  C   UNL A   1      40.009  25.063  26.075  1.00  0.00    -0.049 A 
ATOM     64  C   UNL A   1      39.445  25.703  28.736  1.00  0.00    -0.053 A 
ATOM     65  H   UNL A   1      38.560  23.786  28.819  1.00  0.00     0.063 H 
ATOM     66  C   UNL A   1      40.443  26.277  26.605  1.00  0.00    -0.053 A 
ATOM     67  H   UNL A   1      40.158  24.853  25.076  1.00  0.00     0.063 H 
ATOM     68  C   UNL A   1      40.160  26.610  27.938  1.00  0.00    -0.014 A 
ATOM     69  H   UNL A   1      39.200  25.953  29.706  1.00  0.00     0.063 H 
ATOM     70  H   UNL A   1      40.975  26.934  26.014  1.00  0.00     0.063 H 
BRANCH  68  71
ATOM     71  C   UNL A   1      40.609  27.919  28.477  1.00  0.00     0.031 A 
ATOM     72  C   UNL A   1      42.059  28.142  28.804  1.00  0.00     0.074 A 
ATOM     73  C   UNL A   1      39.704  28.883  28.727  1.00  0.00     0.049 A 
ATOM     74  N   UNL A   1      42.634  29.182  29.354  1.00  0.00    -0.248 NA
ATOM     75  C   UNL A   1      42.983  27.040  28.493  1.00  0.00    -0.034 C 
ATOM     76  C   UNL A   1      38.265  28.774  28.486  1.00  0.00    -0.036 A 
ATOM     77  N   UNL A   1      39.859  30.142  29.250  1.00  0.00    -0.354 N 
ATOM     78  C   UNL A   1      43.979  28.854  29.467  1.00  0.00     0.074 A 
ATOM     79  C   UNL A   1      44.128  27.502  28.975  1.00  0.00    -0.034 C 
ATOM     80  H   UNL A   1      42.789  26.141  28.023  1.00  0.00     0.065 H 
ATOM     81  C   UNL A   1      37.671  29.924  28.844  1.00  0.00    -0.036 A 
ATOM     82  H   UNL A   1      37.783  27.945  28.103  1.00  0.00     0.065 H 
ATOM     83  C   UNL A   1      38.681  30.837  29.370  1.00  0.00     0.049 A 
ATOM     84  H   UNL A   1      40.732  30.513  29.514  1.00  0.00     0.167 HD
ATOM     85  C   UNL A   1      45.001  29.620  29.919  1.00  0.00     0.037 A 
ATOM     86  H   UNL A   1      45.009  26.966  28.995  1.00  0.00     0.065 H 
ATOM     87  H   UNL A   1      36.662  30.129  28.760  1.00  0.00     0.065 H 
ATOM     88  C   UNL A   1      38.442  32.069  29.858  1.00  0.00     0.037 A 
ATOM     89  C   UNL A   1      44.854  30.974  30.386  1.00  0.00     0.049 A 
ATOM     90  C   UNL A   1      39.594  32.896  30.362  1.00  0.00     0.074 A 
ATOM     91  C   UNL A   1      45.834  31.849  30.822  1.00  0.00    -0.036 A 
ATOM     92  N   UNL A   1      43.646  31.650  30.476  1.00  0.00    -0.354 N 
ATOM     93  N   UNL A   1      40.868  32.595  30.415  1.00  0.00    -0.248 NA
ATOM     94  C   UNL A   1      39.273  34.237  30.871  1.00  0.00    -0.034 C 
ATOM     95  C   UNL A   1      45.215  33.042  31.209  1.00  0.00    -0.036 A 
ATOM     96  H   UNL A   1      46.847  31.655  30.854  1.00  0.00     0.065 H 
ATOM     97  C   UNL A   1      43.855  32.926  30.973  1.00  0.00     0.049 A 
ATOM     98  H   UNL A   1      42.771  31.278  30.223  1.00  0.00     0.167 HD
ATOM     99  C   UNL A   1      41.504  33.716  30.930  1.00  0.00     0.074 A 
ATOM    100  C   UNL A   1      40.476  34.709  31.165  1.00  0.00    -0.034 C 
ATOM    101  H   UNL A   1      38.352  34.693  30.972  1.00  0.00     0.065 H 
ATOM    102  H   UNL A   1      45.692  33.869  31.602  1.00  0.00     0.065 H 
ATOM    103  C   UNL A   1      42.821  33.906  31.188  1.00  0.00     0.037 A 
ATOM    104  H   UNL A   1      40.657  35.662  31.517  1.00  0.00     0.065 H 
BRANCH  85 105
ATOM    105  C   UNL A   1      46.372  29.011  29.925  1.00  0.00     0.064 A 
ATOM    106  C   UNL A   1      46.864  28.322  31.044  1.00  0.00     0.173 A 
ATOM    107  C   UNL A   1      47.192  29.086  28.789  1.00  0.00     0.173 A 
ATOM    108  F   UNL A   1      46.124  28.232  32.159  1.00  0.00    -0.203 F 
ATOM    109  C   UNL A   1      48.137  27.756  31.037  1.00  0.00     0.198 A 
ATOM    110  C   UNL A   1      48.453  28.494  28.774  1.00  0.00     0.198 A 
ATOM    111  F   UNL A   1      46.769  29.727  27.689  1.00  0.00    -0.203 F 
ATOM    112  F   UNL A   1      48.603  27.145  32.134  1.00  0.00    -0.200 F 
ATOM    113  C   UNL A   1      48.927  27.837  29.900  1.00  0.00     0.200 A 
ATOM    114  F   UNL A   1      49.211  28.563  27.671  1.00  0.00    -0.200 F 
ATOM    115  F   UNL A   1      50.149  27.287  29.892  1.00  0.00    -0.200 F 
ENDBRANCH  85 105
BRANCH  88 116
ATOM    116  C   UNL A   1      37.058  32.609  29.869  1.00  0.00     0.064 A 
ATOM    117  C   UNL A   1      36.558  33.324  28.772  1.00  0.00     0.173 A 
ATOM    118  C   UNL A   1      36.211  32.430  30.973  1.00  0.00     0.173 A 
ATOM    119  F   UNL A   1      37.339  33.539  27.703  1.00  0.00    -0.203 F 
ATOM    120  C   UNL A   1      35.272  33.857  28.785  1.00  0.00     0.198 A 
ATOM    121  C   UNL A   1      34.915  32.941  30.974  1.00  0.00     0.198 A 
ATOM    122  F   UNL A   1      36.640  31.750  32.045  1.00  0.00    -0.203 F 
ATOM    123  F   UNL A   1      34.836  34.575  27.741  1.00  0.00    -0.200 F 
ATOM    124  C   UNL A   1      34.449  33.661  29.884  1.00  0.00     0.200 A 
ATOM    125  F   UNL A   1      34.118  32.739  32.032  1.00  0.00    -0.200 F 
ATOM    126  F   UNL A   1      33.211  34.173  29.896  1.00  0.00    -0.200 F 
ENDBRANCH  88 116
BRANCH 103 127
ATOM    127  C   UNL A   1      43.231  35.250  31.714  1.00  0.00     0.064 A 
ATOM    128  C   UNL A   1      43.196  35.544  33.084  1.00  0.00     0.173 A 
ATOM    129  C   UNL A   1      43.700  36.240  30.839  1.00  0.00     0.173 A 
ATOM    130  F   UNL A   1      42.740  34.635  33.959  1.00  0.00    -0.203 F 
ATOM    131  C   UNL A   1      43.594  36.792  33.557  1.00  0.00     0.198 A 
ATOM    132  C   UNL A   1      44.124  37.477  31.318  1.00  0.00     0.198 A 
ATOM    133  F   UNL A   1      43.758  36.005  29.520  1.00  0.00    -0.203 F 
ATOM    134  F   UNL A   1      43.511  37.067  34.867  1.00  0.00    -0.200 F 
ATOM    135  C   UNL A   1      44.064  37.753  32.676  1.00  0.00     0.200 A 
ATOM    136  F   UNL A   1      44.588  38.401  30.465  1.00  0.00    -0.200 F 
ATOM    137  F   UNL A   1      44.453  38.952  33.133  1.00  0.00    -0.200 F 
ENDBRANCH 103 127
ENDBRANCH  68  71
ENDBRANCH  58  61
ENDBRANCH  54  57
ENDBRANCH  51  54
ENDBRANCH  48  51
ENDBRANCH   1  48
TORSDOF 17
ENDMDL
MODEL 5
REMARK VINA RESULT:     -12.0      1.916      5.305
REMARK SMILES Cc1cc2cc(-c3ccc([C@@H](C)C(=O)NCCCCCCNC(=O)c4ccc(-c5c6nc(c(-c7c(F)c(F)c(F)c(F)c7F)c7ccc([nH]7)c(-c7c(F)c(F)c(F)c(F)c7F)c7nc(c(-c8c(F)c(F)c(F)c(F)c8F)c8ccc5[nH]8)C=C7)C=C6)cc4)cc3)ccc2[nH]1
REMARK SMILES IDX 18 1 17 4 16 7 15 10 13 11 14 12 11 14 10 16 7 17 8 18 89 19
REMARK SMILES IDX 9 20 88 22 6 26 2 27 3 28 93 29 4 30 92 32 5 34 91 35 90 37
REMARK SMILES IDX 1 40 12 44 19 48 20 51 21 54 22 57 23 58 24 60 25 61 26 62
REMARK SMILES IDX 87 63 27 64 86 66 28 68 29 71 30 72 80 73 31 74 85 75 79 76
REMARK SMILES IDX 81 77 32 78 84 79 78 81 77 83 33 85 65 88 45 89 64 90 46 91
REMARK SMILES IDX 49 92 63 93 82 94 47 95 48 97 62 99 83 100 50 103 34 105
REMARK SMILES IDX 35 106 43 107 36 108 37 109 41 110 44 111 38 112 39 113
REMARK SMILES IDX 42 114 40 115 66 116 67 117 75 118 68 119 69 120 73 121
REMARK SMILES IDX 76 122 70 123 71 124 74 125 72 126 51 127 52 128 60 129
REMARK SMILES IDX 53 130 54 131 58 132 61 133 55 134 56 135 59 136 57 137
REMARK H PARENT 18 2 18 3 17 5 17 6 16 8 16 9 15 13 11 15 8 21 89 23 9 24
REMARK H PARENT 88 25 3 31 93 33 5 36 91 38 90 39 1 41 1 42 1 43 12 45 12 46
REMARK H PARENT 12 47 19 49 19 50 20 52 20 53 21 55 21 56 22 59 26 65 87 67
REMARK H PARENT 27 69 86 70 85 80 79 82 81 84 84 86 78 87 46 96 49 98 82 101
REMARK H PARENT 47 102 83 104
REMARK Flexibility Score: inf
ROOT
ATOM      1  C   UNL A   1      31.023  27.395  24.880  1.00  0.00    -0.052 C 
ATOM      2  H   UNL A   1      30.520  28.313  24.660  1.00  0.00     0.027 H 
ATOM      3  H   UNL A   1      31.718  27.095  24.124  1.00  0.00     0.027 H 
ENDROOT
BRANCH   1   4
ATOM      4  C   UNL A   1      29.971  26.284  24.953  1.00  0.00    -0.036 C 
ATOM      5  H   UNL A   1      30.287  25.566  25.682  1.00  0.00     0.028 H 
ATOM      6  H   UNL A   1      29.044  26.751  25.211  1.00  0.00     0.028 H 
BRANCH   4   7
ATOM      7  C   UNL A   1      29.745  25.554  23.627  1.00  0.00     0.017 C 
ATOM      8  H   UNL A   1      28.692  25.490  23.442  1.00  0.00     0.049 H 
ATOM      9  H   UNL A   1      30.238  26.106  22.855  1.00  0.00     0.049 H 
BRANCH   7  10
ATOM     10  N   UNL A   1      30.299  24.216  23.645  1.00  0.00    -0.356 N 
ATOM     11  C   UNL A   1      31.554  23.751  23.399  1.00  0.00     0.227 C 
ATOM     12  O   UNL A   1      31.696  22.521  23.415  1.00  0.00    -0.274 OA
ATOM     13  H   UNL A   1      29.648  23.515  23.879  1.00  0.00     0.163 HD
BRANCH  11  14
ATOM     14  C   UNL A   1      32.765  24.656  23.128  1.00  0.00     0.060 C 
ATOM     15  H   UNL A   1      32.552  25.581  23.623  1.00  0.00     0.045 H 
BRANCH  14  16
ATOM     16  C   UNL A   1      34.040  24.185  23.808  1.00  0.00    -0.036 A 
ATOM     17  C   UNL A   1      36.509  23.359  24.989  1.00  0.00    -0.018 A 
ATOM     18  C   UNL A   1      35.542  24.073  25.714  1.00  0.00    -0.054 A 
ATOM     19  C   UNL A   1      36.205  23.054  23.655  1.00  0.00    -0.054 A 
ATOM     20  C   UNL A   1      34.320  24.445  25.148  1.00  0.00    -0.058 A 
ATOM     21  H   UNL A   1      35.739  24.330  26.694  1.00  0.00     0.063 H 
ATOM     22  C   UNL A   1      35.001  23.475  23.069  1.00  0.00    -0.058 A 
ATOM     23  H   UNL A   1      36.879  22.511  23.093  1.00  0.00     0.063 H 
ATOM     24  H   UNL A   1      33.614  24.921  25.732  1.00  0.00     0.063 H 
ATOM     25  H   UNL A   1      34.819  23.258  22.077  1.00  0.00     0.063 H 
BRANCH  17  26
ATOM     26  C   UNL A   1      37.780  22.959  25.634  1.00  0.00    -0.018 A 
ATOM     27  C   UNL A   1      41.230  20.150  26.994  1.00  0.00     0.013 A 
ATOM     28  C   UNL A   1      40.168  20.001  26.127  1.00  0.00    -0.034 A 
ATOM     29  N   UNL A   1      41.188  21.436  27.475  1.00  0.00    -0.359 N 
ATOM     30  C   UNL A   1      39.456  21.228  26.097  1.00  0.00     0.000 A 
ATOM     31  H   UNL A   1      39.933  19.149  25.595  1.00  0.00     0.065 H 
ATOM     32  C   UNL A   1      40.107  22.110  26.952  1.00  0.00     0.046 A 
ATOM     33  H   UNL A   1      41.839  21.823  28.104  1.00  0.00     0.166 HD
ATOM     34  C   UNL A   1      38.303  21.667  25.422  1.00  0.00    -0.045 A 
ATOM     35  C   UNL A   1      39.653  23.416  27.165  1.00  0.00    -0.037 A 
ATOM     36  H   UNL A   1      37.832  21.031  24.758  1.00  0.00     0.064 H 
ATOM     37  C   UNL A   1      38.481  23.814  26.502  1.00  0.00    -0.052 A 
ATOM     38  H   UNL A   1      40.162  24.063  27.787  1.00  0.00     0.065 H 
ATOM     39  H   UNL A   1      38.121  24.768  26.656  1.00  0.00     0.063 H 
BRANCH  27  40
ATOM     40  C   UNL A   1      42.279  19.186  27.404  1.00  0.00    -0.024 C 
ATOM     41  H   UNL A   1      43.244  19.592  27.178  1.00  0.00     0.029 H 
ATOM     42  H   UNL A   1      42.146  18.267  26.872  1.00  0.00     0.029 H 
ATOM     43  H   UNL A   1      42.206  19.004  28.454  1.00  0.00     0.029 H 
ENDBRANCH  27  40
ENDBRANCH  17  26
ENDBRANCH  14  16
BRANCH  14  44
ATOM     44  C   UNL A   1      32.906  25.083  21.666  1.00  0.00    -0.049 C 
ATOM     45  H   UNL A   1      33.461  24.342  21.130  1.00  0.00     0.024 H 
ATOM     46  H   UNL A   1      33.420  26.020  21.616  1.00  0.00     0.024 H 
ATOM     47  H   UNL A   1      31.934  25.185  21.230  1.00  0.00     0.024 H 
ENDBRANCH  14  44
ENDBRANCH  11  14
ENDBRANCH   7  10
ENDBRANCH   4   7
ENDBRANCH   1   4
BRANCH   1  48
ATOM     48  C   UNL A   1      31.847  27.600  26.158  1.00  0.00    -0.052 C 
ATOM     49  H   UNL A   1      31.633  26.789  26.821  1.00  0.00     0.027 H 
ATOM     50  H   UNL A   1      31.561  28.559  26.540  1.00  0.00     0.027 H 
BRANCH  48  51
ATOM     51  C   UNL A   1      33.366  27.663  25.965  1.00  0.00    -0.036 C 
ATOM     52  H   UNL A   1      33.661  26.819  25.378  1.00  0.00     0.028 H 
ATOM     53  H   UNL A   1      33.793  27.667  26.946  1.00  0.00     0.028 H 
BRANCH  51  54
ATOM     54  C   UNL A   1      33.874  28.925  25.271  1.00  0.00     0.018 C 
ATOM     55  H   UNL A   1      33.689  28.839  24.220  1.00  0.00     0.049 H 
ATOM     56  H   UNL A   1      34.920  29.014  25.474  1.00  0.00     0.049 H 
BRANCH  54  57
ATOM     57  N   UNL A   1      33.215  30.121  25.768  1.00  0.00    -0.352 N 
ATOM     58  C   UNL A   1      33.488  30.881  26.878  1.00  0.00     0.251 C 
ATOM     59  H   UNL A   1      32.456  30.437  25.224  1.00  0.00     0.163 HD
ATOM     60  O   UNL A   1      32.688  31.731  27.253  1.00  0.00    -0.269 OA
BRANCH  58  61
ATOM     61  C   UNL A   1      34.742  30.674  27.634  1.00  0.00     0.039 A 
ATOM     62  C   UNL A   1      35.706  31.686  27.632  1.00  0.00    -0.049 A 
ATOM     63  C   UNL A   1      34.988  29.473  28.305  1.00  0.00    -0.049 A 
ATOM     64  C   UNL A   1      36.896  31.515  28.345  1.00  0.00    -0.053 A 
ATOM     65  H   UNL A   1      35.540  32.558  27.104  1.00  0.00     0.063 H 
ATOM     66  C   UNL A   1      36.146  29.328  29.067  1.00  0.00    -0.053 A 
ATOM     67  H   UNL A   1      34.314  28.695  28.237  1.00  0.00     0.063 H 
ATOM     68  C   UNL A   1      37.113  30.344  29.089  1.00  0.00    -0.014 A 
ATOM     69  H   UNL A   1      37.617  32.252  28.325  1.00  0.00     0.063 H 
ATOM     70  H   UNL A   1      36.293  28.468  29.618  1.00  0.00     0.063 H 
BRANCH  68  71
ATOM     71  C   UNL A   1      38.352  30.159  29.886  1.00  0.00     0.031 A 
ATOM     72  C   UNL A   1      39.498  29.365  29.325  1.00  0.00     0.074 A 
ATOM     73  C   UNL A   1      38.421  30.654  31.137  1.00  0.00     0.049 A 
ATOM     74  N   UNL A   1      40.628  29.025  29.892  1.00  0.00    -0.248 NA
ATOM     75  C   UNL A   1      39.343  28.867  27.949  1.00  0.00    -0.034 C 
ATOM     76  C   UNL A   1      37.362  31.410  31.806  1.00  0.00    -0.036 A 
ATOM     77  N   UNL A   1      39.422  30.585  32.072  1.00  0.00    -0.354 N 
ATOM     78  C   UNL A   1      41.309  28.265  28.952  1.00  0.00     0.074 A 
ATOM     79  C   UNL A   1      40.447  28.150  27.795  1.00  0.00    -0.034 C 
ATOM     80  H   UNL A   1      38.575  29.031  27.280  1.00  0.00     0.065 H 
ATOM     81  C   UNL A   1      37.776  31.750  33.037  1.00  0.00    -0.036 A 
ATOM     82  H   UNL A   1      36.443  31.644  31.397  1.00  0.00     0.065 H 
ATOM     83  C   UNL A   1      39.113  31.207  33.256  1.00  0.00     0.049 A 
ATOM     84  H   UNL A   1      40.281  30.132  31.910  1.00  0.00     0.167 HD
ATOM     85  C   UNL A   1      42.550  27.728  29.036  1.00  0.00     0.037 A 
ATOM     86  H   UNL A   1      40.664  27.586  26.959  1.00  0.00     0.065 H 
ATOM     87  H   UNL A   1      37.235  32.306  33.719  1.00  0.00     0.065 H 
ATOM     88  C   UNL A   1      39.825  31.320  34.393  1.00  0.00     0.037 A 
ATOM     89  C   UNL A   1      43.415  27.864  30.179  1.00  0.00     0.049 A 
ATOM     90  C   UNL A   1      41.198  30.708  34.464  1.00  0.00     0.074 A 
ATOM     91  C   UNL A   1      44.708  27.396  30.345  1.00  0.00    -0.036 A 
ATOM     92  N   UNL A   1      43.073  28.517  31.353  1.00  0.00    -0.354 N 
ATOM     93  N   UNL A   1      41.854  30.036  33.549  1.00  0.00    -0.248 NA
ATOM     94  C   UNL A   1      41.933  30.875  35.726  1.00  0.00    -0.034 C 
ATOM     95  C   UNL A   1      45.135  27.737  31.632  1.00  0.00    -0.036 A 
ATOM     96  H   UNL A   1      45.261  26.886  29.639  1.00  0.00     0.065 H 
ATOM     97  C   UNL A   1      44.125  28.454  32.253  1.00  0.00     0.049 A 
ATOM     98  H   UNL A   1      42.211  28.962  31.522  1.00  0.00     0.167 HD
ATOM     99  C   UNL A   1      43.085  29.728  34.110  1.00  0.00     0.074 A 
ATOM    100  C   UNL A   1      43.091  30.296  35.442  1.00  0.00    -0.034 C 
ATOM    101  H   UNL A   1      41.627  31.325  36.603  1.00  0.00     0.065 H 
ATOM    102  H   UNL A   1      46.048  27.495  32.049  1.00  0.00     0.065 H 
ATOM    103  C   UNL A   1      44.118  29.036  33.571  1.00  0.00     0.037 A 
ATOM    104  H   UNL A   1      43.894  30.255  36.089  1.00  0.00     0.065 H 
BRANCH  85 105
ATOM    105  C   UNL A   1      43.050  26.950  27.855  1.00  0.00     0.064 A 
ATOM    106  C   UNL A   1      43.752  27.572  26.810  1.00  0.00     0.173 A 
ATOM    107  C   UNL A   1      42.858  25.562  27.779  1.00  0.00     0.173 A 
ATOM    108  F   UNL A   1      43.953  28.899  26.830  1.00  0.00    -0.203 F 
ATOM    109  C   UNL A   1      44.217  26.839  25.722  1.00  0.00     0.198 A 
ATOM    110  C   UNL A   1      43.349  24.827  26.703  1.00  0.00     0.198 A 
ATOM    111  F   UNL A   1      42.200  24.917  28.753  1.00  0.00    -0.203 F 
ATOM    112  F   UNL A   1      44.843  27.463  24.715  1.00  0.00    -0.200 F 
ATOM    113  C   UNL A   1      44.021  25.468  25.672  1.00  0.00     0.200 A 
ATOM    114  F   UNL A   1      43.170  23.500  26.662  1.00  0.00    -0.200 F 
ATOM    115  F   UNL A   1      44.474  24.762  24.626  1.00  0.00    -0.200 F 
ENDBRANCH  85 105
BRANCH  88 116
ATOM    116  C   UNL A   1      39.266  32.066  35.550  1.00  0.00     0.064 A 
ATOM    117  C   UNL A   1      39.548  33.427  35.730  1.00  0.00     0.173 A 
ATOM    118  C   UNL A   1      38.449  31.437  36.500  1.00  0.00     0.173 A 
ATOM    119  F   UNL A   1      40.343  34.066  34.858  1.00  0.00    -0.203 F 
ATOM    120  C   UNL A   1      39.051  34.127  36.826  1.00  0.00     0.198 A 
ATOM    121  C   UNL A   1      37.930  32.144  37.583  1.00  0.00     0.198 A 
ATOM    122  F   UNL A   1      38.147  30.137  36.372  1.00  0.00    -0.203 F 
ATOM    123  F   UNL A   1      39.373  35.416  36.997  1.00  0.00    -0.200 F 
ATOM    124  C   UNL A   1      38.238  33.487  37.749  1.00  0.00     0.200 A 
ATOM    125  F   UNL A   1      37.135  31.526  38.466  1.00  0.00    -0.200 F 
ATOM    126  F   UNL A   1      37.758  34.160  38.803  1.00  0.00    -0.200 F 
ENDBRANCH  88 116
BRANCH 103 127
ATOM    127  C   UNL A   1      45.356  28.889  34.405  1.00  0.00     0.064 A 
ATOM    128  C   UNL A   1      46.388  29.837  34.363  1.00  0.00     0.173 A 
ATOM    129  C   UNL A   1      45.493  27.805  35.285  1.00  0.00     0.173 A 
ATOM    130  F   UNL A   1      46.310  30.882  33.525  1.00  0.00    -0.203 F 
ATOM    131  C   UNL A   1      47.524  29.693  35.154  1.00  0.00     0.198 A 
ATOM    132  C   UNL A   1      46.617  27.679  36.095  1.00  0.00     0.198 A 
ATOM    133  F   UNL A   1      44.531  26.875  35.367  1.00  0.00    -0.203 F 
ATOM    134  F   UNL A   1      48.518  30.587  35.066  1.00  0.00    -0.200 F 
ATOM    135  C   UNL A   1      47.634  28.619  36.025  1.00  0.00     0.200 A 
ATOM    136  F   UNL A   1      46.717  26.646  36.944  1.00  0.00    -0.200 F 
ATOM    137  F   UNL A   1      48.726  28.484  36.791  1.00  0.00    -0.200 F 
ENDBRANCH 103 127
ENDBRANCH  68  71
ENDBRANCH  58  61
ENDBRANCH  54  57
ENDBRANCH  51  54
ENDBRANCH  48  51
ENDBRANCH   1  48
TORSDOF 17
ENDMDL
MODEL 6
REMARK VINA RESULT:     -11.9      0.905      7.249
REMARK SMILES Cc1cc2cc(-c3ccc([C@@H](C)C(=O)NCCCCCCNC(=O)c4ccc(-c5c6nc(c(-c7c(F)c(F)c(F)c(F)c7F)c7ccc([nH]7)c(-c7c(F)c(F)c(F)c(F)c7F)c7nc(c(-c8c(F)c(F)c(F)c(F)c8F)c8ccc5[nH]8)C=C7)C=C6)cc4)cc3)ccc2[nH]1
REMARK SMILES IDX 18 1 17 4 16 7 15 10 13 11 14 12 11 14 10 16 7 17 8 18 89 19
REMARK SMILES IDX 9 20 88 22 6 26 2 27 3 28 93 29 4 30 92 32 5 34 91 35 90 37
REMARK SMILES IDX 1 40 12 44 19 48 20 51 21 54 22 57 23 58 24 60 25 61 26 62
REMARK SMILES IDX 87 63 27 64 86 66 28 68 29 71 30 72 80 73 31 74 85 75 79 76
REMARK SMILES IDX 81 77 32 78 84 79 78 81 77 83 33 85 65 88 45 89 64 90 46 91
REMARK SMILES IDX 49 92 63 93 82 94 47 95 48 97 62 99 83 100 50 103 34 105
REMARK SMILES IDX 35 106 43 107 36 108 37 109 41 110 44 111 38 112 39 113
REMARK SMILES IDX 42 114 40 115 66 116 67 117 75 118 68 119 69 120 73 121
REMARK SMILES IDX 76 122 70 123 71 124 74 125 72 126 51 127 52 128 60 129
REMARK SMILES IDX 53 130 54 131 58 132 61 133 55 134 56 135 59 136 57 137
REMARK H PARENT 18 2 18 3 17 5 17 6 16 8 16 9 15 13 11 15 8 21 89 23 9 24
REMARK H PARENT 88 25 3 31 93 33 5 36 91 38 90 39 1 41 1 42 1 43 12 45 12 46
REMARK H PARENT 12 47 19 49 19 50 20 52 20 53 21 55 21 56 22 59 26 65 87 67
REMARK H PARENT 27 69 86 70 85 80 79 82 81 84 84 86 78 87 46 96 49 98 82 101
REMARK H PARENT 47 102 83 104
REMARK Flexibility Score: inf
ROOT
ATOM      1  C   UNL A   1      33.404  27.072  25.326  1.00  0.00    -0.052 C 
ATOM      2  H   UNL A   1      33.946  27.604  26.081  1.00  0.00     0.027 H 
ATOM      3  H   UNL A   1      32.540  26.564  25.698  1.00  0.00     0.027 H 
ENDROOT
BRANCH   1   4
ATOM      4  C   UNL A   1      34.324  25.985  24.761  1.00  0.00    -0.036 C 
ATOM      5  H   UNL A   1      33.889  25.611  23.856  1.00  0.00     0.028 H 
ATOM      6  H   UNL A   1      35.279  26.439  24.600  1.00  0.00     0.028 H 
BRANCH   4   7
ATOM      7  C   UNL A   1      34.548  24.805  25.710  1.00  0.00     0.017 C 
ATOM      8  H   UNL A   1      35.418  24.998  26.302  1.00  0.00     0.049 H 
ATOM      9  H   UNL A   1      33.679  24.703  26.324  1.00  0.00     0.049 H 
BRANCH   7  10
ATOM     10  N   UNL A   1      34.738  23.562  24.991  1.00  0.00    -0.356 N 
ATOM     11  C   UNL A   1      33.935  22.476  24.830  1.00  0.00     0.227 C 
ATOM     12  O   UNL A   1      34.423  21.518  24.216  1.00  0.00    -0.274 OA
ATOM     13  H   UNL A   1      35.608  23.491  24.535  1.00  0.00     0.163 HD
BRANCH  11  14
ATOM     14  C   UNL A   1      32.490  22.395  25.346  1.00  0.00     0.060 C 
ATOM     15  H   UNL A   1      32.549  22.567  26.401  1.00  0.00     0.045 H 
BRANCH  14  16
ATOM     16  C   UNL A   1      31.606  23.532  24.857  1.00  0.00    -0.036 A 
ATOM     17  C   UNL A   1      30.011  25.751  24.022  1.00  0.00    -0.018 A 
ATOM     18  C   UNL A   1      30.720  24.961  23.104  1.00  0.00    -0.054 A 
ATOM     19  C   UNL A   1      30.108  25.396  25.374  1.00  0.00    -0.054 A 
ATOM     20  C   UNL A   1      31.471  23.854  23.508  1.00  0.00    -0.058 A 
ATOM     21  H   UNL A   1      30.686  25.203  22.102  1.00  0.00     0.063 H 
ATOM     22  C   UNL A   1      30.906  24.318  25.787  1.00  0.00    -0.058 A 
ATOM     23  H   UNL A   1      29.584  25.937  26.079  1.00  0.00     0.063 H 
ATOM     24  H   UNL A   1      31.933  23.266  22.796  1.00  0.00     0.063 H 
ATOM     25  H   UNL A   1      30.978  24.098  26.793  1.00  0.00     0.063 H 
BRANCH  17  26
ATOM     26  C   UNL A   1      29.204  26.900  23.549  1.00  0.00    -0.018 A 
ATOM     27  C   UNL A   1      28.310  31.056  21.661  1.00  0.00     0.013 A 
ATOM     28  C   UNL A   1      29.438  30.266  21.731  1.00  0.00    -0.034 A 
ATOM     29  N   UNL A   1      27.291  30.369  22.275  1.00  0.00    -0.359 N 
ATOM     30  C   UNL A   1      29.093  29.075  22.421  1.00  0.00     0.000 A 
ATOM     31  H   UNL A   1      30.368  30.499  21.348  1.00  0.00     0.065 H 
ATOM     32  C   UNL A   1      27.747  29.163  22.759  1.00  0.00     0.046 A 
ATOM     33  H   UNL A   1      26.365  30.693  22.358  1.00  0.00     0.166 HD
ATOM     34  C   UNL A   1      29.812  27.928  22.800  1.00  0.00    -0.045 A 
ATOM     35  C   UNL A   1      27.086  28.152  23.464  1.00  0.00    -0.037 A 
ATOM     36  H   UNL A   1      30.804  27.838  22.525  1.00  0.00     0.064 H 
ATOM     37  C   UNL A   1      27.840  27.033  23.857  1.00  0.00    -0.052 A 
ATOM     38  H   UNL A   1      26.082  28.225  23.687  1.00  0.00     0.065 H 
ATOM     39  H   UNL A   1      27.375  26.282  24.390  1.00  0.00     0.063 H 
BRANCH  27  40
ATOM     40  C   UNL A   1      28.111  32.398  21.063  1.00  0.00    -0.024 C 
ATOM     41  H   UNL A   1      28.310  32.353  20.012  1.00  0.00     0.029 H 
ATOM     42  H   UNL A   1      28.779  33.096  21.523  1.00  0.00     0.029 H 
ATOM     43  H   UNL A   1      27.102  32.713  21.221  1.00  0.00     0.029 H 
ENDBRANCH  27  40
ENDBRANCH  17  26
ENDBRANCH  14  16
BRANCH  14  44
ATOM     44  C   UNL A   1      31.880  20.994  25.268  1.00  0.00    -0.049 C 
ATOM     45  H   UNL A   1      30.814  21.072  25.219  1.00  0.00     0.024 H 
ATOM     46  H   UNL A   1      32.159  20.435  26.137  1.00  0.00     0.024 H 
ATOM     47  H   UNL A   1      32.242  20.497  24.393  1.00  0.00     0.024 H 
ENDBRANCH  14  44
ENDBRANCH  11  14
ENDBRANCH   7  10
ENDBRANCH   4   7
ENDBRANCH   1   4
BRANCH   1  48
ATOM     48  C   UNL A   1      32.892  28.093  24.302  1.00  0.00    -0.052 C 
ATOM     49  H   UNL A   1      32.195  27.595  23.662  1.00  0.00     0.027 H 
ATOM     50  H   UNL A   1      33.760  28.460  23.796  1.00  0.00     0.027 H 
BRANCH  48  51
ATOM     51  C   UNL A   1      32.196  29.326  24.887  1.00  0.00    -0.036 C 
ATOM     52  H   UNL A   1      31.149  29.114  24.960  1.00  0.00     0.028 H 
ATOM     53  H   UNL A   1      32.418  30.137  24.226  1.00  0.00     0.028 H 
BRANCH  51  54
ATOM     54  C   UNL A   1      32.691  29.750  26.268  1.00  0.00     0.018 C 
ATOM     55  H   UNL A   1      33.715  29.458  26.372  1.00  0.00     0.049 H 
ATOM     56  H   UNL A   1      32.077  29.270  27.001  1.00  0.00     0.049 H 
BRANCH  54  57
ATOM     57  N   UNL A   1      32.589  31.186  26.465  1.00  0.00    -0.352 N 
ATOM     58  C   UNL A   1      33.301  32.014  27.297  1.00  0.00     0.251 C 
ATOM     59  H   UNL A   1      31.905  31.635  25.917  1.00  0.00     0.163 HD
ATOM     60  O   UNL A   1      32.926  33.166  27.484  1.00  0.00    -0.269 OA
BRANCH  58  61
ATOM     61  C   UNL A   1      34.516  31.521  27.980  1.00  0.00     0.039 A 
ATOM     62  C   UNL A   1      35.581  32.403  28.182  1.00  0.00    -0.049 A 
ATOM     63  C   UNL A   1      34.626  30.186  28.380  1.00  0.00    -0.049 A 
ATOM     64  C   UNL A   1      36.737  31.960  28.831  1.00  0.00    -0.053 A 
ATOM     65  H   UNL A   1      35.515  33.379  27.853  1.00  0.00     0.063 H 
ATOM     66  C   UNL A   1      35.752  29.762  29.082  1.00  0.00    -0.053 A 
ATOM     67  H   UNL A   1      33.874  29.516  28.155  1.00  0.00     0.063 H 
ATOM     68  C   UNL A   1      36.820  30.643  29.309  1.00  0.00    -0.014 A 
ATOM     69  H   UNL A   1      37.532  32.605  28.960  1.00  0.00     0.063 H 
ATOM     70  H   UNL A   1      35.801  28.794  29.437  1.00  0.00     0.063 H 
BRANCH  68  71
ATOM     71  C   UNL A   1      38.022  30.164  30.037  1.00  0.00     0.031 A 
ATOM     72  C   UNL A   1      38.291  30.632  31.440  1.00  0.00     0.074 A 
ATOM     73  C   UNL A   1      38.901  29.356  29.414  1.00  0.00     0.049 A 
ATOM     74  N   UNL A   1      39.321  30.392  32.211  1.00  0.00    -0.248 NA
ATOM     75  C   UNL A   1      37.276  31.506  32.049  1.00  0.00    -0.034 C 
ATOM     76  C   UNL A   1      38.771  28.862  28.043  1.00  0.00    -0.036 A 
ATOM     77  N   UNL A   1      40.086  28.818  29.850  1.00  0.00    -0.354 N 
ATOM     78  C   UNL A   1      39.086  31.094  33.385  1.00  0.00     0.074 A 
ATOM     79  C   UNL A   1      37.840  31.809  33.209  1.00  0.00    -0.034 C 
ATOM     80  H   UNL A   1      36.364  31.806  31.671  1.00  0.00     0.065 H 
ATOM     81  C   UNL A   1      39.823  28.080  27.756  1.00  0.00    -0.036 A 
ATOM     82  H   UNL A   1      37.994  29.082  27.400  1.00  0.00     0.065 H 
ATOM     83  C   UNL A   1      40.718  28.045  28.908  1.00  0.00     0.049 A 
ATOM     84  H   UNL A   1      40.448  28.971  30.753  1.00  0.00     0.167 HD
ATOM     85  C   UNL A   1      39.830  31.123  34.517  1.00  0.00     0.037 A 
ATOM     86  H   UNL A   1      37.443  32.468  33.896  1.00  0.00     0.065 H 
ATOM     87  H   UNL A   1      39.975  27.583  26.863  1.00  0.00     0.065 H 
ATOM     88  C   UNL A   1      41.893  27.388  28.966  1.00  0.00     0.037 A 
ATOM     89  C   UNL A   1      41.056  30.391  34.700  1.00  0.00     0.049 A 
ATOM     90  C   UNL A   1      42.703  27.443  30.232  1.00  0.00     0.074 A 
ATOM     91  C   UNL A   1      41.860  30.318  35.824  1.00  0.00    -0.036 A 
ATOM     92  N   UNL A   1      41.656  29.604  33.728  1.00  0.00    -0.354 N 
ATOM     93  N   UNL A   1      42.445  28.067  31.355  1.00  0.00    -0.248 NA
ATOM     94  C   UNL A   1      43.970  26.696  30.240  1.00  0.00    -0.034 C 
ATOM     95  C   UNL A   1      42.965  29.515  35.522  1.00  0.00    -0.036 A 
ATOM     96  H   UNL A   1      41.676  30.776  36.730  1.00  0.00     0.065 H 
ATOM     97  C   UNL A   1      42.827  29.053  34.223  1.00  0.00     0.049 A 
ATOM     98  H   UNL A   1      41.302  29.458  32.821  1.00  0.00     0.167 HD
ATOM     99  C   UNL A   1      43.495  27.764  32.211  1.00  0.00     0.074 A 
ATOM    100  C   UNL A   1      44.390  26.891  31.481  1.00  0.00    -0.034 C 
ATOM    101  H   UNL A   1      44.414  26.159  29.478  1.00  0.00     0.065 H 
ATOM    102  H   UNL A   1      43.749  29.303  36.158  1.00  0.00     0.065 H 
ATOM    103  C   UNL A   1      43.700  28.174  33.486  1.00  0.00     0.037 A 
ATOM    104  H   UNL A   1      45.248  26.475  31.877  1.00  0.00     0.065 H 
BRANCH  85 105
ATOM    105  C   UNL A   1      39.332  31.969  35.652  1.00  0.00     0.064 A 
ATOM    106  C   UNL A   1      38.454  31.455  36.620  1.00  0.00     0.173 A 
ATOM    107  C   UNL A   1      39.762  33.296  35.797  1.00  0.00     0.173 A 
ATOM    108  F   UNL A   1      38.004  30.195  36.521  1.00  0.00    -0.203 F 
ATOM    109  C   UNL A   1      38.003  32.248  37.672  1.00  0.00     0.198 A 
ATOM    110  C   UNL A   1      39.332  34.078  36.866  1.00  0.00     0.198 A 
ATOM    111  F   UNL A   1      40.606  33.835  34.904  1.00  0.00    -0.203 F 
ATOM    112  F   UNL A   1      37.129  31.750  38.556  1.00  0.00    -0.200 F 
ATOM    113  C   UNL A   1      38.447  33.555  37.798  1.00  0.00     0.200 A 
ATOM    114  F   UNL A   1      39.771  35.337  36.993  1.00  0.00    -0.200 F 
ATOM    115  F   UNL A   1      38.017  34.315  38.815  1.00  0.00    -0.200 F 
ENDBRANCH  85 105
BRANCH  88 116
ATOM    116  C   UNL A   1      42.361  26.598  27.798  1.00  0.00     0.064 A 
ATOM    117  C   UNL A   1      43.259  27.149  26.873  1.00  0.00     0.173 A 
ATOM    118  C   UNL A   1      41.918  25.286  27.576  1.00  0.00     0.173 A 
ATOM    119  F   UNL A   1      43.693  28.408  27.032  1.00  0.00    -0.203 F 
ATOM    120  C   UNL A   1      43.681  26.426  25.761  1.00  0.00     0.198 A 
ATOM    121  C   UNL A   1      42.361  24.554  26.477  1.00  0.00     0.198 A 
ATOM    122  F   UNL A   1      41.061  24.712  28.433  1.00  0.00    -0.203 F 
ATOM    123  F   UNL A   1      44.505  26.993  24.869  1.00  0.00    -0.200 F 
ATOM    124  C   UNL A   1      43.236  25.127  25.566  1.00  0.00     0.200 A 
ATOM    125  F   UNL A   1      41.939  23.295  26.299  1.00  0.00    -0.200 F 
ATOM    126  F   UNL A   1      43.644  24.430  24.497  1.00  0.00    -0.200 F 
ENDBRANCH  88 116
BRANCH 103 127
ATOM    127  C   UNL A   1      44.918  27.651  34.188  1.00  0.00     0.064 A 
ATOM    128  C   UNL A   1      46.130  28.356  34.181  1.00  0.00     0.173 A 
ATOM    129  C   UNL A   1      44.859  26.449  34.908  1.00  0.00     0.173 A 
ATOM    130  F   UNL A   1      46.240  29.502  33.492  1.00  0.00    -0.203 F 
ATOM    131  C   UNL A   1      47.247  27.863  34.850  1.00  0.00     0.198 A 
ATOM    132  C   UNL A   1      45.970  25.973  35.599  1.00  0.00     0.198 A 
ATOM    133  F   UNL A   1      43.721  25.741  34.951  1.00  0.00    -0.203 F 
ATOM    134  F   UNL A   1      48.408  28.531  34.793  1.00  0.00    -0.200 F 
ATOM    135  C   UNL A   1      47.164  26.677  35.564  1.00  0.00     0.200 A 
ATOM    136  F   UNL A   1      45.885  24.833  36.298  1.00  0.00    -0.200 F 
ATOM    137  F   UNL A   1      48.239  26.207  36.213  1.00  0.00    -0.200 F 
ENDBRANCH 103 127
ENDBRANCH  68  71
ENDBRANCH  58  61
ENDBRANCH  54  57
ENDBRANCH  51  54
ENDBRANCH  48  51
ENDBRANCH   1  48
TORSDOF 17
ENDMDL
MODEL 7
REMARK VINA RESULT:     -11.9      4.139      7.426
REMARK SMILES Cc1cc2cc(-c3ccc([C@@H](C)C(=O)NCCCCCCNC(=O)c4ccc(-c5c6nc(c(-c7c(F)c(F)c(F)c(F)c7F)c7ccc([nH]7)c(-c7c(F)c(F)c(F)c(F)c7F)c7nc(c(-c8c(F)c(F)c(F)c(F)c8F)c8ccc5[nH]8)C=C7)C=C6)cc4)cc3)ccc2[nH]1
REMARK SMILES IDX 18 1 17 4 16 7 15 10 13 11 14 12 11 14 10 16 7 17 8 18 89 19
REMARK SMILES IDX 9 20 88 22 6 26 2 27 3 28 93 29 4 30 92 32 5 34 91 35 90 37
REMARK SMILES IDX 1 40 12 44 19 48 20 51 21 54 22 57 23 58 24 60 25 61 26 62
REMARK SMILES IDX 87 63 27 64 86 66 28 68 29 71 30 72 80 73 31 74 85 75 79 76
REMARK SMILES IDX 81 77 32 78 84 79 78 81 77 83 33 85 65 88 45 89 64 90 46 91
REMARK SMILES IDX 49 92 63 93 82 94 47 95 48 97 62 99 83 100 50 103 34 105
REMARK SMILES IDX 35 106 43 107 36 108 37 109 41 110 44 111 38 112 39 113
REMARK SMILES IDX 42 114 40 115 66 116 67 117 75 118 68 119 69 120 73 121
REMARK SMILES IDX 76 122 70 123 71 124 74 125 72 126 51 127 52 128 60 129
REMARK SMILES IDX 53 130 54 131 58 132 61 133 55 134 56 135 59 136 57 137
REMARK H PARENT 18 2 18 3 17 5 17 6 16 8 16 9 15 13 11 15 8 21 89 23 9 24
REMARK H PARENT 88 25 3 31 93 33 5 36 91 38 90 39 1 41 1 42 1 43 12 45 12 46
REMARK H PARENT 12 47 19 49 19 50 20 52 20 53 21 55 21 56 22 59 26 65 87 67
REMARK H PARENT 27 69 86 70 85 80 79 82 81 84 84 86 78 87 46 96 49 98 82 101
REMARK H PARENT 47 102 83 104
REMARK Flexibility Score: inf
ROOT
ATOM      1  C   UNL A   1      35.081  24.207  25.350  1.00  0.00    -0.052 C 
ATOM      2  H   UNL A   1      36.013  24.484  25.798  1.00  0.00     0.027 H 
ATOM      3  H   UNL A   1      35.054  24.358  24.292  1.00  0.00     0.027 H 
ENDROOT
BRANCH   1   4
ATOM      4  C   UNL A   1      33.987  25.106  25.936  1.00  0.00    -0.036 C 
ATOM      5  H   UNL A   1      33.035  24.689  25.679  1.00  0.00     0.028 H 
ATOM      6  H   UNL A   1      34.148  25.142  26.992  1.00  0.00     0.028 H 
BRANCH   4   7
ATOM      7  C   UNL A   1      34.033  26.550  25.430  1.00  0.00     0.017 C 
ATOM      8  H   UNL A   1      34.769  27.089  25.989  1.00  0.00     0.049 H 
ATOM      9  H   UNL A   1      34.279  26.530  24.389  1.00  0.00     0.049 H 
BRANCH   7  10
ATOM     10  N   UNL A   1      32.754  27.214  25.577  1.00  0.00    -0.356 N 
ATOM     11  C   UNL A   1      31.738  27.428  24.698  1.00  0.00     0.227 C 
ATOM     12  O   UNL A   1      30.793  28.114  25.109  1.00  0.00    -0.274 OA
ATOM     13  H   UNL A   1      32.592  27.577  26.478  1.00  0.00     0.163 HD
BRANCH  11  14
ATOM     14  C   UNL A   1      31.705  26.860  23.271  1.00  0.00     0.060 C 
ATOM     15  H   UNL A   1      32.625  27.165  22.817  1.00  0.00     0.045 H 
BRANCH  14  16
ATOM     16  C   UNL A   1      31.779  25.342  23.220  1.00  0.00    -0.036 A 
ATOM     17  C   UNL A   1      32.047  22.497  23.157  1.00  0.00    -0.018 A 
ATOM     18  C   UNL A   1      31.073  23.133  23.941  1.00  0.00    -0.054 A 
ATOM     19  C   UNL A   1      32.881  23.322  22.389  1.00  0.00    -0.054 A 
ATOM     20  C   UNL A   1      30.917  24.521  23.945  1.00  0.00    -0.058 A 
ATOM     21  H   UNL A   1      30.452  22.558  24.533  1.00  0.00     0.063 H 
ATOM     22  C   UNL A   1      32.762  24.719  22.433  1.00  0.00    -0.058 A 
ATOM     23  H   UNL A   1      33.596  22.893  21.781  1.00  0.00     0.063 H 
ATOM     24  H   UNL A   1      30.153  24.945  24.493  1.00  0.00     0.063 H 
ATOM     25  H   UNL A   1      33.409  25.300  21.877  1.00  0.00     0.063 H 
BRANCH  17  26
ATOM     26  C   UNL A   1      32.161  21.021  23.160  1.00  0.00    -0.018 A 
ATOM     27  C   UNL A   1      32.954  16.760  24.851  1.00  0.00     0.013 A 
ATOM     28  C   UNL A   1      32.828  18.005  25.431  1.00  0.00    -0.034 A 
ATOM     29  N   UNL A   1      32.756  16.915  23.500  1.00  0.00    -0.359 N 
ATOM     30  C   UNL A   1      32.561  18.940  24.398  1.00  0.00     0.000 A 
ATOM     31  H   UNL A   1      32.911  18.218  26.437  1.00  0.00     0.065 H 
ATOM     32  C   UNL A   1      32.527  18.239  23.197  1.00  0.00     0.046 A 
ATOM     33  H   UNL A   1      32.774  16.184  22.842  1.00  0.00     0.166 HD
ATOM     34  C   UNL A   1      32.354  20.331  24.375  1.00  0.00    -0.045 A 
ATOM     35  C   UNL A   1      32.297  18.870  21.970  1.00  0.00    -0.037 A 
ATOM     36  H   UNL A   1      32.344  20.856  25.264  1.00  0.00     0.064 H 
ATOM     37  C   UNL A   1      32.126  20.264  21.976  1.00  0.00    -0.052 A 
ATOM     38  H   UNL A   1      32.254  18.330  21.092  1.00  0.00     0.065 H 
ATOM     39  H   UNL A   1      31.970  20.751  21.081  1.00  0.00     0.063 H 
BRANCH  27  40
ATOM     40  C   UNL A   1      33.242  15.440  25.461  1.00  0.00    -0.024 C 
ATOM     41  H   UNL A   1      33.473  14.734  24.691  1.00  0.00     0.029 H 
ATOM     42  H   UNL A   1      32.384  15.105  26.006  1.00  0.00     0.029 H 
ATOM     43  H   UNL A   1      34.074  15.528  26.126  1.00  0.00     0.029 H 
ENDBRANCH  27  40
ENDBRANCH  17  26
ENDBRANCH  14  16
BRANCH  14  44
ATOM     44  C   UNL A   1      30.654  27.508  22.369  1.00  0.00    -0.049 C 
ATOM     45  H   UNL A   1      29.715  27.541  22.881  1.00  0.00     0.024 H 
ATOM     46  H   UNL A   1      30.551  26.934  21.471  1.00  0.00     0.024 H 
ATOM     47  H   UNL A   1      30.961  28.503  22.122  1.00  0.00     0.024 H 
ENDBRANCH  14  44
ENDBRANCH  11  14
ENDBRANCH   7  10
ENDBRANCH   4   7
ENDBRANCH   1   4
BRANCH   1  48
ATOM     48  C   UNL A   1      34.879  22.702  25.571  1.00  0.00    -0.052 C 
ATOM     49  H   UNL A   1      33.843  22.483  25.417  1.00  0.00     0.027 H 
ATOM     50  H   UNL A   1      35.220  22.503  26.566  1.00  0.00     0.027 H 
BRANCH  48  51
ATOM     51  C   UNL A   1      35.696  21.782  24.657  1.00  0.00    -0.036 C 
ATOM     52  H   UNL A   1      35.342  21.910  23.655  1.00  0.00     0.028 H 
ATOM     53  H   UNL A   1      35.559  20.789  25.032  1.00  0.00     0.028 H 
BRANCH  51  54
ATOM     54  C   UNL A   1      37.201  22.040  24.666  1.00  0.00     0.018 C 
ATOM     55  H   UNL A   1      37.387  22.985  25.130  1.00  0.00     0.049 H 
ATOM     56  H   UNL A   1      37.543  22.033  23.652  1.00  0.00     0.049 H 
BRANCH  54  57
ATOM     57  N   UNL A   1      37.925  21.009  25.391  1.00  0.00    -0.352 N 
ATOM     58  C   UNL A   1      39.080  21.096  26.127  1.00  0.00     0.251 C 
ATOM     59  H   UNL A   1      37.524  20.110  25.350  1.00  0.00     0.163 HD
ATOM     60  O   UNL A   1      39.658  20.076  26.487  1.00  0.00    -0.269 OA
BRANCH  58  61
ATOM     61  C   UNL A   1      39.642  22.417  26.481  1.00  0.00     0.039 A 
ATOM     62  C   UNL A   1      40.738  22.474  27.347  1.00  0.00    -0.049 A 
ATOM     63  C   UNL A   1      39.068  23.597  25.999  1.00  0.00    -0.049 A 
ATOM     64  C   UNL A   1      41.289  23.712  27.690  1.00  0.00    -0.053 A 
ATOM     65  H   UNL A   1      41.138  21.604  27.733  1.00  0.00     0.063 H 
ATOM     66  C   UNL A   1      39.656  24.826  26.291  1.00  0.00    -0.053 A 
ATOM     67  H   UNL A   1      38.209  23.558  25.428  1.00  0.00     0.063 H 
ATOM     68  C   UNL A   1      40.768  24.895  27.144  1.00  0.00    -0.014 A 
ATOM     69  H   UNL A   1      42.083  23.755  28.348  1.00  0.00     0.063 H 
ATOM     70  H   UNL A   1      39.272  25.690  25.878  1.00  0.00     0.063 H 
BRANCH  68  71
ATOM     71  C   UNL A   1      41.364  26.217  27.464  1.00  0.00     0.031 A 
ATOM     72  C   UNL A   1      42.775  26.527  27.048  1.00  0.00     0.074 A 
ATOM     73  C   UNL A   1      40.657  27.112  28.179  1.00  0.00     0.049 A 
ATOM     74  N   UNL A   1      43.499  27.589  27.301  1.00  0.00    -0.248 NA
ATOM     75  C   UNL A   1      43.474  25.498  26.264  1.00  0.00    -0.034 C 
ATOM     76  C   UNL A   1      39.294  26.914  28.670  1.00  0.00    -0.036 A 
ATOM     77  N   UNL A   1      40.993  28.365  28.626  1.00  0.00    -0.354 N 
ATOM     78  C   UNL A   1      44.737  27.349  26.721  1.00  0.00     0.074 A 
ATOM     79  C   UNL A   1      44.685  26.022  26.145  1.00  0.00    -0.034 C 
ATOM     80  H   UNL A   1      43.114  24.601  25.901  1.00  0.00     0.065 H 
ATOM     81  C   UNL A   1      38.902  28.012  29.336  1.00  0.00    -0.036 A 
ATOM     82  H   UNL A   1      38.724  26.065  28.528  1.00  0.00     0.065 H 
ATOM     83  C   UNL A   1      39.998  28.976  29.348  1.00  0.00     0.049 A 
ATOM     84  H   UNL A   1      41.865  28.786  28.447  1.00  0.00     0.167 HD
ATOM     85  C   UNL A   1      45.813  28.169  26.654  1.00  0.00     0.037 A 
ATOM     86  H   UNL A   1      45.485  25.547  25.701  1.00  0.00     0.065 H 
ATOM     87  H   UNL A   1      37.976  28.152  29.770  1.00  0.00     0.065 H 
ATOM     88  C   UNL A   1      39.976  30.177  29.958  1.00  0.00     0.037 A 
ATOM     89  C   UNL A   1      45.855  29.498  27.206  1.00  0.00     0.049 A 
ATOM     90  C   UNL A   1      41.187  31.065  29.876  1.00  0.00     0.074 A 
ATOM     91  C   UNL A   1      46.882  30.425  27.152  1.00  0.00    -0.036 A 
ATOM     92  N   UNL A   1      44.820  30.089  27.915  1.00  0.00    -0.354 N 
ATOM     93  N   UNL A   1      42.334  30.849  29.279  1.00  0.00    -0.248 NA
ATOM     94  C   UNL A   1      41.099  32.369  30.549  1.00  0.00    -0.034 C 
ATOM     95  C   UNL A   1      46.481  31.564  27.858  1.00  0.00    -0.036 A 
ATOM     96  H   UNL A   1      47.786  30.298  26.672  1.00  0.00     0.065 H 
ATOM     97  C   UNL A   1      45.189  31.364  28.316  1.00  0.00     0.049 A 
ATOM     98  H   UNL A   1      43.951  29.667  28.105  1.00  0.00     0.167 HD
ATOM     99  C   UNL A   1      43.090  31.996  29.476  1.00  0.00     0.074 A 
ATOM    100  C   UNL A   1      42.267  32.912  30.240  1.00  0.00    -0.034 C 
ATOM    101  H   UNL A   1      40.328  32.759  31.115  1.00  0.00     0.065 H 
ATOM    102  H   UNL A   1      47.052  32.410  28.012  1.00  0.00     0.065 H 
ATOM    103  C   UNL A   1      44.352  32.267  29.064  1.00  0.00     0.037 A 
ATOM    104  H   UNL A   1      42.555  33.865  30.510  1.00  0.00     0.065 H 
BRANCH  85 105
ATOM    105  C   UNL A   1      47.035  27.653  25.952  1.00  0.00     0.064 A 
ATOM    106  C   UNL A   1      47.162  27.724  24.555  1.00  0.00     0.173 A 
ATOM    107  C   UNL A   1      48.105  27.115  26.681  1.00  0.00     0.173 A 
ATOM    108  F   UNL A   1      46.163  28.220  23.811  1.00  0.00    -0.203 F 
ATOM    109  C   UNL A   1      48.303  27.247  23.914  1.00  0.00     0.198 A 
ATOM    110  C   UNL A   1      49.257  26.665  26.039  1.00  0.00     0.198 A 
ATOM    111  F   UNL A   1      48.038  27.030  28.018  1.00  0.00    -0.203 F 
ATOM    112  F   UNL A   1      48.382  27.282  22.578  1.00  0.00    -0.200 F 
ATOM    113  C   UNL A   1      49.351  26.725  24.657  1.00  0.00     0.200 A 
ATOM    114  F   UNL A   1      50.274  26.171  26.759  1.00  0.00    -0.200 F 
ATOM    115  F   UNL A   1      50.451  26.272  24.039  1.00  0.00    -0.200 F 
ENDBRANCH  85 105
BRANCH  88 116
ATOM    116  C   UNL A   1      38.754  30.623  30.677  1.00  0.00     0.064 A 
ATOM    117  C   UNL A   1      37.676  31.183  29.979  1.00  0.00     0.173 A 
ATOM    118  C   UNL A   1      38.642  30.507  32.070  1.00  0.00     0.173 A 
ATOM    119  F   UNL A   1      37.747  31.335  28.648  1.00  0.00    -0.203 F 
ATOM    120  C   UNL A   1      36.539  31.629  30.648  1.00  0.00     0.198 A 
ATOM    121  C   UNL A   1      37.493  30.929  32.735  1.00  0.00     0.198 A 
ATOM    122  F   UNL A   1      39.644  29.974  32.783  1.00  0.00    -0.203 F 
ATOM    123  F   UNL A   1      35.541  32.202  29.960  1.00  0.00    -0.200 F 
ATOM    124  C   UNL A   1      36.445  31.498  32.025  1.00  0.00     0.200 A 
ATOM    125  F   UNL A   1      37.401  30.788  34.065  1.00  0.00    -0.200 F 
ATOM    126  F   UNL A   1      35.351  31.925  32.668  1.00  0.00    -0.200 F 
ENDBRANCH  88 116
BRANCH 103 127
ATOM    127  C   UNL A   1      44.907  33.621  29.394  1.00  0.00     0.064 A 
ATOM    128  C   UNL A   1      45.651  33.846  30.561  1.00  0.00     0.173 A 
ATOM    129  C   UNL A   1      44.723  34.696  28.512  1.00  0.00     0.173 A 
ATOM    130  F   UNL A   1      45.839  32.853  31.443  1.00  0.00    -0.203 F 
ATOM    131  C   UNL A   1      46.171  35.105  30.845  1.00  0.00     0.198 A 
ATOM    132  C   UNL A   1      45.269  35.947  28.785  1.00  0.00     0.198 A 
ATOM    133  F   UNL A   1      44.025  34.530  27.379  1.00  0.00    -0.203 F 
ATOM    134  F   UNL A   1      46.841  35.309  31.988  1.00  0.00    -0.200 F 
ATOM    135  C   UNL A   1      45.986  36.152  29.954  1.00  0.00     0.200 A 
ATOM    136  F   UNL A   1      45.099  36.955  27.918  1.00  0.00    -0.200 F 
ATOM    137  F   UNL A   1      46.493  37.363  30.226  1.00  0.00    -0.200 F 
ENDBRANCH 103 127
ENDBRANCH  68  71
ENDBRANCH  58  61
ENDBRANCH  54  57
ENDBRANCH  51  54
ENDBRANCH  48  51
ENDBRANCH   1  48
TORSDOF 17
ENDMDL
MODEL 8
REMARK VINA RESULT:     -11.9      5.204      8.571
REMARK SMILES Cc1cc2cc(-c3ccc([C@@H](C)C(=O)NCCCCCCNC(=O)c4ccc(-c5c6nc(c(-c7c(F)c(F)c(F)c(F)c7F)c7ccc([nH]7)c(-c7c(F)c(F)c(F)c(F)c7F)c7nc(c(-c8c(F)c(F)c(F)c(F)c8F)c8ccc5[nH]8)C=C7)C=C6)cc4)cc3)ccc2[nH]1
REMARK SMILES IDX 18 1 17 4 16 7 15 10 13 11 14 12 11 14 10 16 7 17 8 18 89 19
REMARK SMILES IDX 9 20 88 22 6 26 2 27 3 28 93 29 4 30 92 32 5 34 91 35 90 37
REMARK SMILES IDX 1 40 12 44 19 48 20 51 21 54 22 57 23 58 24 60 25 61 26 62
REMARK SMILES IDX 87 63 27 64 86 66 28 68 29 71 30 72 80 73 31 74 85 75 79 76
REMARK SMILES IDX 81 77 32 78 84 79 78 81 77 83 33 85 65 88 45 89 64 90 46 91
REMARK SMILES IDX 49 92 63 93 82 94 47 95 48 97 62 99 83 100 50 103 34 105
REMARK SMILES IDX 35 106 43 107 36 108 37 109 41 110 44 111 38 112 39 113
REMARK SMILES IDX 42 114 40 115 66 116 67 117 75 118 68 119 69 120 73 121
REMARK SMILES IDX 76 122 70 123 71 124 74 125 72 126 51 127 52 128 60 129
REMARK SMILES IDX 53 130 54 131 58 132 61 133 55 134 56 135 59 136 57 137
REMARK H PARENT 18 2 18 3 17 5 17 6 16 8 16 9 15 13 11 15 8 21 89 23 9 24
REMARK H PARENT 88 25 3 31 93 33 5 36 91 38 90 39 1 41 1 42 1 43 12 45 12 46
REMARK H PARENT 12 47 19 49 19 50 20 52 20 53 21 55 21 56 22 59 26 65 87 67
REMARK H PARENT 27 69 86 70 85 80 79 82 81 84 84 86 78 87 46 96 49 98 82 101
REMARK H PARENT 47 102 83 104
REMARK Flexibility Score: inf
ROOT
ATOM      1  C   UNL A   1      40.672  22.014  26.259  1.00  0.00    -0.052 C 
ATOM      2  H   UNL A   1      41.399  22.723  26.598  1.00  0.00     0.027 H 
ATOM      3  H   UNL A   1      40.742  21.796  25.215  1.00  0.00     0.027 H 
ENDROOT
BRANCH   1   4
ATOM      4  C   UNL A   1      39.282  22.624  26.472  1.00  0.00    -0.036 C 
ATOM      5  H   UNL A   1      39.100  22.688  27.526  1.00  0.00     0.028 H 
ATOM      6  H   UNL A   1      39.287  23.582  25.997  1.00  0.00     0.028 H 
BRANCH   4   7
ATOM      7  C   UNL A   1      38.146  21.819  25.836  1.00  0.00     0.017 C 
ATOM      8  H   UNL A   1      38.462  20.802  25.726  1.00  0.00     0.049 H 
ATOM      9  H   UNL A   1      37.291  21.889  26.475  1.00  0.00     0.049 H 
BRANCH   7  10
ATOM     10  N   UNL A   1      37.779  22.338  24.535  1.00  0.00    -0.356 N 
ATOM     11  C   UNL A   1      36.567  22.579  23.965  1.00  0.00     0.227 C 
ATOM     12  O   UNL A   1      36.582  22.954  22.785  1.00  0.00    -0.274 OA
ATOM     13  H   UNL A   1      38.547  22.557  23.959  1.00  0.00     0.163 HD
BRANCH  11  14
ATOM     14  C   UNL A   1      35.228  22.429  24.702  1.00  0.00     0.060 C 
ATOM     15  H   UNL A   1      35.478  22.326  25.738  1.00  0.00     0.045 H 
BRANCH  14  16
ATOM     16  C   UNL A   1      34.374  23.686  24.674  1.00  0.00    -0.036 A 
ATOM     17  C   UNL A   1      32.881  26.122  24.607  1.00  0.00    -0.018 A 
ATOM     18  C   UNL A   1      32.616  25.066  23.722  1.00  0.00    -0.054 A 
ATOM     19  C   UNL A   1      33.907  25.926  25.542  1.00  0.00    -0.054 A 
ATOM     20  C   UNL A   1      33.321  23.861  23.777  1.00  0.00    -0.058 A 
ATOM     21  H   UNL A   1      31.878  25.181  23.010  1.00  0.00     0.063 H 
ATOM     22  C   UNL A   1      34.653  24.737  25.562  1.00  0.00    -0.058 A 
ATOM     23  H   UNL A   1      34.119  26.669  26.225  1.00  0.00     0.063 H 
ATOM     24  H   UNL A   1      33.058  23.089  23.145  1.00  0.00     0.063 H 
ATOM     25  H   UNL A   1      35.421  24.634  26.244  1.00  0.00     0.063 H 
BRANCH  17  26
ATOM     26  C   UNL A   1      32.091  27.373  24.533  1.00  0.00    -0.018 A 
ATOM     27  C   UNL A   1      28.872  30.356  22.991  1.00  0.00     0.013 A 
ATOM     28  C   UNL A   1      29.124  29.022  22.752  1.00  0.00    -0.034 A 
ATOM     29  N   UNL A   1      29.797  30.789  23.911  1.00  0.00    -0.359 N 
ATOM     30  C   UNL A   1      30.243  28.643  23.539  1.00  0.00     0.000 A 
ATOM     31  H   UNL A   1      28.593  28.407  22.115  1.00  0.00     0.065 H 
ATOM     32  C   UNL A   1      30.653  29.765  24.251  1.00  0.00     0.046 A 
ATOM     33  H   UNL A   1      29.841  31.702  24.276  1.00  0.00     0.166 HD
ATOM     34  C   UNL A   1      30.954  27.441  23.702  1.00  0.00    -0.045 A 
ATOM     35  C   UNL A   1      31.748  29.739  25.120  1.00  0.00    -0.037 A 
ATOM     36  H   UNL A   1      30.638  26.593  23.204  1.00  0.00     0.064 H 
ATOM     37  C   UNL A   1      32.458  28.532  25.237  1.00  0.00    -0.052 A 
ATOM     38  H   UNL A   1      32.023  30.576  25.657  1.00  0.00     0.065 H 
ATOM     39  H   UNL A   1      33.277  28.496  25.862  1.00  0.00     0.063 H 
BRANCH  27  40
ATOM     40  C   UNL A   1      27.835  31.254  22.430  1.00  0.00    -0.024 C 
ATOM     41  H   UNL A   1      27.627  30.972  21.419  1.00  0.00     0.029 H 
ATOM     42  H   UNL A   1      28.188  32.264  22.453  1.00  0.00     0.029 H 
ATOM     43  H   UNL A   1      26.942  31.176  23.013  1.00  0.00     0.029 H 
ENDBRANCH  27  40
ENDBRANCH  17  26
ENDBRANCH  14  16
BRANCH  14  44
ATOM     44  C   UNL A   1      34.498  21.118  24.401  1.00  0.00    -0.049 C 
ATOM     45  H   UNL A   1      35.152  20.460  23.869  1.00  0.00     0.024 H 
ATOM     46  H   UNL A   1      33.633  21.321  23.804  1.00  0.00     0.024 H 
ATOM     47  H   UNL A   1      34.198  20.659  25.319  1.00  0.00     0.024 H 
ENDBRANCH  14  44
ENDBRANCH  11  14
ENDBRANCH   7  10
ENDBRANCH   4   7
ENDBRANCH   1   4
BRANCH   1  48
ATOM     48  C   UNL A   1      40.924  20.689  26.990  1.00  0.00    -0.052 C 
ATOM     49  H   UNL A   1      40.023  20.416  27.496  1.00  0.00     0.027 H 
ATOM     50  H   UNL A   1      41.751  20.869  27.645  1.00  0.00     0.027 H 
BRANCH  48  51
ATOM     51  C   UNL A   1      41.343  19.512  26.103  1.00  0.00    -0.036 C 
ATOM     52  H   UNL A   1      41.461  19.875  25.102  1.00  0.00     0.028 H 
ATOM     53  H   UNL A   1      40.573  18.776  26.198  1.00  0.00     0.028 H 
BRANCH  51  54
ATOM     54  C   UNL A   1      42.644  18.827  26.515  1.00  0.00     0.018 C 
ATOM     55  H   UNL A   1      42.409  17.894  26.983  1.00  0.00     0.049 H 
ATOM     56  H   UNL A   1      43.161  19.478  27.187  1.00  0.00     0.049 H 
BRANCH  54  57
ATOM     57  N   UNL A   1      43.511  18.576  25.375  1.00  0.00    -0.352 N 
ATOM     58  C   UNL A   1      44.212  19.458  24.591  1.00  0.00     0.251 C 
ATOM     59  H   UNL A   1      43.611  17.628  25.127  1.00  0.00     0.163 HD
ATOM     60  O   UNL A   1      44.718  19.078  23.541  1.00  0.00    -0.269 OA
BRANCH  58  61
ATOM     61  C   UNL A   1      44.355  20.871  25.001  1.00  0.00     0.039 A 
ATOM     62  C   UNL A   1      45.043  21.166  26.182  1.00  0.00    -0.049 A 
ATOM     63  C   UNL A   1      43.777  21.900  24.252  1.00  0.00    -0.049 A 
ATOM     64  C   UNL A   1      45.196  22.495  26.585  1.00  0.00    -0.053 A 
ATOM     65  H   UNL A   1      45.437  20.403  26.755  1.00  0.00     0.063 H 
ATOM     66  C   UNL A   1      43.983  23.228  24.620  1.00  0.00    -0.053 A 
ATOM     67  H   UNL A   1      43.198  21.676  23.427  1.00  0.00     0.063 H 
ATOM     68  C   UNL A   1      44.689  23.537  25.793  1.00  0.00    -0.014 A 
ATOM     69  H   UNL A   1      45.684  22.711  27.467  1.00  0.00     0.063 H 
ATOM     70  H   UNL A   1      43.614  23.988  24.028  1.00  0.00     0.063 H 
BRANCH  68  71
ATOM     71  C   UNL A   1      44.875  24.958  26.181  1.00  0.00     0.031 A 
ATOM     72  C   UNL A   1      46.228  25.603  26.058  1.00  0.00     0.074 A 
ATOM     73  C   UNL A   1      43.843  25.649  26.701  1.00  0.00     0.049 A 
ATOM     74  N   UNL A   1      46.610  26.803  26.417  1.00  0.00    -0.248 NA
ATOM     75  C   UNL A   1      47.299  24.781  25.474  1.00  0.00    -0.034 C 
ATOM     76  C   UNL A   1      42.492  25.124  26.905  1.00  0.00    -0.036 A 
ATOM     77  N   UNL A   1      43.771  26.939  27.164  1.00  0.00    -0.354 N 
ATOM     78  C   UNL A   1      47.964  26.873  26.116  1.00  0.00     0.074 A 
ATOM     79  C   UNL A   1      48.349  25.581  25.591  1.00  0.00    -0.034 C 
ATOM     80  H   UNL A   1      47.246  23.830  25.076  1.00  0.00     0.065 H 
ATOM     81  C   UNL A   1      41.721  26.087  27.435  1.00  0.00    -0.036 A 
ATOM     82  H   UNL A   1      42.182  24.165  26.678  1.00  0.00     0.065 H 
ATOM     83  C   UNL A   1      42.531  27.284  27.640  1.00  0.00     0.049 A 
ATOM     84  H   UNL A   1      44.537  27.558  27.155  1.00  0.00     0.167 HD
ATOM     85  C   UNL A   1      48.805  27.927  26.246  1.00  0.00     0.037 A 
ATOM     86  H   UNL A   1      49.314  25.316  25.340  1.00  0.00     0.065 H 
ATOM     87  H   UNL A   1      40.718  25.995  27.661  1.00  0.00     0.065 H 
ATOM     88  C   UNL A   1      42.098  28.436  28.188  1.00  0.00     0.037 A 
ATOM     89  C   UNL A   1      48.415  29.219  26.746  1.00  0.00     0.049 A 
ATOM     90  C   UNL A   1      43.055  29.588  28.328  1.00  0.00     0.074 A 
ATOM     91  C   UNL A   1      49.181  30.364  26.874  1.00  0.00    -0.036 A 
ATOM     92  N   UNL A   1      47.144  29.536  27.202  1.00  0.00    -0.354 N 
ATOM     93  N   UNL A   1      44.319  29.661  27.990  1.00  0.00    -0.248 NA
ATOM     94  C   UNL A   1      42.521  30.823  28.921  1.00  0.00    -0.034 C 
ATOM     95  C   UNL A   1      48.384  31.365  27.439  1.00  0.00    -0.036 A 
ATOM     96  H   UNL A   1      50.170  30.464  26.598  1.00  0.00     0.065 H 
ATOM     97  C   UNL A   1      47.109  30.855  27.625  1.00  0.00     0.049 A 
ATOM     98  H   UNL A   1      46.379  28.916  27.222  1.00  0.00     0.167 HD
ATOM     99  C   UNL A   1      44.724  30.952  28.300  1.00  0.00     0.074 A 
ATOM    100  C   UNL A   1      43.567  31.633  28.842  1.00  0.00    -0.034 C 
ATOM    101  H   UNL A   1      41.579  31.010  29.299  1.00  0.00     0.065 H 
ATOM    102  H   UNL A   1      48.693  32.320  27.678  1.00  0.00     0.065 H 
ATOM    103  C   UNL A   1      45.944  31.521  28.150  1.00  0.00     0.037 A 
ATOM    104  H   UNL A   1      43.558  32.624  29.131  1.00  0.00     0.065 H 
BRANCH  85 105
ATOM    105  C   UNL A   1      50.234  27.727  25.832  1.00  0.00     0.064 A 
ATOM    106  C   UNL A   1      51.243  27.483  26.776  1.00  0.00     0.173 A 
ATOM    107  C   UNL A   1      50.595  27.746  24.477  1.00  0.00     0.173 A 
ATOM    108  F   UNL A   1      50.952  27.465  28.085  1.00  0.00    -0.203 F 
ATOM    109  C   UNL A   1      52.565  27.293  26.381  1.00  0.00     0.198 A 
ATOM    110  C   UNL A   1      51.913  27.529  24.082  1.00  0.00     0.198 A 
ATOM    111  F   UNL A   1      49.669  27.970  23.533  1.00  0.00    -0.203 F 
ATOM    112  F   UNL A   1      53.518  27.109  27.303  1.00  0.00    -0.200 F 
ATOM    113  C   UNL A   1      52.898  27.310  25.035  1.00  0.00     0.200 A 
ATOM    114  F   UNL A   1      52.231  27.533  22.780  1.00  0.00    -0.200 F 
ATOM    115  F   UNL A   1      54.169  27.122  24.655  1.00  0.00    -0.200 F 
ENDBRANCH  85 105
BRANCH  88 116
ATOM    116  C   UNL A   1      40.682  28.567  28.620  1.00  0.00     0.064 A 
ATOM    117  C   UNL A   1      39.697  29.011  27.727  1.00  0.00     0.173 A 
ATOM    118  C   UNL A   1      40.286  28.261  29.930  1.00  0.00     0.173 A 
ATOM    119  F   UNL A   1      40.033  29.336  26.470  1.00  0.00    -0.203 F 
ATOM    120  C   UNL A   1      38.374  29.163  28.132  1.00  0.00     0.198 A 
ATOM    121  C   UNL A   1      38.957  28.389  30.327  1.00  0.00     0.198 A 
ATOM    122  F   UNL A   1      41.189  27.829  30.822  1.00  0.00    -0.203 F 
ATOM    123  F   UNL A   1      37.462  29.632  27.269  1.00  0.00    -0.200 F 
ATOM    124  C   UNL A   1      38.003  28.847  29.430  1.00  0.00     0.200 A 
ATOM    125  F   UNL A   1      38.600  28.070  31.579  1.00  0.00    -0.200 F 
ATOM    126  F   UNL A   1      36.730  28.992  29.819  1.00  0.00    -0.200 F 
ENDBRANCH  88 116
BRANCH 103 127
ATOM    127  C   UNL A   1      46.082  32.964  28.539  1.00  0.00     0.064 A 
ATOM    128  C   UNL A   1      46.480  33.342  29.829  1.00  0.00     0.173 A 
ATOM    129  C   UNL A   1      45.848  33.977  27.597  1.00  0.00     0.173 A 
ATOM    130  F   UNL A   1      46.699  32.410  30.768  1.00  0.00    -0.203 F 
ATOM    131  C   UNL A   1      46.616  34.685  30.169  1.00  0.00     0.198 A 
ATOM    132  C   UNL A   1      46.012  35.318  27.933  1.00  0.00     0.198 A 
ATOM    133  F   UNL A   1      45.470  33.666  26.349  1.00  0.00    -0.203 F 
ATOM    134  F   UNL A   1      46.955  35.026  31.420  1.00  0.00    -0.200 F 
ATOM    135  C   UNL A   1      46.390  35.670  29.220  1.00  0.00     0.200 A 
ATOM    136  F   UNL A   1      45.804  36.268  27.011  1.00  0.00    -0.200 F 
ATOM    137  F   UNL A   1      46.528  36.963  29.548  1.00  0.00    -0.200 F 
ENDBRANCH 103 127
ENDBRANCH  68  71
ENDBRANCH  58  61
ENDBRANCH  54  57
ENDBRANCH  51  54
ENDBRANCH  48  51
ENDBRANCH   1  48
TORSDOF 17
ENDMDL
MODEL 9
REMARK VINA RESULT:     -11.8      4.768     11.721
REMARK SMILES Cc1cc2cc(-c3ccc([C@@H](C)C(=O)NCCCCCCNC(=O)c4ccc(-c5c6nc(c(-c7c(F)c(F)c(F)c(F)c7F)c7ccc([nH]7)c(-c7c(F)c(F)c(F)c(F)c7F)c7nc(c(-c8c(F)c(F)c(F)c(F)c8F)c8ccc5[nH]8)C=C7)C=C6)cc4)cc3)ccc2[nH]1
REMARK SMILES IDX 18 1 17 4 16 7 15 10 13 11 14 12 11 14 10 16 7 17 8 18 89 19
REMARK SMILES IDX 9 20 88 22 6 26 2 27 3 28 93 29 4 30 92 32 5 34 91 35 90 37
REMARK SMILES IDX 1 40 12 44 19 48 20 51 21 54 22 57 23 58 24 60 25 61 26 62
REMARK SMILES IDX 87 63 27 64 86 66 28 68 29 71 30 72 80 73 31 74 85 75 79 76
REMARK SMILES IDX 81 77 32 78 84 79 78 81 77 83 33 85 65 88 45 89 64 90 46 91
REMARK SMILES IDX 49 92 63 93 82 94 47 95 48 97 62 99 83 100 50 103 34 105
REMARK SMILES IDX 35 106 43 107 36 108 37 109 41 110 44 111 38 112 39 113
REMARK SMILES IDX 42 114 40 115 66 116 67 117 75 118 68 119 69 120 73 121
REMARK SMILES IDX 76 122 70 123 71 124 74 125 72 126 51 127 52 128 60 129
REMARK SMILES IDX 53 130 54 131 58 132 61 133 55 134 56 135 59 136 57 137
REMARK H PARENT 18 2 18 3 17 5 17 6 16 8 16 9 15 13 11 15 8 21 89 23 9 24
REMARK H PARENT 88 25 3 31 93 33 5 36 91 38 90 39 1 41 1 42 1 43 12 45 12 46
REMARK H PARENT 12 47 19 49 19 50 20 52 20 53 21 55 21 56 22 59 26 65 87 67
REMARK H PARENT 27 69 86 70 85 80 79 82 81 84 84 86 78 87 46 96 49 98 82 101
REMARK H PARENT 47 102 83 104
REMARK Flexibility Score: inf
ROOT
ATOM      1  C   UNL A   1      36.263  31.792  32.132  1.00  0.00    -0.052 C 
ATOM      2  H   UNL A   1      35.681  32.163  32.950  1.00  0.00     0.027 H 
ATOM      3  H   UNL A   1      35.920  30.852  31.755  1.00  0.00     0.027 H 
ENDROOT
BRANCH   1   4
ATOM      4  C   UNL A   1      37.690  31.552  32.636  1.00  0.00    -0.036 C 
ATOM      5  H   UNL A   1      38.345  31.517  31.789  1.00  0.00     0.028 H 
ATOM      6  H   UNL A   1      37.923  32.355  33.302  1.00  0.00     0.028 H 
BRANCH   4   7
ATOM      7  C   UNL A   1      37.859  30.254  33.429  1.00  0.00     0.017 C 
ATOM      8  H   UNL A   1      37.086  29.571  33.142  1.00  0.00     0.049 H 
ATOM      9  H   UNL A   1      38.827  29.854  33.210  1.00  0.00     0.049 H 
BRANCH   7  10
ATOM     10  N   UNL A   1      37.778  30.479  34.857  1.00  0.00    -0.356 N 
ATOM     11  C   UNL A   1      38.728  30.781  35.783  1.00  0.00     0.227 C 
ATOM     12  O   UNL A   1      38.351  30.831  36.960  1.00  0.00    -0.274 OA
ATOM     13  H   UNL A   1      36.868  30.398  35.226  1.00  0.00     0.163 HD
BRANCH  11  14
ATOM     14  C   UNL A   1      40.197  31.072  35.438  1.00  0.00     0.060 C 
ATOM     15  H   UNL A   1      40.651  31.393  36.353  1.00  0.00     0.045 H 
BRANCH  14  16
ATOM     16  C   UNL A   1      40.993  29.829  35.072  1.00  0.00    -0.036 A 
ATOM     17  C   UNL A   1      42.409  27.422  34.468  1.00  0.00    -0.018 A 
ATOM     18  C   UNL A   1      41.836  28.216  33.463  1.00  0.00    -0.054 A 
ATOM     19  C   UNL A   1      42.269  27.868  35.789  1.00  0.00    -0.054 A 
ATOM     20  C   UNL A   1      41.174  29.412  33.755  1.00  0.00    -0.058 A 
ATOM     21  H   UNL A   1      41.905  27.910  32.480  1.00  0.00     0.063 H 
ATOM     22  C   UNL A   1      41.557  29.040  36.088  1.00  0.00    -0.058 A 
ATOM     23  H   UNL A   1      42.695  27.325  36.555  1.00  0.00     0.063 H 
ATOM     24  H   UNL A   1      40.815  29.995  32.983  1.00  0.00     0.063 H 
ATOM     25  H   UNL A   1      41.448  29.328  37.073  1.00  0.00     0.063 H 
BRANCH  17  26
ATOM     26  C   UNL A   1      43.126  26.175  34.114  1.00  0.00    -0.018 A 
ATOM     27  C   UNL A   1      45.050  21.984  34.725  1.00  0.00     0.013 A 
ATOM     28  C   UNL A   1      44.232  22.777  35.501  1.00  0.00    -0.034 A 
ATOM     29  N   UNL A   1      45.250  22.643  33.535  1.00  0.00    -0.359 N 
ATOM     30  C   UNL A   1      43.944  23.956  34.765  1.00  0.00     0.000 A 
ATOM     31  H   UNL A   1      43.890  22.553  36.449  1.00  0.00     0.065 H 
ATOM     32  C   UNL A   1      44.596  23.855  33.541  1.00  0.00     0.046 A 
ATOM     33  H   UNL A   1      45.785  22.298  32.784  1.00  0.00     0.166 HD
ATOM     34  C   UNL A   1      43.190  25.111  35.037  1.00  0.00    -0.045 A 
ATOM     35  C   UNL A   1      44.530  24.863  32.574  1.00  0.00    -0.037 A 
ATOM     36  H   UNL A   1      42.674  25.182  35.929  1.00  0.00     0.064 H 
ATOM     37  C   UNL A   1      43.796  26.019  32.888  1.00  0.00    -0.052 A 
ATOM     38  H   UNL A   1      45.002  24.760  31.663  1.00  0.00     0.065 H 
ATOM     39  H   UNL A   1      43.746  26.781  32.194  1.00  0.00     0.063 H 
BRANCH  27  40
ATOM     40  C   UNL A   1      45.654  20.659  35.005  1.00  0.00    -0.024 C 
ATOM     41  H   UNL A   1      45.214  19.924  34.365  1.00  0.00     0.029 H 
ATOM     42  H   UNL A   1      45.474  20.395  36.027  1.00  0.00     0.029 H 
ATOM     43  H   UNL A   1      46.707  20.703  34.828  1.00  0.00     0.029 H 
ENDBRANCH  27  40
ENDBRANCH  17  26
ENDBRANCH  14  16
BRANCH  14  44
ATOM     44  C   UNL A   1      40.392  32.283  34.523  1.00  0.00    -0.049 C 
ATOM     45  H   UNL A   1      41.438  32.461  34.386  1.00  0.00     0.024 H 
ATOM     46  H   UNL A   1      39.939  33.143  34.970  1.00  0.00     0.024 H 
ATOM     47  H   UNL A   1      39.935  32.090  33.575  1.00  0.00     0.024 H 
ENDBRANCH  14  44
ENDBRANCH  11  14
ENDBRANCH   7  10
ENDBRANCH   4   7
ENDBRANCH   1   4
BRANCH   1  48
ATOM     48  C   UNL A   1      36.138  32.787  30.971  1.00  0.00    -0.052 C 
ATOM     49  H   UNL A   1      36.881  32.538  30.243  1.00  0.00     0.027 H 
ATOM     50  H   UNL A   1      36.262  33.758  31.403  1.00  0.00     0.027 H 
BRANCH  48  51
ATOM     51  C   UNL A   1      34.778  32.814  30.265  1.00  0.00    -0.036 C 
ATOM     52  H   UNL A   1      34.321  33.762  30.460  1.00  0.00     0.028 H 
ATOM     53  H   UNL A   1      34.222  31.988  30.654  1.00  0.00     0.028 H 
BRANCH  51  54
ATOM     54  C   UNL A   1      34.835  32.618  28.752  1.00  0.00     0.018 C 
ATOM     55  H   UNL A   1      35.859  32.553  28.450  1.00  0.00     0.049 H 
ATOM     56  H   UNL A   1      34.349  33.452  28.292  1.00  0.00     0.049 H 
BRANCH  54  57
ATOM     57  N   UNL A   1      34.145  31.409  28.334  1.00  0.00    -0.352 N 
ATOM     58  C   UNL A   1      34.648  30.174  28.011  1.00  0.00     0.251 C 
ATOM     59  H   UNL A   1      33.164  31.488  28.274  1.00  0.00     0.163 HD
ATOM     60  O   UNL A   1      33.930  29.338  27.473  1.00  0.00    -0.269 OA
BRANCH  58  61
ATOM     61  C   UNL A   1      36.061  29.845  28.300  1.00  0.00     0.039 A 
ATOM     62  C   UNL A   1      36.390  29.328  29.557  1.00  0.00    -0.049 A 
ATOM     63  C   UNL A   1      37.063  30.084  27.357  1.00  0.00    -0.049 A 
ATOM     64  C   UNL A   1      37.717  29.004  29.849  1.00  0.00    -0.053 A 
ATOM     65  H   UNL A   1      35.654  29.187  30.267  1.00  0.00     0.063 H 
ATOM     66  C   UNL A   1      38.376  29.703  27.626  1.00  0.00    -0.053 A 
ATOM     67  H   UNL A   1      36.832  30.543  26.462  1.00  0.00     0.063 H 
ATOM     68  C   UNL A   1      38.716  29.164  28.876  1.00  0.00    -0.014 A 
ATOM     69  H   UNL A   1      37.963  28.644  30.784  1.00  0.00     0.063 H 
ATOM     70  H   UNL A   1      39.102  29.816  26.901  1.00  0.00     0.063 H 
BRANCH  68  71
ATOM     71  C   UNL A   1      40.126  28.788  29.152  1.00  0.00     0.031 A 
ATOM     72  C   UNL A   1      41.031  29.740  29.883  1.00  0.00     0.074 A 
ATOM     73  C   UNL A   1      40.606  27.617  28.692  1.00  0.00     0.049 A 
ATOM     74  N   UNL A   1      42.308  29.630  30.150  1.00  0.00    -0.248 NA
ATOM     75  C   UNL A   1      40.424  30.994  30.357  1.00  0.00    -0.034 C 
ATOM     76  C   UNL A   1      39.838  26.626  27.939  1.00  0.00    -0.036 A 
ATOM     77  N   UNL A   1      41.860  27.068  28.782  1.00  0.00    -0.354 N 
ATOM     78  C   UNL A   1      42.658  30.801  30.808  1.00  0.00     0.074 A 
ATOM     79  C   UNL A   1      41.473  31.630  30.858  1.00  0.00    -0.034 C 
ATOM     80  H   UNL A   1      39.439  31.298  30.312  1.00  0.00     0.065 H 
ATOM     81  C   UNL A   1      40.631  25.582  27.650  1.00  0.00    -0.036 A 
ATOM     82  H   UNL A   1      38.845  26.716  27.672  1.00  0.00     0.065 H 
ATOM     83  C   UNL A   1      41.971  25.846  28.167  1.00  0.00     0.049 A 
ATOM     84  H   UNL A   1      42.610  27.509  29.244  1.00  0.00     0.167 HD
ATOM     85  C   UNL A   1      43.854  31.146  31.343  1.00  0.00     0.037 A 
ATOM     86  H   UNL A   1      41.447  32.591  31.233  1.00  0.00     0.065 H 
ATOM     87  H   UNL A   1      40.341  24.731  27.144  1.00  0.00     0.065 H 
ATOM     88  C   UNL A   1      43.035  25.033  28.029  1.00  0.00     0.037 A 
ATOM     89  C   UNL A   1      45.026  30.310  31.314  1.00  0.00     0.049 A 
ATOM     90  C   UNL A   1      44.355  25.443  28.625  1.00  0.00     0.074 A 
ATOM     91  C   UNL A   1      46.272  30.548  31.866  1.00  0.00    -0.036 A 
ATOM     92  N   UNL A   1      45.093  29.069  30.696  1.00  0.00    -0.354 N 
ATOM     93  N   UNL A   1      44.661  26.529  29.291  1.00  0.00    -0.248 NA
ATOM     94  C   UNL A   1      45.477  24.509  28.453  1.00  0.00    -0.034 C 
ATOM     95  C   UNL A   1      47.105  29.468  31.553  1.00  0.00    -0.036 A 
ATOM     96  H   UNL A   1      46.541  31.379  32.415  1.00  0.00     0.065 H 
ATOM     97  C   UNL A   1      46.365  28.537  30.843  1.00  0.00     0.049 A 
ATOM     98  H   UNL A   1      44.348  28.631  30.225  1.00  0.00     0.167 HD
ATOM     99  C   UNL A   1      45.997  26.397  29.644  1.00  0.00     0.074 A 
ATOM    100  C   UNL A   1      46.441  25.118  29.128  1.00  0.00    -0.034 C 
ATOM    101  H   UNL A   1      45.507  23.612  27.941  1.00  0.00     0.065 H 
ATOM    102  H   UNL A   1      48.101  29.380  31.809  1.00  0.00     0.065 H 
ATOM    103  C   UNL A   1      46.785  27.257  30.333  1.00  0.00     0.037 A 
ATOM    104  H   UNL A   1      47.388  24.732  29.267  1.00  0.00     0.065 H 
BRANCH  85 105
ATOM    105  C   UNL A   1      43.954  32.485  32.012  1.00  0.00     0.064 A 
ATOM    106  C   UNL A   1      44.134  33.664  31.272  1.00  0.00     0.173 A 
ATOM    107  C   UNL A   1      43.835  32.598  33.405  1.00  0.00     0.173 A 
ATOM    108  F   UNL A   1      44.264  33.608  29.938  1.00  0.00    -0.203 F 
ATOM    109  C   UNL A   1      44.219  34.902  31.903  1.00  0.00     0.198 A 
ATOM    110  C   UNL A   1      43.893  33.841  34.032  1.00  0.00     0.198 A 
ATOM    111  F   UNL A   1      43.657  31.504  34.161  1.00  0.00    -0.203 F 
ATOM    112  F   UNL A   1      44.438  36.007  31.179  1.00  0.00    -0.200 F 
ATOM    113  C   UNL A   1      44.092  34.990  33.281  1.00  0.00     0.200 A 
ATOM    114  F   UNL A   1      43.758  33.926  35.362  1.00  0.00    -0.200 F 
ATOM    115  F   UNL A   1      44.169  36.183  33.887  1.00  0.00    -0.200 F 
ENDBRANCH  85 105
BRANCH  88 116
ATOM    116  C   UNL A   1      42.893  23.735  27.319  1.00  0.00     0.064 A 
ATOM    117  C   UNL A   1      42.388  22.607  27.981  1.00  0.00     0.173 A 
ATOM    118  C   UNL A   1      43.263  23.593  25.974  1.00  0.00     0.173 A 
ATOM    119  F   UNL A   1      42.042  22.691  29.274  1.00  0.00    -0.203 F 
ATOM    120  C   UNL A   1      42.278  21.381  27.331  1.00  0.00     0.198 A 
ATOM    121  C   UNL A   1      43.127  22.371  25.317  1.00  0.00     0.198 A 
ATOM    122  F   UNL A   1      43.748  24.642  25.295  1.00  0.00    -0.203 F 
ATOM    123  F   UNL A   1      41.834  20.308  28.001  1.00  0.00    -0.200 F 
ATOM    124  C   UNL A   1      42.642  21.264  25.998  1.00  0.00     0.200 A 
ATOM    125  F   UNL A   1      43.468  22.266  24.026  1.00  0.00    -0.200 F 
ATOM    126  F   UNL A   1      42.534  20.085  25.373  1.00  0.00    -0.200 F 
ENDBRANCH  88 116
BRANCH 103 127
ATOM    127  C   UNL A   1      48.197  26.828  30.605  1.00  0.00     0.064 A 
ATOM    128  C   UNL A   1      48.521  26.017  31.702  1.00  0.00     0.173 A 
ATOM    129  C   UNL A   1      49.231  27.202  29.734  1.00  0.00     0.173 A 
ATOM    130  F   UNL A   1      47.569  25.647  32.572  1.00  0.00    -0.203 F 
ATOM    131  C   UNL A   1      49.834  25.616  31.931  1.00  0.00     0.198 A 
ATOM    132  C   UNL A   1      50.538  26.776  29.950  1.00  0.00     0.198 A 
ATOM    133  F   UNL A   1      48.971  27.972  28.667  1.00  0.00    -0.203 F 
ATOM    134  F   UNL A   1      50.129  24.878  33.010  1.00  0.00    -0.200 F 
ATOM    135  C   UNL A   1      50.840  25.990  31.052  1.00  0.00     0.200 A 
ATOM    136  F   UNL A   1      51.507  27.129  29.093  1.00  0.00    -0.200 F 
ATOM    137  F   UNL A   1      52.103  25.597  31.270  1.00  0.00    -0.200 F 
ENDBRANCH 103 127
ENDBRANCH  68  71
ENDBRANCH  58  61
ENDBRANCH  54  57
ENDBRANCH  51  54
ENDBRANCH  48  51
ENDBRANCH   1  48
TORSDOF 17
ENDMDL
MODEL 10
REMARK VINA RESULT:     -11.8      5.768      9.942
REMARK SMILES Cc1cc2cc(-c3ccc([C@@H](C)C(=O)NCCCCCCNC(=O)c4ccc(-c5c6nc(c(-c7c(F)c(F)c(F)c(F)c7F)c7ccc([nH]7)c(-c7c(F)c(F)c(F)c(F)c7F)c7nc(c(-c8c(F)c(F)c(F)c(F)c8F)c8ccc5[nH]8)C=C7)C=C6)cc4)cc3)ccc2[nH]1
REMARK SMILES IDX 18 1 17 4 16 7 15 10 13 11 14 12 11 14 10 16 7 17 8 18 89 19
REMARK SMILES IDX 9 20 88 22 6 26 2 27 3 28 93 29 4 30 92 32 5 34 91 35 90 37
REMARK SMILES IDX 1 40 12 44 19 48 20 51 21 54 22 57 23 58 24 60 25 61 26 62
REMARK SMILES IDX 87 63 27 64 86 66 28 68 29 71 30 72 80 73 31 74 85 75 79 76
REMARK SMILES IDX 81 77 32 78 84 79 78 81 77 83 33 85 65 88 45 89 64 90 46 91
REMARK SMILES IDX 49 92 63 93 82 94 47 95 48 97 62 99 83 100 50 103 34 105
REMARK SMILES IDX 35 106 43 107 36 108 37 109 41 110 44 111 38 112 39 113
REMARK SMILES IDX 42 114 40 115 66 116 67 117 75 118 68 119 69 120 73 121
REMARK SMILES IDX 76 122 70 123 71 124 74 125 72 126 51 127 52 128 60 129
REMARK SMILES IDX 53 130 54 131 58 132 61 133 55 134 56 135 59 136 57 137
REMARK H PARENT 18 2 18 3 17 5 17 6 16 8 16 9 15 13 11 15 8 21 89 23 9 24
REMARK H PARENT 88 25 3 31 93 33 5 36 91 38 90 39 1 41 1 42 1 43 12 45 12 46
REMARK H PARENT 12 47 19 49 19 50 20 52 20 53 21 55 21 56 22 59 26 65 87 67
REMARK H PARENT 27 69 86 70 85 80 79 82 81 84 84 86 78 87 46 96 49 98 82 101
REMARK H PARENT 47 102 83 104
REMARK Flexibility Score: inf
ROOT
ATOM      1  C   UNL A   1      43.261  23.783  28.104  1.00  0.00    -0.052 C 
ATOM      2  H   UNL A   1      42.887  23.925  27.112  1.00  0.00     0.027 H 
ATOM      3  H   UNL A   1      43.262  24.676  28.693  1.00  0.00     0.027 H 
ENDROOT
BRANCH   1   4
ATOM      4  C   UNL A   1      44.724  23.342  28.000  1.00  0.00    -0.036 C 
ATOM      5  H   UNL A   1      44.920  22.636  28.782  1.00  0.00     0.028 H 
ATOM      6  H   UNL A   1      44.854  22.922  27.026  1.00  0.00     0.028 H 
BRANCH   4   7
ATOM      7  C   UNL A   1      45.730  24.489  28.126  1.00  0.00     0.017 C 
ATOM      8  H   UNL A   1      45.268  25.297  28.655  1.00  0.00     0.049 H 
ATOM      9  H   UNL A   1      46.586  24.124  28.653  1.00  0.00     0.049 H 
BRANCH   7  10
ATOM     10  N   UNL A   1      46.169  24.967  26.832  1.00  0.00    -0.356 N 
ATOM     11  C   UNL A   1      45.537  25.695  25.871  1.00  0.00     0.227 C 
ATOM     12  O   UNL A   1      46.164  25.876  24.819  1.00  0.00    -0.274 OA
ATOM     13  H   UNL A   1      47.095  24.719  26.605  1.00  0.00     0.163 HD
BRANCH  11  14
ATOM     14  C   UNL A   1      44.133  26.296  26.038  1.00  0.00     0.060 C 
ATOM     15  H   UNL A   1      43.685  25.764  26.852  1.00  0.00     0.045 H 
BRANCH  14  16
ATOM     16  C   UNL A   1      44.142  27.735  26.527  1.00  0.00    -0.036 A 
ATOM     17  C   UNL A   1      44.272  30.461  27.375  1.00  0.00    -0.018 A 
ATOM     18  C   UNL A   1      43.134  29.935  26.744  1.00  0.00    -0.054 A 
ATOM     19  C   UNL A   1      45.345  29.584  27.586  1.00  0.00    -0.054 A 
ATOM     20  C   UNL A   1      43.056  28.593  26.361  1.00  0.00    -0.058 A 
ATOM     21  H   UNL A   1      42.331  30.556  26.557  1.00  0.00     0.063 H 
ATOM     22  C   UNL A   1      45.289  28.251  27.153  1.00  0.00    -0.058 A 
ATOM     23  H   UNL A   1      46.191  29.925  28.067  1.00  0.00     0.063 H 
ATOM     24  H   UNL A   1      42.181  28.232  25.950  1.00  0.00     0.063 H 
ATOM     25  H   UNL A   1      46.106  27.637  27.298  1.00  0.00     0.063 H 
BRANCH  17  26
ATOM     26  C   UNL A   1      44.303  31.883  27.790  1.00  0.00    -0.018 A 
ATOM     27  C   UNL A   1      44.195  36.511  27.337  1.00  0.00     0.013 A 
ATOM     28  C   UNL A   1      43.921  35.465  26.481  1.00  0.00    -0.034 A 
ATOM     29  N   UNL A   1      44.526  35.968  28.555  1.00  0.00    -0.359 N 
ATOM     30  C   UNL A   1      44.107  34.256  27.199  1.00  0.00     0.000 A 
ATOM     31  H   UNL A   1      43.631  35.547  25.494  1.00  0.00     0.065 H 
ATOM     32  C   UNL A   1      44.492  34.592  28.493  1.00  0.00     0.046 A 
ATOM     33  H   UNL A   1      44.754  36.487  29.359  1.00  0.00     0.166 HD
ATOM     34  C   UNL A   1      43.992  32.896  26.860  1.00  0.00    -0.045 A 
ATOM     35  C   UNL A   1      44.771  33.626  29.464  1.00  0.00    -0.037 A 
ATOM     36  H   UNL A   1      43.675  32.635  25.912  1.00  0.00     0.064 H 
ATOM     37  C   UNL A   1      44.679  32.276  29.086  1.00  0.00    -0.052 A 
ATOM     38  H   UNL A   1      45.034  33.895  30.425  1.00  0.00     0.065 H 
ATOM     39  H   UNL A   1      44.894  31.548  29.783  1.00  0.00     0.063 H 
BRANCH  27  40
ATOM     40  C   UNL A   1      44.167  37.975  27.106  1.00  0.00    -0.024 C 
ATOM     41  H   UNL A   1      45.142  38.309  26.815  1.00  0.00     0.029 H 
ATOM     42  H   UNL A   1      43.874  38.472  28.007  1.00  0.00     0.029 H 
ATOM     43  H   UNL A   1      43.467  38.201  26.330  1.00  0.00     0.029 H 
ENDBRANCH  27  40
ENDBRANCH  17  26
ENDBRANCH  14  16
BRANCH  14  44
ATOM     44  C   UNL A   1      43.186  25.991  24.876  1.00  0.00    -0.049 C 
ATOM     45  H   UNL A   1      43.159  24.935  24.705  1.00  0.00     0.024 H 
ATOM     46  H   UNL A   1      43.534  26.486  23.993  1.00  0.00     0.024 H 
ATOM     47  H   UNL A   1      42.203  26.339  25.116  1.00  0.00     0.024 H 
ENDBRANCH  14  44
ENDBRANCH  11  14
ENDBRANCH   7  10
ENDBRANCH   4   7
ENDBRANCH   1   4
BRANCH   1  48
ATOM     48  C   UNL A   1      42.331  22.799  28.826  1.00  0.00    -0.052 C 
ATOM     49  H   UNL A   1      41.630  23.369  29.399  1.00  0.00     0.027 H 
ATOM     50  H   UNL A   1      42.967  22.174  29.417  1.00  0.00     0.027 H 
BRANCH  48  51
ATOM     51  C   UNL A   1      41.538  21.851  27.920  1.00  0.00    -0.036 C 
ATOM     52  H   UNL A   1      40.544  21.773  28.310  1.00  0.00     0.028 H 
ATOM     53  H   UNL A   1      42.068  20.922  27.921  1.00  0.00     0.028 H 
BRANCH  51  54
ATOM     54  C   UNL A   1      41.442  22.288  26.460  1.00  0.00     0.018 C 
ATOM     55  H   UNL A   1      41.958  21.575  25.852  1.00  0.00     0.049 H 
ATOM     56  H   UNL A   1      41.882  23.259  26.376  1.00  0.00     0.049 H 
BRANCH  54  57
ATOM     57  N   UNL A   1      40.063  22.379  26.010  1.00  0.00    -0.352 N 
ATOM     58  C   UNL A   1      39.089  23.291  26.334  1.00  0.00     0.251 C 
ATOM     59  H   UNL A   1      39.784  21.680  25.374  1.00  0.00     0.163 HD
ATOM     60  O   UNL A   1      37.922  23.080  26.021  1.00  0.00    -0.269 OA
BRANCH  58  61
ATOM     61  C   UNL A   1      39.437  24.526  27.069  1.00  0.00     0.039 A 
ATOM     62  C   UNL A   1      39.062  24.641  28.410  1.00  0.00    -0.049 A 
ATOM     63  C   UNL A   1      40.088  25.584  26.430  1.00  0.00    -0.049 A 
ATOM     64  C   UNL A   1      39.386  25.796  29.126  1.00  0.00    -0.053 A 
ATOM     65  H   UNL A   1      38.547  23.874  28.871  1.00  0.00     0.063 H 
ATOM     66  C   UNL A   1      40.466  26.710  27.160  1.00  0.00    -0.053 A 
ATOM     67  H   UNL A   1      40.289  25.533  25.419  1.00  0.00     0.063 H 
ATOM     68  C   UNL A   1      40.113  26.828  28.512  1.00  0.00    -0.014 A 
ATOM     69  H   UNL A   1      39.090  25.891  30.110  1.00  0.00     0.063 H 
ATOM     70  H   UNL A   1      41.008  27.459  26.703  1.00  0.00     0.063 H 
BRANCH  68  71
ATOM     71  C   UNL A   1      40.503  28.047  29.266  1.00  0.00     0.031 A 
ATOM     72  C   UNL A   1      41.874  28.152  29.872  1.00  0.00     0.074 A 
ATOM     73  C   UNL A   1      39.603  29.031  29.455  1.00  0.00     0.049 A 
ATOM     74  N   UNL A   1      42.376  29.096  30.630  1.00  0.00    -0.248 NA
ATOM     75  C   UNL A   1      42.798  27.038  29.612  1.00  0.00    -0.034 C 
ATOM     76  C   UNL A   1      38.231  29.029  28.947  1.00  0.00    -0.036 A 
ATOM     77  N   UNL A   1      39.705  30.218  30.135  1.00  0.00    -0.354 N 
ATOM     78  C   UNL A   1      43.662  28.682  30.946  1.00  0.00     0.074 A 
ATOM     79  C   UNL A   1      43.850  27.381  30.341  1.00  0.00    -0.034 C 
ATOM     80  H   UNL A   1      42.662  26.205  29.017  1.00  0.00     0.065 H 
ATOM     81  C   UNL A   1      37.624  30.168  29.319  1.00  0.00    -0.036 A 
ATOM     82  H   UNL A   1      37.798  28.273  28.393  1.00  0.00     0.065 H 
ATOM     83  C   UNL A   1      38.552  30.963  30.118  1.00  0.00     0.049 A 
ATOM     84  H   UNL A   1      40.528  30.509  30.592  1.00  0.00     0.167 HD
ATOM     85  C   UNL A   1      44.611  29.337  31.658  1.00  0.00     0.037 A 
ATOM     86  H   UNL A   1      44.692  26.797  30.460  1.00  0.00     0.065 H 
ATOM     87  H   UNL A   1      36.657  30.438  29.078  1.00  0.00     0.065 H 
ATOM     88  C   UNL A   1      38.272  32.150  30.689  1.00  0.00     0.037 A 
ATOM     89  C   UNL A   1      44.430  30.642  32.239  1.00  0.00     0.049 A 
ATOM     90  C   UNL A   1      39.341  32.853  31.482  1.00  0.00     0.074 A 
ATOM     91  C   UNL A   1      45.344  31.410  32.940  1.00  0.00    -0.036 A 
ATOM     92  N   UNL A   1      43.253  31.373  32.185  1.00  0.00    -0.354 N 
ATOM     93  N   UNL A   1      40.571  32.476  31.730  1.00  0.00    -0.248 NA
ATOM     94  C   UNL A   1      38.981  34.151  32.071  1.00  0.00    -0.034 C 
ATOM     95  C   UNL A   1      44.709  32.591  33.340  1.00  0.00    -0.036 A 
ATOM     96  H   UNL A   1      46.326  31.156  33.133  1.00  0.00     0.065 H 
ATOM     97  C   UNL A   1      43.413  32.577  32.851  1.00  0.00     0.049 A 
ATOM     98  H   UNL A   1      42.426  31.080  31.738  1.00  0.00     0.167 HD
ATOM     99  C   UNL A   1      41.142  33.500  32.474  1.00  0.00     0.074 A 
ATOM    100  C   UNL A   1      40.125  34.520  32.629  1.00  0.00    -0.034 C 
ATOM    101  H   UNL A   1      38.074  34.645  32.055  1.00  0.00     0.065 H 
ATOM    102  H   UNL A   1      45.135  33.343  33.903  1.00  0.00     0.065 H 
ATOM    103  C   UNL A   1      42.394  33.587  32.984  1.00  0.00     0.037 A 
ATOM    104  H   UNL A   1      40.273  35.420  33.112  1.00  0.00     0.065 H 
BRANCH  85 105
ATOM    105  C   UNL A   1      45.934  28.654  31.843  1.00  0.00     0.064 A 
ATOM    106  C   UNL A   1      46.110  27.644  32.802  1.00  0.00     0.173 A 
ATOM    107  C   UNL A   1      47.029  28.986  31.032  1.00  0.00     0.173 A 
ATOM    108  F   UNL A   1      45.097  27.298  33.610  1.00  0.00    -0.203 F 
ATOM    109  C   UNL A   1      47.341  27.013  32.961  1.00  0.00     0.198 A 
ATOM    110  C   UNL A   1      48.252  28.333  31.174  1.00  0.00     0.198 A 
ATOM    111  F   UNL A   1      46.914  29.939  30.095  1.00  0.00    -0.203 F 
ATOM    112  F   UNL A   1      47.498  26.086  33.915  1.00  0.00    -0.200 F 
ATOM    113  C   UNL A   1      48.408  27.353  32.143  1.00  0.00     0.200 A 
ATOM    114  F   UNL A   1      49.278  28.654  30.375  1.00  0.00    -0.200 F 
ATOM    115  F   UNL A   1      49.591  26.740  32.293  1.00  0.00    -0.200 F 
ENDBRANCH  85 105
BRANCH  88 116
ATOM    116  C   UNL A   1      36.931  32.764  30.511  1.00  0.00     0.064 A 
ATOM    117  C   UNL A   1      36.617  33.473  29.343  1.00  0.00     0.173 A 
ATOM    118  C   UNL A   1      35.943  32.662  31.500  1.00  0.00     0.173 A 
ATOM    119  F   UNL A   1      37.538  33.615  28.379  1.00  0.00    -0.203 F 
ATOM    120  C   UNL A   1      35.372  34.075  29.179  1.00  0.00     0.198 A 
ATOM    121  C   UNL A   1      34.688  33.243  31.324  1.00  0.00     0.198 A 
ATOM    122  F   UNL A   1      36.192  31.992  32.633  1.00  0.00    -0.203 F 
ATOM    123  F   UNL A   1      35.114  34.785  28.072  1.00  0.00    -0.200 F 
ATOM    124  C   UNL A   1      34.406  33.955  30.167  1.00  0.00     0.200 A 
ATOM    125  F   UNL A   1      33.753  33.114  32.275  1.00  0.00    -0.200 F 
ATOM    126  F   UNL A   1      33.208  34.533  30.009  1.00  0.00    -0.200 F 
ENDBRANCH  88 116
BRANCH 103 127
ATOM    127  C   UNL A   1      42.749  34.844  33.723  1.00  0.00     0.064 A 
ATOM    128  C   UNL A   1      42.629  34.935  35.116  1.00  0.00     0.173 A 
ATOM    129  C   UNL A   1      43.250  35.955  33.029  1.00  0.00     0.173 A 
ATOM    130  F   UNL A   1      42.139  33.905  35.822  1.00  0.00    -0.203 F 
ATOM    131  C   UNL A   1      42.977  36.105  35.788  1.00  0.00     0.198 A 
ATOM    132  C   UNL A   1      43.623  37.113  33.707  1.00  0.00     0.198 A 
ATOM    133  F   UNL A   1      43.389  35.915  31.696  1.00  0.00    -0.203 F 
ATOM    134  F   UNL A   1      42.813  36.186  37.116  1.00  0.00    -0.200 F 
ATOM    135  C   UNL A   1      43.480  37.188  35.084  1.00  0.00     0.200 A 
ATOM    136  F   UNL A   1      44.120  38.155  33.026  1.00  0.00    -0.200 F 
ATOM    137  F   UNL A   1      43.820  38.311  35.733  1.00  0.00    -0.200 F 
ENDBRANCH 103 127
ENDBRANCH  68  71
ENDBRANCH  58  61
ENDBRANCH  54  57
ENDBRANCH  51  54
ENDBRANCH  48  51
ENDBRANCH   1  48
TORSDOF 17
ENDMDL
