MODEL 1
REMARK VINA RESULT:     -12.5      0.000      0.000
REMARK SMILES O=C(CCCc1nc(-c2ccc(Cl)c(Cl)c2)c(-c2ccccc2)o1)NCCCCCCNC(=O)c1ccc(-c2c3nc(c(-c4c(F)c(F)c(F)c(F)c4F)c4ccc([nH]4)c(-c4c(F)c(F)c(F)c(F)c4F)c4nc(c(-c5c(F)c(F)c(F)c(F)c5F)c5ccc2[nH]5)C=C4)C=C3)cc1
REMARK SMILES IDX 27 1 26 4 25 7 1 8 2 9 3 11 4 14 5 17 6 20 7 21 24 22 8 23
REMARK SMILES IDX 17 24 9 25 10 26 16 27 11 28 14 30 12 32 15 34 13 35 18 36
REMARK SMILES IDX 19 37 23 38 20 39 22 41 21 43 28 47 29 50 30 53 31 56 32 59
REMARK SMILES IDX 33 60 34 62 35 63 36 64 97 65 37 66 96 68 38 70 39 73 40 74
REMARK SMILES IDX 90 75 41 76 95 77 89 78 91 79 42 80 94 81 88 83 87 85 43 87
REMARK SMILES IDX 75 90 55 91 74 92 56 93 59 94 73 95 92 96 57 97 58 99 72 101
REMARK SMILES IDX 93 102 60 105 44 107 45 108 53 109 46 110 47 111 51 112
REMARK SMILES IDX 54 113 48 114 49 115 52 116 50 117 76 118 77 119 85 120
REMARK SMILES IDX 78 121 79 122 83 123 86 124 80 125 81 126 84 127 82 128
REMARK SMILES IDX 61 129 62 130 70 131 63 132 64 133 68 134 71 135 65 136
REMARK SMILES IDX 66 137 69 138 67 139
REMARK H PARENT 27 2 27 3 26 5 26 6 25 10 3 12 3 13 4 15 4 16 5 18 5 19 10 29
REMARK H PARENT 16 31 11 33 19 40 23 42 20 44 22 45 21 46 28 48 28 49 29 51
REMARK H PARENT 29 52 30 54 30 55 31 57 31 58 32 61 36 67 97 69 37 71 96 72
REMARK H PARENT 95 82 89 84 91 86 94 88 88 89 56 98 59 100 92 103 57 104
REMARK H PARENT 93 106
REMARK Flexibility Score: inf
ROOT
ATOM      1  C   UNL A   1      36.627  23.208  25.941  1.00  0.00    -0.036 C 
ATOM      2  H   UNL A   1      36.123  22.570  26.636  1.00  0.00     0.028 H 
ATOM      3  H   UNL A   1      37.310  23.886  26.407  1.00  0.00     0.028 H 
ENDROOT
BRANCH   1   4
ATOM      4  C   UNL A   1      35.577  24.069  25.241  1.00  0.00     0.017 C 
ATOM      5  H   UNL A   1      35.243  24.827  25.920  1.00  0.00     0.049 H 
ATOM      6  H   UNL A   1      36.029  24.502  24.372  1.00  0.00     0.049 H 
BRANCH   4   7
ATOM      7  N   UNL A   1      34.437  23.290  24.812  1.00  0.00    -0.356 N 
ATOM      8  O   UNL A   1      34.979  23.282  22.582  1.00  0.00    -0.275 OA
ATOM      9  C   UNL A   1      34.236  22.945  23.498  1.00  0.00     0.220 C 
ATOM     10  H   UNL A   1      33.782  22.996  25.485  1.00  0.00     0.163 HD
BRANCH   9  11
ATOM     11  C   UNL A   1      33.007  22.092  23.264  1.00  0.00     0.027 C 
ATOM     12  H   UNL A   1      32.851  21.478  24.125  1.00  0.00     0.037 H 
ATOM     13  H   UNL A   1      33.185  21.512  22.383  1.00  0.00     0.037 H 
BRANCH  11  14
ATOM     14  C   UNL A   1      31.739  22.919  23.018  1.00  0.00    -0.036 C 
ATOM     15  H   UNL A   1      31.074  22.325  22.426  1.00  0.00     0.028 H 
ATOM     16  H   UNL A   1      32.074  23.817  22.542  1.00  0.00     0.028 H 
BRANCH  14  17
ATOM     17  C   UNL A   1      30.974  23.377  24.264  1.00  0.00     0.025 C 
ATOM     18  H   UNL A   1      31.399  22.899  25.122  1.00  0.00     0.037 H 
ATOM     19  H   UNL A   1      29.947  23.109  24.129  1.00  0.00     0.037 H 
BRANCH  17  20
ATOM     20  C   UNL A   1      31.031  24.848  24.462  1.00  0.00     0.195 A 
ATOM     21  N   UNL A   1      31.863  25.518  25.238  1.00  0.00    -0.213 NA
ATOM     22  O   UNL A   1      30.195  25.624  23.709  1.00  0.00    -0.440 OA
ATOM     23  C   UNL A   1      31.524  26.828  25.016  1.00  0.00     0.117 A 
ATOM     24  C   UNL A   1      30.540  26.905  24.051  1.00  0.00     0.162 A 
BRANCH  23  25
ATOM     25  C   UNL A   1      32.138  27.954  25.683  1.00  0.00     0.006 A 
ATOM     26  C   UNL A   1      33.402  27.824  26.264  1.00  0.00    -0.051 A 
ATOM     27  C   UNL A   1      31.482  29.193  25.724  1.00  0.00    -0.032 A 
ATOM     28  C   UNL A   1      34.023  28.932  26.848  1.00  0.00    -0.041 A 
ATOM     29  H   UNL A   1      33.879  26.908  26.261  1.00  0.00     0.063 H 
ATOM     30  C   UNL A   1      32.099  30.300  26.317  1.00  0.00     0.060 A 
ATOM     31  H   UNL A   1      30.540  29.289  25.316  1.00  0.00     0.065 H 
ATOM     32  C   UNL A   1      33.375  30.172  26.872  1.00  0.00     0.059 A 
ATOM     33  H   UNL A   1      34.963  28.835  27.263  1.00  0.00     0.064 H 
ATOM     34  Cl  UNL A   1      31.231  31.794  26.319  1.00  0.00    -0.083 Cl
ATOM     35  Cl  UNL A   1      34.210  31.502  27.593  1.00  0.00    -0.083 Cl
ENDBRANCH  23  25
BRANCH  24  36
ATOM     36  C   UNL A   1      29.889  27.985  23.338  1.00  0.00     0.020 A 
ATOM     37  C   UNL A   1      30.619  28.846  22.513  1.00  0.00    -0.051 A 
ATOM     38  C   UNL A   1      28.497  28.140  23.431  1.00  0.00    -0.051 A 
ATOM     39  C   UNL A   1      29.962  29.835  21.776  1.00  0.00    -0.062 A 
ATOM     40  H   UNL A   1      31.644  28.751  22.447  1.00  0.00     0.063 H 
ATOM     41  C   UNL A   1      27.845  29.135  22.703  1.00  0.00    -0.062 A 
ATOM     42  H   UNL A   1      27.953  27.513  24.044  1.00  0.00     0.063 H 
ATOM     43  C   UNL A   1      28.578  29.977  21.871  1.00  0.00    -0.062 A 
ATOM     44  H   UNL A   1      30.503  30.463  21.161  1.00  0.00     0.062 H 
ATOM     45  H   UNL A   1      26.822  29.244  22.780  1.00  0.00     0.062 H 
ATOM     46  H   UNL A   1      28.096  30.708  21.325  1.00  0.00     0.062 H 
ENDBRANCH  24  36
ENDBRANCH  17  20
ENDBRANCH  14  17
ENDBRANCH  11  14
ENDBRANCH   9  11
ENDBRANCH   4   7
ENDBRANCH   1   4
BRANCH   1  47
ATOM     47  C   UNL A   1      37.466  22.327  25.008  1.00  0.00    -0.052 C 
ATOM     48  H   UNL A   1      38.473  22.328  25.372  1.00  0.00     0.027 H 
ATOM     49  H   UNL A   1      37.361  22.749  24.031  1.00  0.00     0.027 H 
BRANCH  47  50
ATOM     50  C   UNL A   1      37.010  20.871  24.889  1.00  0.00    -0.052 C 
ATOM     51  H   UNL A   1      36.487  20.760  23.963  1.00  0.00     0.027 H 
ATOM     52  H   UNL A   1      36.397  20.674  25.744  1.00  0.00     0.027 H 
BRANCH  50  53
ATOM     53  C   UNL A   1      38.144  19.847  24.923  1.00  0.00    -0.036 C 
ATOM     54  H   UNL A   1      38.594  19.815  23.953  1.00  0.00     0.028 H 
ATOM     55  H   UNL A   1      37.704  18.916  25.210  1.00  0.00     0.028 H 
BRANCH  53  56
ATOM     56  C   UNL A   1      39.235  20.144  25.945  1.00  0.00     0.018 C 
ATOM     57  H   UNL A   1      38.793  20.179  26.918  1.00  0.00     0.049 H 
ATOM     58  H   UNL A   1      39.681  21.080  25.679  1.00  0.00     0.049 H 
BRANCH  56  59
ATOM     59  N   UNL A   1      40.289  19.141  25.947  1.00  0.00    -0.352 N 
ATOM     60  C   UNL A   1      41.644  19.318  26.060  1.00  0.00     0.251 C 
ATOM     61  H   UNL A   1      39.988  18.208  25.854  1.00  0.00     0.163 HD
ATOM     62  O   UNL A   1      42.412  18.373  25.882  1.00  0.00    -0.269 OA
BRANCH  60  63
ATOM     63  C   UNL A   1      42.185  20.657  26.372  1.00  0.00     0.039 A 
ATOM     64  C   UNL A   1      42.488  21.525  25.321  1.00  0.00    -0.049 A 
ATOM     65  C   UNL A   1      42.394  21.055  27.696  1.00  0.00    -0.049 A 
ATOM     66  C   UNL A   1      42.959  22.810  25.599  1.00  0.00    -0.053 A 
ATOM     67  H   UNL A   1      42.364  21.218  24.343  1.00  0.00     0.063 H 
ATOM     68  C   UNL A   1      42.786  22.362  27.973  1.00  0.00    -0.053 A 
ATOM     69  H   UNL A   1      42.259  20.382  28.466  1.00  0.00     0.063 H 
ATOM     70  C   UNL A   1      43.088  23.248  26.927  1.00  0.00    -0.014 A 
ATOM     71  H   UNL A   1      43.214  23.442  24.824  1.00  0.00     0.063 H 
ATOM     72  H   UNL A   1      42.855  22.680  28.952  1.00  0.00     0.063 H 
BRANCH  70  73
ATOM     73  C   UNL A   1      43.579  24.614  27.241  1.00  0.00     0.031 A 
ATOM     74  C   UNL A   1      42.635  25.636  27.814  1.00  0.00     0.074 A 
ATOM     75  C   UNL A   1      44.858  24.948  26.977  1.00  0.00     0.049 A 
ATOM     76  N   UNL A   1      42.847  26.898  28.094  1.00  0.00    -0.248 NA
ATOM     77  C   UNL A   1      41.258  25.188  28.082  1.00  0.00    -0.034 C 
ATOM     78  C   UNL A   1      45.859  24.060  26.384  1.00  0.00    -0.036 A 
ATOM     79  N   UNL A   1      45.532  26.128  27.166  1.00  0.00    -0.354 N 
ATOM     80  C   UNL A   1      41.637  27.388  28.569  1.00  0.00     0.074 A 
ATOM     81  C   UNL A   1      40.675  26.312  28.471  1.00  0.00    -0.034 C 
ATOM     82  H   UNL A   1      40.852  24.243  27.992  1.00  0.00     0.065 H 
ATOM     83  C   UNL A   1      47.023  24.723  26.273  1.00  0.00    -0.036 A 
ATOM     84  H   UNL A   1      45.697  23.083  26.096  1.00  0.00     0.065 H 
ATOM     85  C   UNL A   1      46.841  26.089  26.752  1.00  0.00     0.049 A 
ATOM     86  H   UNL A   1      45.115  26.929  27.561  1.00  0.00     0.167 HD
ATOM     87  C   UNL A   1      41.359  28.613  29.074  1.00  0.00     0.037 A 
ATOM     88  H   UNL A   1      39.669  26.408  28.676  1.00  0.00     0.065 H 
ATOM     89  H   UNL A   1      47.903  24.328  25.907  1.00  0.00     0.065 H 
ATOM     90  C   UNL A   1      47.783  27.051  26.754  1.00  0.00     0.037 A 
ATOM     91  C   UNL A   1      42.320  29.679  29.185  1.00  0.00     0.049 A 
ATOM     92  C   UNL A   1      47.443  28.410  27.308  1.00  0.00     0.074 A 
ATOM     93  C   UNL A   1      42.141  30.955  29.690  1.00  0.00    -0.036 A 
ATOM     94  N   UNL A   1      43.646  29.588  28.789  1.00  0.00    -0.354 N 
ATOM     95  N   UNL A   1      46.307  28.846  27.797  1.00  0.00    -0.248 NA
ATOM     96  C   UNL A   1      48.522  29.407  27.327  1.00  0.00    -0.034 C 
ATOM     97  C   UNL A   1      43.350  31.647  29.567  1.00  0.00    -0.036 A 
ATOM     98  H   UNL A   1      41.266  31.331  30.089  1.00  0.00     0.065 H 
ATOM     99  C   UNL A   1      44.297  30.785  29.039  1.00  0.00     0.049 A 
ATOM    100  H   UNL A   1      44.063  28.791  28.390  1.00  0.00     0.167 HD
ATOM    101  C   UNL A   1      46.547  30.147  28.220  1.00  0.00     0.074 A 
ATOM    102  C   UNL A   1      47.940  30.425  27.943  1.00  0.00    -0.034 C 
ATOM    103  H   UNL A   1      49.483  29.334  26.957  1.00  0.00     0.065 H 
ATOM    104  H   UNL A   1      43.509  32.634  29.828  1.00  0.00     0.065 H 
ATOM    105  C   UNL A   1      45.692  31.033  28.785  1.00  0.00     0.037 A 
ATOM    106  H   UNL A   1      48.419  31.304  28.193  1.00  0.00     0.065 H 
BRANCH  87 107
ATOM    107  C   UNL A   1      39.964  28.860  29.569  1.00  0.00     0.064 A 
ATOM    108  C   UNL A   1      38.964  29.356  28.717  1.00  0.00     0.173 A 
ATOM    109  C   UNL A   1      39.605  28.555  30.891  1.00  0.00     0.173 A 
ATOM    110  F   UNL A   1      39.258  29.676  27.448  1.00  0.00    -0.203 F 
ATOM    111  C   UNL A   1      37.666  29.558  29.174  1.00  0.00     0.198 A 
ATOM    112  C   UNL A   1      38.296  28.728  31.335  1.00  0.00     0.198 A 
ATOM    113  F   UNL A   1      40.519  28.074  31.747  1.00  0.00    -0.203 F 
ATOM    114  F   UNL A   1      36.741  30.075  28.354  1.00  0.00    -0.200 F 
ATOM    115  C   UNL A   1      37.330  29.236  30.480  1.00  0.00     0.200 A 
ATOM    116  F   UNL A   1      37.969  28.402  32.595  1.00  0.00    -0.200 F 
ATOM    117  F   UNL A   1      36.076  29.418  30.916  1.00  0.00    -0.200 F 
ENDBRANCH  87 107
BRANCH  90 118
ATOM    118  C   UNL A   1      49.147  26.770  26.226  1.00  0.00     0.064 A 
ATOM    119  C   UNL A   1      49.475  27.039  24.888  1.00  0.00     0.173 A 
ATOM    120  C   UNL A   1      50.133  26.186  27.033  1.00  0.00     0.173 A 
ATOM    121  F   UNL A   1      48.560  27.581  24.071  1.00  0.00    -0.203 F 
ATOM    122  C   UNL A   1      50.720  26.694  24.368  1.00  0.00     0.198 A 
ATOM    123  C   UNL A   1      51.391  25.873  26.519  1.00  0.00     0.198 A 
ATOM    124  F   UNL A   1      49.875  25.915  28.320  1.00  0.00    -0.203 F 
ATOM    125  F   UNL A   1      50.981  26.895  23.070  1.00  0.00    -0.200 F 
ATOM    126  C   UNL A   1      51.679  26.112  25.185  1.00  0.00     0.200 A 
ATOM    127  F   UNL A   1      52.320  25.327  27.317  1.00  0.00    -0.200 F 
ATOM    128  F   UNL A   1      52.873  25.772  24.683  1.00  0.00    -0.200 F 
ENDBRANCH  90 118
BRANCH 105 129
ATOM    129  C   UNL A   1      46.255  32.359  29.212  1.00  0.00     0.064 A 
ATOM    130  C   UNL A   1      46.797  32.561  30.490  1.00  0.00     0.173 A 
ATOM    131  C   UNL A   1      46.273  33.438  28.313  1.00  0.00     0.173 A 
ATOM    132  F   UNL A   1      46.793  31.566  31.389  1.00  0.00    -0.203 F 
ATOM    133  C   UNL A   1      47.302  33.803  30.864  1.00  0.00     0.198 A 
ATOM    134  C   UNL A   1      46.811  34.668  28.680  1.00  0.00     0.198 A 
ATOM    135  F   UNL A   1      45.776  33.296  27.075  1.00  0.00    -0.203 F 
ATOM    136  F   UNL A   1      47.760  33.989  32.110  1.00  0.00    -0.200 F 
ATOM    137  C   UNL A   1      47.314  34.853  29.958  1.00  0.00     0.200 A 
ATOM    138  F   UNL A   1      46.837  35.676  27.797  1.00  0.00    -0.200 F 
ATOM    139  F   UNL A   1      47.804  36.047  30.320  1.00  0.00    -0.200 F 
ENDBRANCH 105 129
ENDBRANCH  70  73
ENDBRANCH  60  63
ENDBRANCH  56  59
ENDBRANCH  53  56
ENDBRANCH  50  53
ENDBRANCH  47  50
ENDBRANCH   1  47
TORSDOF 18
ENDMDL
MODEL 2
REMARK VINA RESULT:     -12.3      1.936      7.604
REMARK SMILES O=C(CCCc1nc(-c2ccc(Cl)c(Cl)c2)c(-c2ccccc2)o1)NCCCCCCNC(=O)c1ccc(-c2c3nc(c(-c4c(F)c(F)c(F)c(F)c4F)c4ccc([nH]4)c(-c4c(F)c(F)c(F)c(F)c4F)c4nc(c(-c5c(F)c(F)c(F)c(F)c5F)c5ccc2[nH]5)C=C4)C=C3)cc1
REMARK SMILES IDX 27 1 26 4 25 7 1 8 2 9 3 11 4 14 5 17 6 20 7 21 24 22 8 23
REMARK SMILES IDX 17 24 9 25 10 26 16 27 11 28 14 30 12 32 15 34 13 35 18 36
REMARK SMILES IDX 19 37 23 38 20 39 22 41 21 43 28 47 29 50 30 53 31 56 32 59
REMARK SMILES IDX 33 60 34 62 35 63 36 64 97 65 37 66 96 68 38 70 39 73 40 74
REMARK SMILES IDX 90 75 41 76 95 77 89 78 91 79 42 80 94 81 88 83 87 85 43 87
REMARK SMILES IDX 75 90 55 91 74 92 56 93 59 94 73 95 92 96 57 97 58 99 72 101
REMARK SMILES IDX 93 102 60 105 44 107 45 108 53 109 46 110 47 111 51 112
REMARK SMILES IDX 54 113 48 114 49 115 52 116 50 117 76 118 77 119 85 120
REMARK SMILES IDX 78 121 79 122 83 123 86 124 80 125 81 126 84 127 82 128
REMARK SMILES IDX 61 129 62 130 70 131 63 132 64 133 68 134 71 135 65 136
REMARK SMILES IDX 66 137 69 138 67 139
REMARK H PARENT 27 2 27 3 26 5 26 6 25 10 3 12 3 13 4 15 4 16 5 18 5 19 10 29
REMARK H PARENT 16 31 11 33 19 40 23 42 20 44 22 45 21 46 28 48 28 49 29 51
REMARK H PARENT 29 52 30 54 30 55 31 57 31 58 32 61 36 67 97 69 37 71 96 72
REMARK H PARENT 95 82 89 84 91 86 94 88 88 89 56 98 59 100 92 103 57 104
REMARK H PARENT 93 106
REMARK Flexibility Score: inf
ROOT
ATOM      1  C   UNL A   1      39.549  22.338  26.629  1.00  0.00    -0.036 C 
ATOM      2  H   UNL A   1      39.081  22.784  27.481  1.00  0.00     0.028 H 
ATOM      3  H   UNL A   1      40.092  23.038  26.029  1.00  0.00     0.028 H 
ENDROOT
BRANCH   1   4
ATOM      4  C   UNL A   1      38.454  21.763  25.732  1.00  0.00     0.017 C 
ATOM      5  H   UNL A   1      38.621  22.092  24.728  1.00  0.00     0.049 H 
ATOM      6  H   UNL A   1      38.495  20.695  25.801  1.00  0.00     0.049 H 
BRANCH   4   7
ATOM      7  N   UNL A   1      37.136  22.188  26.150  1.00  0.00    -0.356 N 
ATOM      8  O   UNL A   1      35.997  20.487  25.111  1.00  0.00    -0.275 OA
ATOM      9  C   UNL A   1      35.999  21.496  25.810  1.00  0.00     0.220 C 
ATOM     10  H   UNL A   1      37.050  23.001  26.697  1.00  0.00     0.163 HD
BRANCH   9  11
ATOM     11  C   UNL A   1      34.725  22.082  26.380  1.00  0.00     0.027 C 
ATOM     12  H   UNL A   1      34.841  22.180  27.439  1.00  0.00     0.037 H 
ATOM     13  H   UNL A   1      33.927  21.418  26.123  1.00  0.00     0.037 H 
BRANCH  11  14
ATOM     14  C   UNL A   1      34.381  23.458  25.797  1.00  0.00    -0.036 C 
ATOM     15  H   UNL A   1      35.156  23.721  25.108  1.00  0.00     0.028 H 
ATOM     16  H   UNL A   1      34.298  24.111  26.641  1.00  0.00     0.028 H 
BRANCH  14  17
ATOM     17  C   UNL A   1      33.042  23.568  25.061  1.00  0.00     0.025 C 
ATOM     18  H   UNL A   1      32.295  23.057  25.631  1.00  0.00     0.037 H 
ATOM     19  H   UNL A   1      33.169  23.132  24.092  1.00  0.00     0.037 H 
BRANCH  17  20
ATOM     20  C   UNL A   1      32.610  24.976  24.867  1.00  0.00     0.195 A 
ATOM     21  N   UNL A   1      31.669  25.418  24.054  1.00  0.00    -0.213 NA
ATOM     22  O   UNL A   1      33.178  25.931  25.665  1.00  0.00    -0.440 OA
ATOM     23  C   UNL A   1      31.642  26.768  24.298  1.00  0.00     0.117 A 
ATOM     24  C   UNL A   1      32.525  27.083  25.311  1.00  0.00     0.162 A 
BRANCH  23  25
ATOM     25  C   UNL A   1      30.786  27.705  23.607  1.00  0.00     0.006 A 
ATOM     26  C   UNL A   1      31.335  28.646  22.731  1.00  0.00    -0.051 A 
ATOM     27  C   UNL A   1      29.396  27.656  23.786  1.00  0.00    -0.032 A 
ATOM     28  C   UNL A   1      30.499  29.506  22.013  1.00  0.00    -0.041 A 
ATOM     29  H   UNL A   1      32.359  28.706  22.615  1.00  0.00     0.063 H 
ATOM     30  C   UNL A   1      28.560  28.522  23.075  1.00  0.00     0.060 A 
ATOM     31  H   UNL A   1      28.988  26.977  24.447  1.00  0.00     0.065 H 
ATOM     32  C   UNL A   1      29.111  29.443  22.179  1.00  0.00     0.059 A 
ATOM     33  H   UNL A   1      30.907  30.191  21.357  1.00  0.00     0.064 H 
ATOM     34  Cl  UNL A   1      26.858  28.393  23.343  1.00  0.00    -0.083 Cl
ATOM     35  Cl  UNL A   1      28.139  30.523  21.244  1.00  0.00    -0.083 Cl
ENDBRANCH  23  25
BRANCH  24  36
ATOM     36  C   UNL A   1      32.835  28.282  26.061  1.00  0.00     0.020 A 
ATOM     37  C   UNL A   1      34.135  28.535  26.509  1.00  0.00    -0.051 A 
ATOM     38  C   UNL A   1      31.832  29.234  26.298  1.00  0.00    -0.051 A 
ATOM     39  C   UNL A   1      34.430  29.733  27.167  1.00  0.00    -0.062 A 
ATOM     40  H   UNL A   1      34.879  27.838  26.354  1.00  0.00     0.063 H 
ATOM     41  C   UNL A   1      32.125  30.424  26.964  1.00  0.00    -0.062 A 
ATOM     42  H   UNL A   1      30.868  29.051  25.976  1.00  0.00     0.063 H 
ATOM     43  C   UNL A   1      33.426  30.675  27.392  1.00  0.00    -0.062 A 
ATOM     44  H   UNL A   1      35.393  29.920  27.488  1.00  0.00     0.062 H 
ATOM     45  H   UNL A   1      31.380  31.116  27.137  1.00  0.00     0.062 H 
ATOM     46  H   UNL A   1      33.647  31.558  27.877  1.00  0.00     0.062 H 
ENDBRANCH  24  36
ENDBRANCH  17  20
ENDBRANCH  14  17
ENDBRANCH  11  14
ENDBRANCH   9  11
ENDBRANCH   4   7
ENDBRANCH   1   4
BRANCH   1  47
ATOM     47  C   UNL A   1      40.577  21.316  27.130  1.00  0.00    -0.052 C 
ATOM     48  H   UNL A   1      40.055  20.410  27.361  1.00  0.00     0.027 H 
ATOM     49  H   UNL A   1      41.052  21.767  27.975  1.00  0.00     0.027 H 
BRANCH  47  50
ATOM     50  C   UNL A   1      41.699  20.975  26.148  1.00  0.00    -0.052 C 
ATOM     51  H   UNL A   1      42.628  21.280  26.583  1.00  0.00     0.027 H 
ATOM     52  H   UNL A   1      41.474  21.491  25.237  1.00  0.00     0.027 H 
BRANCH  50  53
ATOM     53  C   UNL A   1      41.803  19.492  25.792  1.00  0.00    -0.036 C 
ATOM     54  H   UNL A   1      41.667  19.393  24.735  1.00  0.00     0.028 H 
ATOM     55  H   UNL A   1      41.048  18.990  26.360  1.00  0.00     0.028 H 
BRANCH  53  56
ATOM     56  C   UNL A   1      43.130  18.843  26.165  1.00  0.00     0.018 C 
ATOM     57  H   UNL A   1      42.932  17.901  26.632  1.00  0.00     0.049 H 
ATOM     58  H   UNL A   1      43.643  19.512  26.826  1.00  0.00     0.049 H 
BRANCH  56  59
ATOM     59  N   UNL A   1      43.988  18.621  25.012  1.00  0.00    -0.352 N 
ATOM     60  C   UNL A   1      44.707  19.536  24.285  1.00  0.00     0.251 C 
ATOM     61  H   UNL A   1      44.064  17.686  24.711  1.00  0.00     0.163 HD
ATOM     62  O   UNL A   1      45.257  19.204  23.237  1.00  0.00    -0.269 OA
BRANCH  60  63
ATOM     63  C   UNL A   1      44.797  20.934  24.754  1.00  0.00     0.039 A 
ATOM     64  C   UNL A   1      45.325  21.190  26.021  1.00  0.00    -0.049 A 
ATOM     65  C   UNL A   1      44.360  21.990  23.948  1.00  0.00    -0.049 A 
ATOM     66  C   UNL A   1      45.458  22.508  26.463  1.00  0.00    -0.053 A 
ATOM     67  H   UNL A   1      45.617  20.407  26.629  1.00  0.00     0.063 H 
ATOM     68  C   UNL A   1      44.567  23.305  24.356  1.00  0.00    -0.053 A 
ATOM     69  H   UNL A   1      43.885  21.795  23.054  1.00  0.00     0.063 H 
ATOM     70  C   UNL A   1      45.103  23.577  25.624  1.00  0.00    -0.014 A 
ATOM     71  H   UNL A   1      45.818  22.697  27.411  1.00  0.00     0.063 H 
ATOM     72  H   UNL A   1      44.325  24.083  23.723  1.00  0.00     0.063 H 
BRANCH  70  73
ATOM     73  C   UNL A   1      45.245  24.986  26.074  1.00  0.00     0.031 A 
ATOM     74  C   UNL A   1      46.592  25.657  26.022  1.00  0.00     0.074 A 
ATOM     75  C   UNL A   1      44.178  25.647  26.564  1.00  0.00     0.049 A 
ATOM     76  N   UNL A   1      46.940  26.853  26.428  1.00  0.00    -0.248 NA
ATOM     77  C   UNL A   1      47.703  24.868  25.463  1.00  0.00    -0.034 C 
ATOM     78  C   UNL A   1      42.831  25.094  26.707  1.00  0.00    -0.036 A 
ATOM     79  N   UNL A   1      44.063  26.928  27.043  1.00  0.00    -0.354 N 
ATOM     80  C   UNL A   1      48.301  26.956  26.173  1.00  0.00     0.074 A 
ATOM     81  C   UNL A   1      48.733  25.679  25.647  1.00  0.00    -0.034 C 
ATOM     82  H   UNL A   1      47.683  23.928  25.038  1.00  0.00     0.065 H 
ATOM     83  C   UNL A   1      42.022  26.035  27.221  1.00  0.00    -0.036 A 
ATOM     84  H   UNL A   1      42.548  24.134  26.453  1.00  0.00     0.065 H 
ATOM     85  C   UNL A   1      42.799  27.243  27.478  1.00  0.00     0.049 A 
ATOM     86  H   UNL A   1      44.816  27.563  27.073  1.00  0.00     0.167 HD
ATOM     87  C   UNL A   1      49.113  28.028  26.330  1.00  0.00     0.037 A 
ATOM     88  H   UNL A   1      49.714  25.434  25.443  1.00  0.00     0.065 H 
ATOM     89  H   UNL A   1      41.013  25.921  27.405  1.00  0.00     0.065 H 
ATOM     90  C   UNL A   1      42.325  28.377  28.029  1.00  0.00     0.037 A 
ATOM     91  C   UNL A   1      48.681  29.302  26.840  1.00  0.00     0.049 A 
ATOM     92  C   UNL A   1      43.254  29.550  28.206  1.00  0.00     0.074 A 
ATOM     93  C   UNL A   1      49.423  30.455  27.030  1.00  0.00    -0.036 A 
ATOM     94  N   UNL A   1      47.383  29.593  27.235  1.00  0.00    -0.354 N 
ATOM     95  N   UNL A   1      44.529  29.650  27.918  1.00  0.00    -0.248 NA
ATOM     96  C   UNL A   1      42.672  30.776  28.770  1.00  0.00    -0.034 C 
ATOM     97  C   UNL A   1      48.582  31.431  27.573  1.00  0.00    -0.036 A 
ATOM     98  H   UNL A   1      50.424  30.573  26.809  1.00  0.00     0.065 H 
ATOM     99  C   UNL A   1      47.304  30.906  27.668  1.00  0.00     0.049 A 
ATOM    100  H   UNL A   1      46.630  28.959  27.212  1.00  0.00     0.167 HD
ATOM    101  C   UNL A   1      44.889  30.956  28.223  1.00  0.00     0.074 A 
ATOM    102  C   UNL A   1      43.695  31.616  28.705  1.00  0.00    -0.034 C 
ATOM    103  H   UNL A   1      41.716  30.941  29.124  1.00  0.00     0.065 H 
ATOM    104  H   UNL A   1      48.867  32.383  27.854  1.00  0.00     0.065 H 
ATOM    105  C   UNL A   1      46.099  31.556  28.115  1.00  0.00     0.037 A 
ATOM    106  H   UNL A   1      43.646  32.613  28.965  1.00  0.00     0.065 H 
BRANCH  87 107
ATOM    107  C   UNL A   1      50.550  27.877  25.922  1.00  0.00     0.064 A 
ATOM    108  C   UNL A   1      51.557  27.640  26.873  1.00  0.00     0.173 A 
ATOM    109  C   UNL A   1      50.923  27.919  24.571  1.00  0.00     0.173 A 
ATOM    110  F   UNL A   1      51.256  27.602  28.179  1.00  0.00    -0.203 F 
ATOM    111  C   UNL A   1      52.883  27.474  26.486  1.00  0.00     0.198 A 
ATOM    112  C   UNL A   1      52.246  27.721  24.186  1.00  0.00     0.198 A 
ATOM    113  F   UNL A   1      50.001  28.138  23.621  1.00  0.00    -0.203 F 
ATOM    114  F   UNL A   1      53.833  27.294  27.415  1.00  0.00    -0.200 F 
ATOM    115  C   UNL A   1      53.226  27.506  25.143  1.00  0.00     0.200 A 
ATOM    116  F   UNL A   1      52.575  27.737  22.886  1.00  0.00    -0.200 F 
ATOM    117  F   UNL A   1      54.502  27.332  24.772  1.00  0.00    -0.200 F 
ENDBRANCH  87 107
BRANCH  90 118
ATOM    118  C   UNL A   1      40.899  28.473  28.446  1.00  0.00     0.064 A 
ATOM    119  C   UNL A   1      39.920  28.971  27.572  1.00  0.00     0.173 A 
ATOM    120  C   UNL A   1      40.492  28.114  29.739  1.00  0.00     0.173 A 
ATOM    121  F   UNL A   1      40.261  29.345  26.329  1.00  0.00    -0.203 F 
ATOM    122  C   UNL A   1      38.603  29.147  27.989  1.00  0.00     0.198 A 
ATOM    123  C   UNL A   1      39.166  28.258  30.143  1.00  0.00     0.198 A 
ATOM    124  F   UNL A   1      41.385  27.626  30.613  1.00  0.00    -0.203 F 
ATOM    125  F   UNL A   1      37.706  29.692  27.156  1.00  0.00    -0.200 F 
ATOM    126  C   UNL A   1      38.226  28.788  29.274  1.00  0.00     0.200 A 
ATOM    127  F   UNL A   1      38.803  27.895  31.381  1.00  0.00    -0.200 F 
ATOM    128  F   UNL A   1      36.961  28.966  29.678  1.00  0.00    -0.200 F 
ENDBRANCH  90 118
BRANCH 105 129
ATOM    129  C   UNL A   1      46.178  33.017  28.453  1.00  0.00     0.064 A 
ATOM    130  C   UNL A   1      46.475  33.466  29.748  1.00  0.00     0.173 A 
ATOM    131  C   UNL A   1      45.976  33.982  27.454  1.00  0.00     0.173 A 
ATOM    132  F   UNL A   1      46.665  32.585  30.742  1.00  0.00    -0.203 F 
ATOM    133  C   UNL A   1      46.530  34.827  30.038  1.00  0.00     0.198 A 
ATOM    134  C   UNL A   1      46.067  35.341  27.740  1.00  0.00     0.198 A 
ATOM    135  F   UNL A   1      45.699  33.607  26.196  1.00  0.00    -0.203 F 
ATOM    136  F   UNL A   1      46.756  35.233  31.295  1.00  0.00    -0.200 F 
ATOM    137  C   UNL A   1      46.332  35.763  29.033  1.00  0.00     0.200 A 
ATOM    138  F   UNL A   1      45.893  36.243  26.763  1.00  0.00    -0.200 F 
ATOM    139  F   UNL A   1      46.390  37.072  29.314  1.00  0.00    -0.200 F 
ENDBRANCH 105 129
ENDBRANCH  70  73
ENDBRANCH  60  63
ENDBRANCH  56  59
ENDBRANCH  53  56
ENDBRANCH  50  53
ENDBRANCH  47  50
ENDBRANCH   1  47
TORSDOF 18
ENDMDL
MODEL 3
REMARK VINA RESULT:     -12.3      1.289      7.447
REMARK SMILES O=C(CCCc1nc(-c2ccc(Cl)c(Cl)c2)c(-c2ccccc2)o1)NCCCCCCNC(=O)c1ccc(-c2c3nc(c(-c4c(F)c(F)c(F)c(F)c4F)c4ccc([nH]4)c(-c4c(F)c(F)c(F)c(F)c4F)c4nc(c(-c5c(F)c(F)c(F)c(F)c5F)c5ccc2[nH]5)C=C4)C=C3)cc1
REMARK SMILES IDX 27 1 26 4 25 7 1 8 2 9 3 11 4 14 5 17 6 20 7 21 24 22 8 23
REMARK SMILES IDX 17 24 9 25 10 26 16 27 11 28 14 30 12 32 15 34 13 35 18 36
REMARK SMILES IDX 19 37 23 38 20 39 22 41 21 43 28 47 29 50 30 53 31 56 32 59
REMARK SMILES IDX 33 60 34 62 35 63 36 64 97 65 37 66 96 68 38 70 39 73 40 74
REMARK SMILES IDX 90 75 41 76 95 77 89 78 91 79 42 80 94 81 88 83 87 85 43 87
REMARK SMILES IDX 75 90 55 91 74 92 56 93 59 94 73 95 92 96 57 97 58 99 72 101
REMARK SMILES IDX 93 102 60 105 44 107 45 108 53 109 46 110 47 111 51 112
REMARK SMILES IDX 54 113 48 114 49 115 52 116 50 117 76 118 77 119 85 120
REMARK SMILES IDX 78 121 79 122 83 123 86 124 80 125 81 126 84 127 82 128
REMARK SMILES IDX 61 129 62 130 70 131 63 132 64 133 68 134 71 135 65 136
REMARK SMILES IDX 66 137 69 138 67 139
REMARK H PARENT 27 2 27 3 26 5 26 6 25 10 3 12 3 13 4 15 4 16 5 18 5 19 10 29
REMARK H PARENT 16 31 11 33 19 40 23 42 20 44 22 45 21 46 28 48 28 49 29 51
REMARK H PARENT 29 52 30 54 30 55 31 57 31 58 32 61 36 67 97 69 37 71 96 72
REMARK H PARENT 95 82 89 84 91 86 94 88 88 89 56 98 59 100 92 103 57 104
REMARK H PARENT 93 106
REMARK Flexibility Score: inf
ROOT
ATOM      1  C   UNL A   1      36.897  23.290  26.103  1.00  0.00    -0.036 C 
ATOM      2  H   UNL A   1      36.519  22.674  26.891  1.00  0.00     0.028 H 
ATOM      3  H   UNL A   1      37.506  24.098  26.451  1.00  0.00     0.028 H 
ENDROOT
BRANCH   1   4
ATOM      4  C   UNL A   1      35.708  23.927  25.386  1.00  0.00     0.017 C 
ATOM      5  H   UNL A   1      35.250  24.639  26.042  1.00  0.00     0.049 H 
ATOM      6  H   UNL A   1      36.071  24.399  24.497  1.00  0.00     0.049 H 
BRANCH   4   7
ATOM      7  N   UNL A   1      34.720  22.944  24.999  1.00  0.00    -0.356 N 
ATOM      8  O   UNL A   1      35.149  23.048  22.747  1.00  0.00    -0.275 OA
ATOM      9  C   UNL A   1      34.528  22.571  23.692  1.00  0.00     0.220 C 
ATOM     10  H   UNL A   1      34.166  22.528  25.698  1.00  0.00     0.163 HD
BRANCH   9  11
ATOM     11  C   UNL A   1      33.476  21.499  23.504  1.00  0.00     0.027 C 
ATOM     12  H   UNL A   1      33.385  20.948  24.416  1.00  0.00     0.037 H 
ATOM     13  H   UNL A   1      33.794  20.880  22.691  1.00  0.00     0.037 H 
BRANCH  11  14
ATOM     14  C   UNL A   1      32.099  22.064  23.135  1.00  0.00    -0.036 C 
ATOM     15  H   UNL A   1      31.532  21.273  22.692  1.00  0.00     0.028 H 
ATOM     16  H   UNL A   1      32.296  22.888  22.481  1.00  0.00     0.028 H 
BRANCH  14  17
ATOM     17  C   UNL A   1      31.273  22.645  24.287  1.00  0.00     0.025 C 
ATOM     18  H   UNL A   1      31.704  22.325  25.213  1.00  0.00     0.037 H 
ATOM     19  H   UNL A   1      30.269  22.292  24.175  1.00  0.00     0.037 H 
BRANCH  17  20
ATOM     20  C   UNL A   1      31.231  24.129  24.270  1.00  0.00     0.195 A 
ATOM     21  N   UNL A   1      30.433  24.898  23.553  1.00  0.00    -0.213 NA
ATOM     22  O   UNL A   1      32.043  24.798  25.145  1.00  0.00    -0.440 OA
ATOM     23  C   UNL A   1      30.771  26.168  23.948  1.00  0.00     0.117 A 
ATOM     24  C   UNL A   1      31.718  26.115  24.951  1.00  0.00     0.162 A 
BRANCH  23  25
ATOM     25  C   UNL A   1      30.188  27.374  23.404  1.00  0.00     0.006 A 
ATOM     26  C   UNL A   1      30.989  28.301  22.730  1.00  0.00    -0.051 A 
ATOM     27  C   UNL A   1      28.811  27.607  23.520  1.00  0.00    -0.032 A 
ATOM     28  C   UNL A   1      30.412  29.432  22.146  1.00  0.00    -0.041 A 
ATOM     29  H   UNL A   1      32.009  28.149  22.665  1.00  0.00     0.063 H 
ATOM     30  C   UNL A   1      28.234  28.743  22.945  1.00  0.00     0.060 A 
ATOM     31  H   UNL A   1      28.219  26.936  24.035  1.00  0.00     0.065 H 
ATOM     32  C   UNL A   1      29.034  29.653  22.248  1.00  0.00     0.059 A 
ATOM     33  H   UNL A   1      31.005  30.107  21.638  1.00  0.00     0.064 H 
ATOM     34  Cl  UNL A   1      26.529  28.954  23.123  1.00  0.00    -0.083 Cl
ATOM     35  Cl  UNL A   1      28.387  31.062  21.485  1.00  0.00    -0.083 Cl
ENDBRANCH  23  25
BRANCH  24  36
ATOM     36  C   UNL A   1      32.347  27.092  25.816  1.00  0.00     0.020 A 
ATOM     37  C   UNL A   1      33.710  27.380  25.704  1.00  0.00    -0.051 A 
ATOM     38  C   UNL A   1      31.571  27.800  26.745  1.00  0.00    -0.051 A 
ATOM     39  C   UNL A   1      34.283  28.378  26.497  1.00  0.00    -0.062 A 
ATOM     40  H   UNL A   1      34.295  26.857  25.034  1.00  0.00     0.063 H 
ATOM     41  C   UNL A   1      32.146  28.788  27.544  1.00  0.00    -0.062 A 
ATOM     42  H   UNL A   1      30.565  27.587  26.839  1.00  0.00     0.063 H 
ATOM     43  C   UNL A   1      33.501  29.080  27.414  1.00  0.00    -0.062 A 
ATOM     44  H   UNL A   1      35.288  28.595  26.405  1.00  0.00     0.062 H 
ATOM     45  H   UNL A   1      31.569  29.302  28.227  1.00  0.00     0.062 H 
ATOM     46  H   UNL A   1      33.928  29.817  27.998  1.00  0.00     0.062 H 
ENDBRANCH  24  36
ENDBRANCH  17  20
ENDBRANCH  14  17
ENDBRANCH  11  14
ENDBRANCH   9  11
ENDBRANCH   4   7
ENDBRANCH   1   4
BRANCH   1  47
ATOM     47  C   UNL A   1      37.800  22.425  25.214  1.00  0.00    -0.052 C 
ATOM     48  H   UNL A   1      38.773  22.399  25.660  1.00  0.00     0.027 H 
ATOM     49  H   UNL A   1      37.781  22.880  24.246  1.00  0.00     0.027 H 
BRANCH  47  50
ATOM     50  C   UNL A   1      37.336  20.982  25.011  1.00  0.00    -0.052 C 
ATOM     51  H   UNL A   1      36.800  20.930  24.087  1.00  0.00     0.027 H 
ATOM     52  H   UNL A   1      36.733  20.733  25.860  1.00  0.00     0.027 H 
BRANCH  50  53
ATOM     53  C   UNL A   1      38.465  19.953  24.965  1.00  0.00    -0.036 C 
ATOM     54  H   UNL A   1      39.117  20.208  24.156  1.00  0.00     0.028 H 
ATOM     55  H   UNL A   1      38.001  18.997  24.843  1.00  0.00     0.028 H 
BRANCH  53  56
ATOM     56  C   UNL A   1      39.298  19.871  26.239  1.00  0.00     0.018 C 
ATOM     57  H   UNL A   1      38.678  19.506  27.031  1.00  0.00     0.049 H 
ATOM     58  H   UNL A   1      39.668  20.853  26.447  1.00  0.00     0.049 H 
BRANCH  56  59
ATOM     59  N   UNL A   1      40.446  18.988  26.102  1.00  0.00    -0.352 N 
ATOM     60  C   UNL A   1      41.779  19.310  26.067  1.00  0.00     0.251 C 
ATOM     61  H   UNL A   1      40.239  18.029  26.023  1.00  0.00     0.163 HD
ATOM     62  O   UNL A   1      42.618  18.457  25.784  1.00  0.00    -0.269 OA
BRANCH  60  63
ATOM     63  C   UNL A   1      42.205  20.697  26.346  1.00  0.00     0.039 A 
ATOM     64  C   UNL A   1      42.295  21.602  25.286  1.00  0.00    -0.049 A 
ATOM     65  C   UNL A   1      42.516  21.105  27.646  1.00  0.00    -0.049 A 
ATOM     66  C   UNL A   1      42.655  22.929  25.537  1.00  0.00    -0.053 A 
ATOM     67  H   UNL A   1      42.098  21.293  24.320  1.00  0.00     0.063 H 
ATOM     68  C   UNL A   1      42.794  22.444  27.906  1.00  0.00    -0.053 A 
ATOM     69  H   UNL A   1      42.539  20.414  28.412  1.00  0.00     0.063 H 
ATOM     70  C   UNL A   1      42.882  23.366  26.852  1.00  0.00    -0.014 A 
ATOM     71  H   UNL A   1      42.753  23.591  24.752  1.00  0.00     0.063 H 
ATOM     72  H   UNL A   1      42.936  22.759  28.877  1.00  0.00     0.063 H 
BRANCH  70  73
ATOM     73  C   UNL A   1      43.257  24.775  27.139  1.00  0.00     0.031 A 
ATOM     74  C   UNL A   1      44.662  25.245  26.874  1.00  0.00     0.074 A 
ATOM     75  C   UNL A   1      42.351  25.618  27.672  1.00  0.00     0.049 A 
ATOM     76  N   UNL A   1      45.207  26.411  27.117  1.00  0.00    -0.248 NA
ATOM     77  C   UNL A   1      45.587  24.264  26.282  1.00  0.00    -0.034 C 
ATOM     78  C   UNL A   1      40.970  25.272  28.013  1.00  0.00    -0.036 A 
ATOM     79  N   UNL A   1      42.459  26.939  28.028  1.00  0.00    -0.354 N 
ATOM     80  C   UNL A   1      46.530  26.301  26.709  1.00  0.00     0.074 A 
ATOM     81  C   UNL A   1      46.728  24.937  26.271  1.00  0.00    -0.034 C 
ATOM     82  H   UNL A   1      45.396  23.303  25.958  1.00  0.00     0.065 H 
ATOM     83  C   UNL A   1      40.356  26.356  28.514  1.00  0.00    -0.036 A 
ATOM     84  H   UNL A   1      40.538  24.342  27.890  1.00  0.00     0.065 H 
ATOM     85  C   UNL A   1      41.307  27.462  28.563  1.00  0.00     0.049 A 
ATOM     86  H   UNL A   1      43.286  27.462  27.912  1.00  0.00     0.167 HD
ATOM     87  C   UNL A   1      47.486  27.260  26.668  1.00  0.00     0.037 A 
ATOM     88  H   UNL A   1      47.638  24.540  25.988  1.00  0.00     0.065 H 
ATOM     89  H   UNL A   1      39.370  26.400  28.816  1.00  0.00     0.065 H 
ATOM     90  C   UNL A   1      41.052  28.694  29.044  1.00  0.00     0.037 A 
ATOM     91  C   UNL A   1      47.285  28.620  27.090  1.00  0.00     0.049 A 
ATOM     92  C   UNL A   1      42.139  29.737  29.001  1.00  0.00     0.074 A 
ATOM     93  C   UNL A   1      48.187  29.670  27.082  1.00  0.00    -0.036 A 
ATOM     94  N   UNL A   1      46.092  29.122  27.591  1.00  0.00    -0.354 N 
ATOM     95  N   UNL A   1      43.373  29.633  28.568  1.00  0.00    -0.248 NA
ATOM     96  C   UNL A   1      41.792  31.076  29.497  1.00  0.00    -0.034 C 
ATOM     97  C   UNL A   1      47.550  30.797  27.610  1.00  0.00    -0.036 A 
ATOM     98  H   UNL A   1      49.161  29.629  26.744  1.00  0.00     0.065 H 
ATOM     99  C   UNL A   1      46.235  30.465  27.895  1.00  0.00     0.049 A 
ATOM    100  H   UNL A   1      45.267  28.599  27.713  1.00  0.00     0.167 HD
ATOM    101  C   UNL A   1      43.931  30.898  28.699  1.00  0.00     0.074 A 
ATOM    102  C   UNL A   1      42.898  31.757  29.238  1.00  0.00    -0.034 C 
ATOM    103  H   UNL A   1      40.915  31.402  29.934  1.00  0.00     0.065 H 
ATOM    104  H   UNL A   1      47.986  31.721  27.762  1.00  0.00     0.065 H 
ATOM    105  C   UNL A   1      45.187  31.312  28.402  1.00  0.00     0.037 A 
ATOM    106  H   UNL A   1      43.009  32.769  29.400  1.00  0.00     0.065 H 
BRANCH  87 107
ATOM    107  C   UNL A   1      48.832  26.875  26.126  1.00  0.00     0.064 A 
ATOM    108  C   UNL A   1      49.142  27.033  24.765  1.00  0.00     0.173 A 
ATOM    109  C   UNL A   1      49.838  26.391  26.974  1.00  0.00     0.173 A 
ATOM    110  F   UNL A   1      48.212  27.481  23.909  1.00  0.00    -0.203 F 
ATOM    111  C   UNL A   1      50.400  26.700  24.272  1.00  0.00     0.198 A 
ATOM    112  C   UNL A   1      51.106  26.089  26.483  1.00  0.00     0.198 A 
ATOM    113  F   UNL A   1      49.597  26.225  28.284  1.00  0.00    -0.203 F 
ATOM    114  F   UNL A   1      50.658  26.817  22.962  1.00  0.00    -0.200 F 
ATOM    115  C   UNL A   1      51.384  26.237  25.133  1.00  0.00     0.200 A 
ATOM    116  F   UNL A   1      52.061  25.654  27.319  1.00  0.00    -0.200 F 
ATOM    117  F   UNL A   1      52.600  25.929  24.659  1.00  0.00    -0.200 F 
ENDBRANCH  87 107
BRANCH  90 118
ATOM    118  C   UNL A   1      39.711  29.023  29.600  1.00  0.00     0.064 A 
ATOM    119  C   UNL A   1      39.422  28.828  30.959  1.00  0.00     0.173 A 
ATOM    120  C   UNL A   1      38.678  29.494  28.777  1.00  0.00     0.173 A 
ATOM    121  F   UNL A   1      40.372  28.362  31.785  1.00  0.00    -0.203 F 
ATOM    122  C   UNL A   1      38.143  29.048  31.463  1.00  0.00     0.198 A 
ATOM    123  C   UNL A   1      37.407  29.747  29.291  1.00  0.00     0.198 A 
ATOM    124  F   UNL A   1      38.901  29.705  27.472  1.00  0.00    -0.203 F 
ATOM    125  F   UNL A   1      37.877  28.784  32.750  1.00  0.00    -0.200 F 
ATOM    126  C   UNL A   1      37.136  29.510  30.629  1.00  0.00     0.200 A 
ATOM    127  F   UNL A   1      36.442  30.210  28.484  1.00  0.00    -0.200 F 
ATOM    128  F   UNL A   1      35.903  29.714  31.112  1.00  0.00    -0.200 F 
ENDBRANCH  90 118
BRANCH 105 129
ATOM    129  C   UNL A   1      45.492  32.772  28.580  1.00  0.00     0.064 A 
ATOM    130  C   UNL A   1      45.254  33.711  27.565  1.00  0.00     0.173 A 
ATOM    131  C   UNL A   1      46.007  33.239  29.799  1.00  0.00     0.173 A 
ATOM    132  F   UNL A   1      44.774  33.314  26.377  1.00  0.00    -0.203 F 
ATOM    133  C   UNL A   1      45.557  35.057  27.752  1.00  0.00     0.198 A 
ATOM    134  C   UNL A   1      46.275  34.591  29.994  1.00  0.00     0.198 A 
ATOM    135  F   UNL A   1      46.243  32.385  30.807  1.00  0.00    -0.203 F 
ATOM    136  F   UNL A   1      45.379  35.926  26.748  1.00  0.00    -0.200 F 
ATOM    137  C   UNL A   1      46.061  35.497  28.967  1.00  0.00     0.200 A 
ATOM    138  F   UNL A   1      46.745  35.016  31.175  1.00  0.00    -0.200 F 
ATOM    139  F   UNL A   1      46.348  36.794  29.145  1.00  0.00    -0.200 F 
ENDBRANCH 105 129
ENDBRANCH  70  73
ENDBRANCH  60  63
ENDBRANCH  56  59
ENDBRANCH  53  56
ENDBRANCH  50  53
ENDBRANCH  47  50
ENDBRANCH   1  47
TORSDOF 18
ENDMDL
MODEL 4
REMARK VINA RESULT:     -12.2      0.844      7.178
REMARK SMILES O=C(CCCc1nc(-c2ccc(Cl)c(Cl)c2)c(-c2ccccc2)o1)NCCCCCCNC(=O)c1ccc(-c2c3nc(c(-c4c(F)c(F)c(F)c(F)c4F)c4ccc([nH]4)c(-c4c(F)c(F)c(F)c(F)c4F)c4nc(c(-c5c(F)c(F)c(F)c(F)c5F)c5ccc2[nH]5)C=C4)C=C3)cc1
REMARK SMILES IDX 27 1 26 4 25 7 1 8 2 9 3 11 4 14 5 17 6 20 7 21 24 22 8 23
REMARK SMILES IDX 17 24 9 25 10 26 16 27 11 28 14 30 12 32 15 34 13 35 18 36
REMARK SMILES IDX 19 37 23 38 20 39 22 41 21 43 28 47 29 50 30 53 31 56 32 59
REMARK SMILES IDX 33 60 34 62 35 63 36 64 97 65 37 66 96 68 38 70 39 73 40 74
REMARK SMILES IDX 90 75 41 76 95 77 89 78 91 79 42 80 94 81 88 83 87 85 43 87
REMARK SMILES IDX 75 90 55 91 74 92 56 93 59 94 73 95 92 96 57 97 58 99 72 101
REMARK SMILES IDX 93 102 60 105 44 107 45 108 53 109 46 110 47 111 51 112
REMARK SMILES IDX 54 113 48 114 49 115 52 116 50 117 76 118 77 119 85 120
REMARK SMILES IDX 78 121 79 122 83 123 86 124 80 125 81 126 84 127 82 128
REMARK SMILES IDX 61 129 62 130 70 131 63 132 64 133 68 134 71 135 65 136
REMARK SMILES IDX 66 137 69 138 67 139
REMARK H PARENT 27 2 27 3 26 5 26 6 25 10 3 12 3 13 4 15 4 16 5 18 5 19 10 29
REMARK H PARENT 16 31 11 33 19 40 23 42 20 44 22 45 21 46 28 48 28 49 29 51
REMARK H PARENT 29 52 30 54 30 55 31 57 31 58 32 61 36 67 97 69 37 71 96 72
REMARK H PARENT 95 82 89 84 91 86 94 88 88 89 56 98 59 100 92 103 57 104
REMARK H PARENT 93 106
REMARK Flexibility Score: inf
ROOT
ATOM      1  C   UNL A   1      36.562  23.495  26.076  1.00  0.00    -0.036 C 
ATOM      2  H   UNL A   1      36.021  22.810  26.693  1.00  0.00     0.028 H 
ATOM      3  H   UNL A   1      37.167  24.180  26.632  1.00  0.00     0.028 H 
ENDROOT
BRANCH   1   4
ATOM      4  C   UNL A   1      35.550  24.343  25.307  1.00  0.00     0.017 C 
ATOM      5  H   UNL A   1      35.192  25.121  25.950  1.00  0.00     0.049 H 
ATOM      6  H   UNL A   1      36.042  24.748  24.447  1.00  0.00     0.049 H 
BRANCH   4   7
ATOM      7  N   UNL A   1      34.424  23.558  24.850  1.00  0.00    -0.356 N 
ATOM      8  O   UNL A   1      35.146  23.346  22.682  1.00  0.00    -0.275 OA
ATOM      9  C   UNL A   1      34.320  23.107  23.558  1.00  0.00     0.220 C 
ATOM     10  H   UNL A   1      33.707  23.341  25.489  1.00  0.00     0.163 HD
BRANCH   9  11
ATOM     11  C   UNL A   1      33.087  22.270  23.293  1.00  0.00     0.027 C 
ATOM     12  H   UNL A   1      32.835  21.743  24.189  1.00  0.00     0.037 H 
ATOM     13  H   UNL A   1      33.321  21.604  22.488  1.00  0.00     0.037 H 
BRANCH  11  14
ATOM     14  C   UNL A   1      31.875  23.102  22.859  1.00  0.00    -0.036 C 
ATOM     15  H   UNL A   1      31.316  22.520  22.157  1.00  0.00     0.028 H 
ATOM     16  H   UNL A   1      32.282  24.008  22.458  1.00  0.00     0.028 H 
BRANCH  14  17
ATOM     17  C   UNL A   1      30.918  23.540  23.972  1.00  0.00     0.025 C 
ATOM     18  H   UNL A   1      31.209  23.061  24.883  1.00  0.00     0.037 H 
ATOM     19  H   UNL A   1      29.928  23.261  23.676  1.00  0.00     0.037 H 
BRANCH  17  20
ATOM     20  C   UNL A   1      30.924  25.010  24.186  1.00  0.00     0.195 A 
ATOM     21  N   UNL A   1      31.761  25.706  24.932  1.00  0.00    -0.213 NA
ATOM     22  O   UNL A   1      30.022  25.759  23.480  1.00  0.00    -0.440 OA
ATOM     23  C   UNL A   1      31.358  27.004  24.743  1.00  0.00     0.117 A 
ATOM     24  C   UNL A   1      30.329  27.050  23.823  1.00  0.00     0.162 A 
BRANCH  23  25
ATOM     25  C   UNL A   1      31.954  28.147  25.395  1.00  0.00     0.006 A 
ATOM     26  C   UNL A   1      31.235  29.338  25.525  1.00  0.00    -0.051 A 
ATOM     27  C   UNL A   1      33.247  28.058  25.931  1.00  0.00    -0.032 A 
ATOM     28  C   UNL A   1      31.788  30.420  26.216  1.00  0.00    -0.041 A 
ATOM     29  H   UNL A   1      30.293  29.419  25.109  1.00  0.00     0.063 H 
ATOM     30  C   UNL A   1      33.806  29.144  26.615  1.00  0.00     0.060 A 
ATOM     31  H   UNL A   1      33.790  27.188  25.819  1.00  0.00     0.065 H 
ATOM     32  C   UNL A   1      33.071  30.323  26.766  1.00  0.00     0.059 A 
ATOM     33  H   UNL A   1      31.249  31.293  26.321  1.00  0.00     0.064 H 
ATOM     34  Cl  UNL A   1      35.399  28.953  27.254  1.00  0.00    -0.083 Cl
ATOM     35  Cl  UNL A   1      33.685  31.693  27.623  1.00  0.00    -0.083 Cl
ENDBRANCH  23  25
BRANCH  24  36
ATOM     36  C   UNL A   1      29.603  28.108  23.153  1.00  0.00     0.020 A 
ATOM     37  C   UNL A   1      28.230  28.280  23.355  1.00  0.00    -0.051 A 
ATOM     38  C   UNL A   1      30.292  29.012  22.330  1.00  0.00    -0.051 A 
ATOM     39  C   UNL A   1      27.562  29.351  22.757  1.00  0.00    -0.062 A 
ATOM     40  H   UNL A   1      27.709  27.614  23.947  1.00  0.00     0.063 H 
ATOM     41  C   UNL A   1      29.622  30.075  21.726  1.00  0.00    -0.062 A 
ATOM     42  H   UNL A   1      31.305  28.888  22.171  1.00  0.00     0.063 H 
ATOM     43  C   UNL A   1      28.258  30.247  21.946  1.00  0.00    -0.062 A 
ATOM     44  H   UNL A   1      26.550  29.480  22.916  1.00  0.00     0.062 H 
ATOM     45  H   UNL A   1      30.136  30.732  21.119  1.00  0.00     0.062 H 
ATOM     46  H   UNL A   1      27.761  31.038  21.507  1.00  0.00     0.062 H 
ENDBRANCH  24  36
ENDBRANCH  17  20
ENDBRANCH  14  17
ENDBRANCH  11  14
ENDBRANCH   9  11
ENDBRANCH   4   7
ENDBRANCH   1   4
BRANCH   1  47
ATOM     47  C   UNL A   1      37.526  22.686  25.199  1.00  0.00    -0.052 C 
ATOM     48  H   UNL A   1      38.502  22.753  25.634  1.00  0.00     0.027 H 
ATOM     49  H   UNL A   1      37.461  23.112  24.220  1.00  0.00     0.027 H 
BRANCH  47  50
ATOM     50  C   UNL A   1      37.183  21.204  25.036  1.00  0.00    -0.052 C 
ATOM     51  H   UNL A   1      36.608  21.091  24.142  1.00  0.00     0.027 H 
ATOM     52  H   UNL A   1      36.647  20.917  25.918  1.00  0.00     0.027 H 
BRANCH  50  53
ATOM     53  C   UNL A   1      38.396  20.278  24.946  1.00  0.00    -0.036 C 
ATOM     54  H   UNL A   1      39.081  20.695  24.237  1.00  0.00     0.028 H 
ATOM     55  H   UNL A   1      38.025  19.319  24.655  1.00  0.00     0.028 H 
BRANCH  53  56
ATOM     56  C   UNL A   1      39.137  20.076  26.262  1.00  0.00     0.018 C 
ATOM     57  H   UNL A   1      38.463  19.644  26.972  1.00  0.00     0.049 H 
ATOM     58  H   UNL A   1      39.491  21.033  26.584  1.00  0.00     0.049 H 
BRANCH  56  59
ATOM     59  N   UNL A   1      40.292  19.203  26.126  1.00  0.00    -0.352 N 
ATOM     60  C   UNL A   1      41.623  19.534  26.114  1.00  0.00     0.251 C 
ATOM     61  H   UNL A   1      40.092  18.243  26.028  1.00  0.00     0.163 HD
ATOM     62  O   UNL A   1      42.472  18.690  25.828  1.00  0.00    -0.269 OA
BRANCH  60  63
ATOM     63  C   UNL A   1      42.036  20.918  26.422  1.00  0.00     0.039 A 
ATOM     64  C   UNL A   1      42.151  21.837  25.376  1.00  0.00    -0.049 A 
ATOM     65  C   UNL A   1      42.312  21.310  27.735  1.00  0.00    -0.049 A 
ATOM     66  C   UNL A   1      42.499  23.161  25.654  1.00  0.00    -0.053 A 
ATOM     67  H   UNL A   1      41.980  21.540  24.402  1.00  0.00     0.063 H 
ATOM     68  C   UNL A   1      42.579  22.646  28.019  1.00  0.00    -0.053 A 
ATOM     69  H   UNL A   1      42.318  20.609  28.492  1.00  0.00     0.063 H 
ATOM     70  C   UNL A   1      42.691  23.582  26.980  1.00  0.00    -0.014 A 
ATOM     71  H   UNL A   1      42.616  23.834  24.880  1.00  0.00     0.063 H 
ATOM     72  H   UNL A   1      42.695  22.949  28.998  1.00  0.00     0.063 H 
BRANCH  70  73
ATOM     73  C   UNL A   1      43.053  24.988  27.295  1.00  0.00     0.031 A 
ATOM     74  C   UNL A   1      44.442  25.488  27.001  1.00  0.00     0.074 A 
ATOM     75  C   UNL A   1      42.150  25.802  27.878  1.00  0.00     0.049 A 
ATOM     76  N   UNL A   1      44.976  26.655  27.260  1.00  0.00    -0.248 NA
ATOM     77  C   UNL A   1      45.363  24.539  26.354  1.00  0.00    -0.034 C 
ATOM     78  C   UNL A   1      40.787  25.424  28.252  1.00  0.00    -0.036 A 
ATOM     79  N   UNL A   1      42.250  27.114  28.268  1.00  0.00    -0.354 N 
ATOM     80  C   UNL A   1      46.288  26.579  26.809  1.00  0.00     0.074 A 
ATOM     81  C   UNL A   1      46.493  25.230  26.327  1.00  0.00    -0.034 C 
ATOM     82  H   UNL A   1      45.177  23.584  26.009  1.00  0.00     0.065 H 
ATOM     83  C   UNL A   1      40.172  26.485  28.801  1.00  0.00    -0.036 A 
ATOM     84  H   UNL A   1      40.365  24.492  28.116  1.00  0.00     0.065 H 
ATOM     85  C   UNL A   1      41.107  27.604  28.852  1.00  0.00     0.049 A 
ATOM     86  H   UNL A   1      43.064  27.654  28.142  1.00  0.00     0.167 HD
ATOM     87  C   UNL A   1      47.227  27.553  26.766  1.00  0.00     0.037 A 
ATOM     88  H   UNL A   1      47.399  24.856  26.006  1.00  0.00     0.065 H 
ATOM     89  H   UNL A   1      39.195  26.504  29.134  1.00  0.00     0.065 H 
ATOM     90  C   UNL A   1      40.848  28.818  29.375  1.00  0.00     0.037 A 
ATOM     91  C   UNL A   1      47.019  28.898  27.232  1.00  0.00     0.049 A 
ATOM     92  C   UNL A   1      41.917  29.879  29.328  1.00  0.00     0.074 A 
ATOM     93  C   UNL A   1      47.903  29.962  27.226  1.00  0.00    -0.036 A 
ATOM     94  N   UNL A   1      45.834  29.366  27.783  1.00  0.00    -0.354 N 
ATOM     95  N   UNL A   1      43.138  29.807  28.855  1.00  0.00    -0.248 NA
ATOM     96  C   UNL A   1      41.565  31.198  29.872  1.00  0.00    -0.034 C 
ATOM     97  C   UNL A   1      47.266  31.064  27.805  1.00  0.00    -0.036 A 
ATOM     98  H   UNL A   1      48.867  29.945  26.857  1.00  0.00     0.065 H 
ATOM     99  C   UNL A   1      45.966  30.703  28.120  1.00  0.00     0.049 A 
ATOM    100  H   UNL A   1      45.021  28.827  27.915  1.00  0.00     0.167 HD
ATOM    101  C   UNL A   1      43.681  31.076  29.005  1.00  0.00     0.074 A 
ATOM    102  C   UNL A   1      42.653  31.903  29.599  1.00  0.00    -0.034 C 
ATOM    103  H   UNL A   1      40.697  31.497  30.344  1.00  0.00     0.065 H 
ATOM    104  H   UNL A   1      47.693  31.990  27.969  1.00  0.00     0.065 H 
ATOM    105  C   UNL A   1      44.921  31.519  28.681  1.00  0.00     0.037 A 
ATOM    106  H   UNL A   1      42.753  32.912  29.785  1.00  0.00     0.065 H 
BRANCH  87 107
ATOM    107  C   UNL A   1      48.561  27.205  26.172  1.00  0.00     0.064 A 
ATOM    108  C   UNL A   1      49.604  26.700  26.966  1.00  0.00     0.173 A 
ATOM    109  C   UNL A   1      48.790  27.330  24.794  1.00  0.00     0.173 A 
ATOM    110  F   UNL A   1      49.441  26.573  28.292  1.00  0.00    -0.203 F 
ATOM    111  C   UNL A   1      50.830  26.355  26.406  1.00  0.00     0.198 A 
ATOM    112  C   UNL A   1      50.008  26.953  24.233  1.00  0.00     0.198 A 
ATOM    113  F   UNL A   1      47.827  27.803  23.988  1.00  0.00    -0.203 F 
ATOM    114  F   UNL A   1      51.824  25.917  27.192  1.00  0.00    -0.200 F 
ATOM    115  C   UNL A   1      51.028  26.473  25.039  1.00  0.00     0.200 A 
ATOM    116  F   UNL A   1      50.194  27.054  22.909  1.00  0.00    -0.200 F 
ATOM    117  F   UNL A   1      52.205  26.126  24.499  1.00  0.00    -0.200 F 
ENDBRANCH  87 107
BRANCH  90 118
ATOM    118  C   UNL A   1      39.520  29.110  29.980  1.00  0.00     0.064 A 
ATOM    119  C   UNL A   1      38.559  29.863  29.289  1.00  0.00     0.173 A 
ATOM    120  C   UNL A   1      39.202  28.683  31.278  1.00  0.00     0.173 A 
ATOM    121  F   UNL A   1      38.822  30.310  28.052  1.00  0.00    -0.203 F 
ATOM    122  C   UNL A   1      37.351  30.214  29.888  1.00  0.00     0.198 A 
ATOM    123  C   UNL A   1      37.978  29.006  31.862  1.00  0.00     0.198 A 
ATOM    124  F   UNL A   1      40.081  27.954  31.980  1.00  0.00    -0.203 F 
ATOM    125  F   UNL A   1      36.483  30.995  29.231  1.00  0.00    -0.200 F 
ATOM    126  C   UNL A   1      37.060  29.784  31.174  1.00  0.00     0.200 A 
ATOM    127  F   UNL A   1      37.695  28.574  33.098  1.00  0.00    -0.200 F 
ATOM    128  F   UNL A   1      35.903  30.129  31.752  1.00  0.00    -0.200 F 
ENDBRANCH  90 118
BRANCH 105 129
ATOM    129  C   UNL A   1      45.209  32.978  28.891  1.00  0.00     0.064 A 
ATOM    130  C   UNL A   1      44.922  33.941  27.912  1.00  0.00     0.173 A 
ATOM    131  C   UNL A   1      45.758  33.419  30.105  1.00  0.00     0.173 A 
ATOM    132  F   UNL A   1      44.408  33.570  26.730  1.00  0.00    -0.203 F 
ATOM    133  C   UNL A   1      45.211  35.286  28.127  1.00  0.00     0.198 A 
ATOM    134  C   UNL A   1      46.012  34.769  30.330  1.00  0.00     0.198 A 
ATOM    135  F   UNL A   1      46.042  32.541  31.079  1.00  0.00    -0.203 F 
ATOM    136  F   UNL A   1      44.985  36.180  27.155  1.00  0.00    -0.200 F 
ATOM    137  C   UNL A   1      45.749  35.700  29.337  1.00  0.00     0.200 A 
ATOM    138  F   UNL A   1      46.516  35.168  31.506  1.00  0.00    -0.200 F 
ATOM    139  F   UNL A   1      46.021  36.996  29.542  1.00  0.00    -0.200 F 
ENDBRANCH 105 129
ENDBRANCH  70  73
ENDBRANCH  60  63
ENDBRANCH  56  59
ENDBRANCH  53  56
ENDBRANCH  50  53
ENDBRANCH  47  50
ENDBRANCH   1  47
TORSDOF 18
ENDMDL
MODEL 5
REMARK VINA RESULT:     -12.1      1.590      3.000
REMARK SMILES O=C(CCCc1nc(-c2ccc(Cl)c(Cl)c2)c(-c2ccccc2)o1)NCCCCCCNC(=O)c1ccc(-c2c3nc(c(-c4c(F)c(F)c(F)c(F)c4F)c4ccc([nH]4)c(-c4c(F)c(F)c(F)c(F)c4F)c4nc(c(-c5c(F)c(F)c(F)c(F)c5F)c5ccc2[nH]5)C=C4)C=C3)cc1
REMARK SMILES IDX 27 1 26 4 25 7 1 8 2 9 3 11 4 14 5 17 6 20 7 21 24 22 8 23
REMARK SMILES IDX 17 24 9 25 10 26 16 27 11 28 14 30 12 32 15 34 13 35 18 36
REMARK SMILES IDX 19 37 23 38 20 39 22 41 21 43 28 47 29 50 30 53 31 56 32 59
REMARK SMILES IDX 33 60 34 62 35 63 36 64 97 65 37 66 96 68 38 70 39 73 40 74
REMARK SMILES IDX 90 75 41 76 95 77 89 78 91 79 42 80 94 81 88 83 87 85 43 87
REMARK SMILES IDX 75 90 55 91 74 92 56 93 59 94 73 95 92 96 57 97 58 99 72 101
REMARK SMILES IDX 93 102 60 105 44 107 45 108 53 109 46 110 47 111 51 112
REMARK SMILES IDX 54 113 48 114 49 115 52 116 50 117 76 118 77 119 85 120
REMARK SMILES IDX 78 121 79 122 83 123 86 124 80 125 81 126 84 127 82 128
REMARK SMILES IDX 61 129 62 130 70 131 63 132 64 133 68 134 71 135 65 136
REMARK SMILES IDX 66 137 69 138 67 139
REMARK H PARENT 27 2 27 3 26 5 26 6 25 10 3 12 3 13 4 15 4 16 5 18 5 19 10 29
REMARK H PARENT 16 31 11 33 19 40 23 42 20 44 22 45 21 46 28 48 28 49 29 51
REMARK H PARENT 29 52 30 54 30 55 31 57 31 58 32 61 36 67 97 69 37 71 96 72
REMARK H PARENT 95 82 89 84 91 86 94 88 88 89 56 98 59 100 92 103 57 104
REMARK H PARENT 93 106
REMARK Flexibility Score: inf
ROOT
ATOM      1  C   UNL A   1      36.794  23.749  26.204  1.00  0.00    -0.036 C 
ATOM      2  H   UNL A   1      36.418  23.095  26.961  1.00  0.00     0.028 H 
ATOM      3  H   UNL A   1      37.236  24.642  26.595  1.00  0.00     0.028 H 
ENDROOT
BRANCH   1   4
ATOM      4  C   UNL A   1      35.620  24.197  25.336  1.00  0.00     0.017 C 
ATOM      5  H   UNL A   1      35.054  24.931  25.871  1.00  0.00     0.049 H 
ATOM      6  H   UNL A   1      36.014  24.601  24.426  1.00  0.00     0.049 H 
BRANCH   4   7
ATOM      7  N   UNL A   1      34.749  23.093  24.994  1.00  0.00    -0.356 N 
ATOM      8  O   UNL A   1      35.129  23.181  22.733  1.00  0.00    -0.275 OA
ATOM      9  C   UNL A   1      34.583  22.662  23.701  1.00  0.00     0.220 C 
ATOM     10  H   UNL A   1      34.258  22.636  25.715  1.00  0.00     0.163 HD
BRANCH   9  11
ATOM     11  C   UNL A   1      33.662  21.469  23.562  1.00  0.00     0.027 C 
ATOM     12  H   UNL A   1      33.598  20.976  24.509  1.00  0.00     0.037 H 
ATOM     13  H   UNL A   1      34.076  20.834  22.807  1.00  0.00     0.037 H 
BRANCH  11  14
ATOM     14  C   UNL A   1      32.246  21.849  23.113  1.00  0.00    -0.036 C 
ATOM     15  H   UNL A   1      31.792  20.976  22.695  1.00  0.00     0.028 H 
ATOM     16  H   UNL A   1      32.375  22.656  22.421  1.00  0.00     0.028 H 
BRANCH  14  17
ATOM     17  C   UNL A   1      31.310  22.388  24.199  1.00  0.00     0.025 C 
ATOM     18  H   UNL A   1      31.667  22.059  25.153  1.00  0.00     0.037 H 
ATOM     19  H   UNL A   1      30.328  22.016  23.994  1.00  0.00     0.037 H 
BRANCH  17  20
ATOM     20  C   UNL A   1      31.236  23.872  24.206  1.00  0.00     0.195 A 
ATOM     21  N   UNL A   1      30.426  24.635  23.496  1.00  0.00    -0.213 NA
ATOM     22  O   UNL A   1      32.026  24.544  25.098  1.00  0.00    -0.440 OA
ATOM     23  C   UNL A   1      30.733  25.905  23.914  1.00  0.00     0.117 A 
ATOM     24  C   UNL A   1      31.673  25.856  24.923  1.00  0.00     0.162 A 
BRANCH  23  25
ATOM     25  C   UNL A   1      30.128  27.106  23.385  1.00  0.00     0.006 A 
ATOM     26  C   UNL A   1      30.896  28.021  22.659  1.00  0.00    -0.051 A 
ATOM     27  C   UNL A   1      28.759  27.347  23.570  1.00  0.00    -0.032 A 
ATOM     28  C   UNL A   1      30.295  29.147  22.091  1.00  0.00    -0.041 A 
ATOM     29  H   UNL A   1      31.910  27.863  22.542  1.00  0.00     0.063 H 
ATOM     30  C   UNL A   1      28.158  28.479  23.010  1.00  0.00     0.060 A 
ATOM     31  H   UNL A   1      28.192  26.686  24.123  1.00  0.00     0.065 H 
ATOM     32  C   UNL A   1      28.925  29.376  22.261  1.00  0.00     0.059 A 
ATOM     33  H   UNL A   1      30.863  29.813  21.544  1.00  0.00     0.064 H 
ATOM     34  Cl  UNL A   1      26.465  28.701  23.275  1.00  0.00    -0.083 Cl
ATOM     35  Cl  UNL A   1      28.245  30.778  21.515  1.00  0.00    -0.083 Cl
ENDBRANCH  23  25
BRANCH  24  36
ATOM     36  C   UNL A   1      32.274  26.832  25.809  1.00  0.00     0.020 A 
ATOM     37  C   UNL A   1      33.605  27.228  25.648  1.00  0.00    -0.051 A 
ATOM     38  C   UNL A   1      31.498  27.431  26.813  1.00  0.00    -0.051 A 
ATOM     39  C   UNL A   1      34.144  28.224  26.466  1.00  0.00    -0.062 A 
ATOM     40  H   UNL A   1      34.190  26.786  24.923  1.00  0.00     0.063 H 
ATOM     41  C   UNL A   1      32.040  28.417  27.636  1.00  0.00    -0.062 A 
ATOM     42  H   UNL A   1      30.516  27.138  26.943  1.00  0.00     0.063 H 
ATOM     43  C   UNL A   1      33.362  28.818  27.457  1.00  0.00    -0.062 A 
ATOM     44  H   UNL A   1      35.124  28.521  26.337  1.00  0.00     0.062 H 
ATOM     45  H   UNL A   1      31.464  28.850  28.374  1.00  0.00     0.062 H 
ATOM     46  H   UNL A   1      33.763  29.554  28.059  1.00  0.00     0.062 H 
ENDBRANCH  24  36
ENDBRANCH  17  20
ENDBRANCH  14  17
ENDBRANCH  11  14
ENDBRANCH   9  11
ENDBRANCH   4   7
ENDBRANCH   1   4
BRANCH   1  47
ATOM     47  C   UNL A   1      37.910  23.014  25.452  1.00  0.00    -0.052 C 
ATOM     48  H   UNL A   1      38.849  23.353  25.841  1.00  0.00     0.027 H 
ATOM     49  H   UNL A   1      37.766  23.241  24.417  1.00  0.00     0.027 H 
BRANCH  47  50
ATOM     50  C   UNL A   1      37.881  21.488  25.556  1.00  0.00    -0.052 C 
ATOM     51  H   UNL A   1      37.174  21.118  24.844  1.00  0.00     0.027 H 
ATOM     52  H   UNL A   1      37.616  21.258  26.568  1.00  0.00     0.027 H 
BRANCH  50  53
ATOM     53  C   UNL A   1      39.224  20.808  25.294  1.00  0.00    -0.036 C 
ATOM     54  H   UNL A   1      39.972  21.568  25.209  1.00  0.00     0.028 H 
ATOM     55  H   UNL A   1      39.106  20.236  24.399  1.00  0.00     0.028 H 
BRANCH  53  56
ATOM     56  C   UNL A   1      39.661  19.830  26.379  1.00  0.00     0.018 C 
ATOM     57  H   UNL A   1      38.860  19.145  26.565  1.00  0.00     0.049 H 
ATOM     58  H   UNL A   1      39.903  20.402  27.251  1.00  0.00     0.049 H 
BRANCH  56  59
ATOM     59  N   UNL A   1      40.845  19.072  26.007  1.00  0.00    -0.352 N 
ATOM     60  C   UNL A   1      42.143  19.502  25.903  1.00  0.00     0.251 C 
ATOM     61  H   UNL A   1      40.694  18.121  25.800  1.00  0.00     0.163 HD
ATOM     62  O   UNL A   1      43.004  18.769  25.419  1.00  0.00    -0.269 OA
BRANCH  60  63
ATOM     63  C   UNL A   1      42.503  20.862  26.352  1.00  0.00     0.039 A 
ATOM     64  C   UNL A   1      42.538  21.134  27.722  1.00  0.00    -0.049 A 
ATOM     65  C   UNL A   1      42.801  21.868  25.428  1.00  0.00    -0.049 A 
ATOM     66  C   UNL A   1      42.917  22.403  28.166  1.00  0.00    -0.053 A 
ATOM     67  H   UNL A   1      42.286  20.400  28.403  1.00  0.00     0.063 H 
ATOM     68  C   UNL A   1      43.256  23.106  25.873  1.00  0.00    -0.053 A 
ATOM     69  H   UNL A   1      42.683  21.693  24.418  1.00  0.00     0.063 H 
ATOM     70  C   UNL A   1      43.304  23.391  27.246  1.00  0.00    -0.014 A 
ATOM     71  H   UNL A   1      42.913  22.615  29.175  1.00  0.00     0.063 H 
ATOM     72  H   UNL A   1      43.560  23.817  25.190  1.00  0.00     0.063 H 
BRANCH  70  73
ATOM     73  C   UNL A   1      43.718  24.744  27.701  1.00  0.00     0.031 A 
ATOM     74  C   UNL A   1      42.673  25.778  28.024  1.00  0.00     0.074 A 
ATOM     75  C   UNL A   1      45.026  25.055  27.784  1.00  0.00     0.049 A 
ATOM     76  N   UNL A   1      42.825  27.032  28.371  1.00  0.00    -0.248 NA
ATOM     77  C   UNL A   1      41.267  25.354  27.916  1.00  0.00    -0.034 C 
ATOM     78  C   UNL A   1      46.133  24.155  27.458  1.00  0.00    -0.036 A 
ATOM     79  N   UNL A   1      45.646  26.220  28.162  1.00  0.00    -0.354 N 
ATOM     80  C   UNL A   1      41.542  27.540  28.522  1.00  0.00     0.074 A 
ATOM     81  C   UNL A   1      40.621  26.485  28.158  1.00  0.00    -0.034 C 
ATOM     82  H   UNL A   1      40.884  24.419  27.708  1.00  0.00     0.065 H 
ATOM     83  C   UNL A   1      47.296  24.796  27.665  1.00  0.00    -0.036 A 
ATOM     84  H   UNL A   1      46.036  23.184  27.122  1.00  0.00     0.065 H 
ATOM     85  C   UNL A   1      47.017  26.160  28.103  1.00  0.00     0.049 A 
ATOM     86  H   UNL A   1      45.154  27.024  28.448  1.00  0.00     0.167 HD
ATOM     87  C   UNL A   1      41.161  28.764  28.958  1.00  0.00     0.037 A 
ATOM     88  H   UNL A   1      39.598  26.598  28.096  1.00  0.00     0.065 H 
ATOM     89  H   UNL A   1      48.235  24.388  27.535  1.00  0.00     0.065 H 
ATOM     90  C   UNL A   1      47.942  27.102  28.366  1.00  0.00     0.037 A 
ATOM     91  C   UNL A   1      42.076  29.810  29.332  1.00  0.00     0.049 A 
ATOM     92  C   UNL A   1      47.491  28.462  28.835  1.00  0.00     0.074 A 
ATOM     93  C   UNL A   1      41.793  31.083  29.795  1.00  0.00    -0.036 A 
ATOM     94  N   UNL A   1      43.459  29.697  29.295  1.00  0.00    -0.354 N 
ATOM     95  N   UNL A   1      46.274  28.914  29.018  1.00  0.00    -0.248 NA
ATOM     96  C   UNL A   1      48.544  29.437  29.151  1.00  0.00    -0.034 C 
ATOM     97  C   UNL A   1      43.003  31.752  30.003  1.00  0.00    -0.036 A 
ATOM     98  H   UNL A   1      40.850  31.471  29.957  1.00  0.00     0.065 H 
ATOM     99  C   UNL A   1      44.041  30.878  29.725  1.00  0.00     0.049 A 
ATOM    100  H   UNL A   1      43.953  28.896  29.004  1.00  0.00     0.167 HD
ATOM    101  C   UNL A   1      46.417  30.205  29.510  1.00  0.00     0.074 A 
ATOM    102  C   UNL A   1      47.838  30.459  29.611  1.00  0.00    -0.034 C 
ATOM    103  H   UNL A   1      49.567  29.348  29.043  1.00  0.00     0.065 H 
ATOM    104  H   UNL A   1      43.105  32.732  30.312  1.00  0.00     0.065 H 
ATOM    105  C   UNL A   1      45.458  31.101  29.848  1.00  0.00     0.037 A 
ATOM    106  H   UNL A   1      48.249  31.324  29.992  1.00  0.00     0.065 H 
BRANCH  87 107
ATOM    107  C   UNL A   1      39.689  29.033  29.076  1.00  0.00     0.064 A 
ATOM    108  C   UNL A   1      38.920  29.387  27.955  1.00  0.00     0.173 A 
ATOM    109  C   UNL A   1      39.028  28.891  30.305  1.00  0.00     0.173 A 
ATOM    110  F   UNL A   1      39.505  29.549  26.759  1.00  0.00    -0.203 F 
ATOM    111  C   UNL A   1      37.551  29.609  28.066  1.00  0.00     0.198 A 
ATOM    112  C   UNL A   1      37.652  29.082  30.405  1.00  0.00     0.198 A 
ATOM    113  F   UNL A   1      39.713  28.550  31.407  1.00  0.00    -0.203 F 
ATOM    114  F   UNL A   1      36.846  29.990  26.991  1.00  0.00    -0.200 F 
ATOM    115  C   UNL A   1      36.916  29.448  29.288  1.00  0.00     0.200 A 
ATOM    116  F   UNL A   1      37.037  28.912  31.584  1.00  0.00    -0.200 F 
ATOM    117  F   UNL A   1      35.595  29.649  29.390  1.00  0.00    -0.200 F 
ENDBRANCH  87 107
BRANCH  90 118
ATOM    118  C   UNL A   1      49.391  26.801  28.207  1.00  0.00     0.064 A 
ATOM    119  C   UNL A   1      50.170  26.392  29.300  1.00  0.00     0.173 A 
ATOM    120  C   UNL A   1      50.037  26.960  26.973  1.00  0.00     0.173 A 
ATOM    121  F   UNL A   1      49.604  26.243  30.507  1.00  0.00    -0.203 F 
ATOM    122  C   UNL A   1      51.544  26.197  29.174  1.00  0.00     0.198 A 
ATOM    123  C   UNL A   1      51.405  26.730  26.841  1.00  0.00     0.198 A 
ATOM    124  F   UNL A   1      49.338  27.341  25.893  1.00  0.00    -0.203 F 
ATOM    125  F   UNL A   1      52.275  25.878  30.251  1.00  0.00    -0.200 F 
ATOM    126  C   UNL A   1      52.160  26.364  27.943  1.00  0.00     0.200 A 
ATOM    127  F   UNL A   1      51.994  26.877  25.646  1.00  0.00    -0.200 F 
ATOM    128  F   UNL A   1      53.483  26.186  27.824  1.00  0.00    -0.200 F 
ENDBRANCH  90 118
BRANCH 105 129
ATOM    129  C   UNL A   1      45.911  32.411  30.429  1.00  0.00     0.064 A 
ATOM    130  C   UNL A   1      46.152  33.536  29.627  1.00  0.00     0.173 A 
ATOM    131  C   UNL A   1      46.080  32.544  31.816  1.00  0.00     0.173 A 
ATOM    132  F   UNL A   1      46.016  33.458  28.295  1.00  0.00    -0.203 F 
ATOM    133  C   UNL A   1      46.583  34.735  30.189  1.00  0.00     0.198 A 
ATOM    134  C   UNL A   1      46.477  33.754  32.377  1.00  0.00     0.198 A 
ATOM    135  F   UNL A   1      45.853  31.502  32.629  1.00  0.00    -0.203 F 
ATOM    136  F   UNL A   1      46.865  35.779  29.398  1.00  0.00    -0.200 F 
ATOM    137  C   UNL A   1      46.739  34.845  31.563  1.00  0.00     0.200 A 
ATOM    138  F   UNL A   1      46.610  33.863  33.707  1.00  0.00    -0.200 F 
ATOM    139  F   UNL A   1      47.149  36.001  32.101  1.00  0.00    -0.200 F 
ENDBRANCH 105 129
ENDBRANCH  70  73
ENDBRANCH  60  63
ENDBRANCH  56  59
ENDBRANCH  53  56
ENDBRANCH  50  53
ENDBRANCH  47  50
ENDBRANCH   1  47
TORSDOF 18
ENDMDL
MODEL 6
REMARK VINA RESULT:     -12.0      5.715     12.570
REMARK SMILES O=C(CCCc1nc(-c2ccc(Cl)c(Cl)c2)c(-c2ccccc2)o1)NCCCCCCNC(=O)c1ccc(-c2c3nc(c(-c4c(F)c(F)c(F)c(F)c4F)c4ccc([nH]4)c(-c4c(F)c(F)c(F)c(F)c4F)c4nc(c(-c5c(F)c(F)c(F)c(F)c5F)c5ccc2[nH]5)C=C4)C=C3)cc1
REMARK SMILES IDX 27 1 26 4 25 7 1 8 2 9 3 11 4 14 5 17 6 20 7 21 24 22 8 23
REMARK SMILES IDX 17 24 9 25 10 26 16 27 11 28 14 30 12 32 15 34 13 35 18 36
REMARK SMILES IDX 19 37 23 38 20 39 22 41 21 43 28 47 29 50 30 53 31 56 32 59
REMARK SMILES IDX 33 60 34 62 35 63 36 64 97 65 37 66 96 68 38 70 39 73 40 74
REMARK SMILES IDX 90 75 41 76 95 77 89 78 91 79 42 80 94 81 88 83 87 85 43 87
REMARK SMILES IDX 75 90 55 91 74 92 56 93 59 94 73 95 92 96 57 97 58 99 72 101
REMARK SMILES IDX 93 102 60 105 44 107 45 108 53 109 46 110 47 111 51 112
REMARK SMILES IDX 54 113 48 114 49 115 52 116 50 117 76 118 77 119 85 120
REMARK SMILES IDX 78 121 79 122 83 123 86 124 80 125 81 126 84 127 82 128
REMARK SMILES IDX 61 129 62 130 70 131 63 132 64 133 68 134 71 135 65 136
REMARK SMILES IDX 66 137 69 138 67 139
REMARK H PARENT 27 2 27 3 26 5 26 6 25 10 3 12 3 13 4 15 4 16 5 18 5 19 10 29
REMARK H PARENT 16 31 11 33 19 40 23 42 20 44 22 45 21 46 28 48 28 49 29 51
REMARK H PARENT 29 52 30 54 30 55 31 57 31 58 32 61 36 67 97 69 37 71 96 72
REMARK H PARENT 95 82 89 84 91 86 94 88 88 89 56 98 59 100 92 103 57 104
REMARK H PARENT 93 106
REMARK Flexibility Score: inf
ROOT
ATOM      1  C   UNL A   1      47.342  26.565  30.141  1.00  0.00    -0.036 C 
ATOM      2  H   UNL A   1      46.649  27.378  30.109  1.00  0.00     0.028 H 
ATOM      3  H   UNL A   1      48.305  26.813  29.746  1.00  0.00     0.028 H 
ENDROOT
BRANCH   1   4
ATOM      4  C   UNL A   1      46.795  25.440  29.264  1.00  0.00     0.017 C 
ATOM      5  H   UNL A   1      47.308  24.532  29.507  1.00  0.00     0.049 H 
ATOM      6  H   UNL A   1      45.745  25.352  29.453  1.00  0.00     0.049 H 
BRANCH   4   7
ATOM      7  N   UNL A   1      46.976  25.717  27.856  1.00  0.00    -0.356 N 
ATOM      8  O   UNL A   1      48.891  24.476  27.613  1.00  0.00    -0.275 OA
ATOM      9  C   UNL A   1      48.019  25.193  27.133  1.00  0.00     0.220 C 
ATOM     10  H   UNL A   1      46.328  26.302  27.400  1.00  0.00     0.163 HD
BRANCH   9  11
ATOM     11  C   UNL A   1      48.005  25.571  25.667  1.00  0.00     0.027 C 
ATOM     12  H   UNL A   1      47.039  25.344  25.266  1.00  0.00     0.037 H 
ATOM     13  H   UNL A   1      48.781  25.011  25.187  1.00  0.00     0.037 H 
BRANCH  11  14
ATOM     14  C   UNL A   1      48.297  27.056  25.424  1.00  0.00    -0.036 C 
ATOM     15  H   UNL A   1      49.116  27.119  24.739  1.00  0.00     0.028 H 
ATOM     16  H   UNL A   1      48.497  27.468  26.392  1.00  0.00     0.028 H 
BRANCH  14  17
ATOM     17  C   UNL A   1      47.146  27.891  24.855  1.00  0.00     0.025 C 
ATOM     18  H   UNL A   1      46.356  27.231  24.562  1.00  0.00     0.037 H 
ATOM     19  H   UNL A   1      47.528  28.445  24.022  1.00  0.00     0.037 H 
BRANCH  17  20
ATOM     20  C   UNL A   1      46.608  28.869  25.835  1.00  0.00     0.195 A 
ATOM     21  N   UNL A   1      46.458  28.698  27.135  1.00  0.00    -0.213 NA
ATOM     22  O   UNL A   1      46.302  30.122  25.379  1.00  0.00    -0.440 OA
ATOM     23  C   UNL A   1      45.977  29.909  27.565  1.00  0.00     0.117 A 
ATOM     24  C   UNL A   1      45.923  30.798  26.510  1.00  0.00     0.162 A 
BRANCH  23  25
ATOM     25  C   UNL A   1      45.613  30.203  28.932  1.00  0.00     0.006 A 
ATOM     26  C   UNL A   1      46.553  30.063  29.957  1.00  0.00    -0.051 A 
ATOM     27  C   UNL A   1      44.323  30.662  29.236  1.00  0.00    -0.032 A 
ATOM     28  C   UNL A   1      46.219  30.413  31.268  1.00  0.00    -0.041 A 
ATOM     29  H   UNL A   1      47.496  29.700  29.744  1.00  0.00     0.063 H 
ATOM     30  C   UNL A   1      43.984  31.003  30.549  1.00  0.00     0.060 A 
ATOM     31  H   UNL A   1      43.619  30.747  28.486  1.00  0.00     0.065 H 
ATOM     32  C   UNL A   1      44.937  30.888  31.566  1.00  0.00     0.059 A 
ATOM     33  H   UNL A   1      46.920  30.321  32.019  1.00  0.00     0.064 H 
ATOM     34  Cl  UNL A   1      42.378  31.569  30.841  1.00  0.00    -0.083 Cl
ATOM     35  Cl  UNL A   1      44.599  31.320  33.205  1.00  0.00    -0.083 Cl
ENDBRANCH  23  25
BRANCH  24  36
ATOM     36  C   UNL A   1      45.626  32.209  26.376  1.00  0.00     0.020 A 
ATOM     37  C   UNL A   1      44.317  32.652  26.165  1.00  0.00    -0.051 A 
ATOM     38  C   UNL A   1      46.655  33.152  26.512  1.00  0.00    -0.051 A 
ATOM     39  C   UNL A   1      44.040  34.021  26.112  1.00  0.00    -0.062 A 
ATOM     40  H   UNL A   1      43.553  31.969  26.050  1.00  0.00     0.063 H 
ATOM     41  C   UNL A   1      46.379  34.518  26.448  1.00  0.00    -0.062 A 
ATOM     42  H   UNL A   1      47.626  32.832  26.660  1.00  0.00     0.063 H 
ATOM     43  C   UNL A   1      45.070  34.951  26.254  1.00  0.00    -0.062 A 
ATOM     44  H   UNL A   1      43.071  34.345  25.966  1.00  0.00     0.062 H 
ATOM     45  H   UNL A   1      47.143  35.205  26.545  1.00  0.00     0.062 H 
ATOM     46  H   UNL A   1      44.862  35.961  26.215  1.00  0.00     0.062 H 
ENDBRANCH  24  36
ENDBRANCH  17  20
ENDBRANCH  14  17
ENDBRANCH  11  14
ENDBRANCH   9  11
ENDBRANCH   4   7
ENDBRANCH   1   4
BRANCH   1  47
ATOM     47  C   UNL A   1      47.567  26.188  31.610  1.00  0.00    -0.052 C 
ATOM     48  H   UNL A   1      46.807  25.487  31.891  1.00  0.00     0.027 H 
ATOM     49  H   UNL A   1      47.530  27.105  32.159  1.00  0.00     0.027 H 
BRANCH  47  50
ATOM     50  C   UNL A   1      48.925  25.561  31.929  1.00  0.00    -0.052 C 
ATOM     51  H   UNL A   1      49.687  26.178  31.501  1.00  0.00     0.027 H 
ATOM     52  H   UNL A   1      48.907  24.572  31.520  1.00  0.00     0.027 H 
BRANCH  50  53
ATOM     53  C   UNL A   1      49.219  25.407  33.422  1.00  0.00    -0.036 C 
ATOM     54  H   UNL A   1      49.077  26.359  33.889  1.00  0.00     0.028 H 
ATOM     55  H   UNL A   1      50.223  25.049  33.499  1.00  0.00     0.028 H 
BRANCH  53  56
ATOM     56  C   UNL A   1      48.339  24.389  34.138  1.00  0.00     0.018 C 
ATOM     57  H   UNL A   1      48.728  23.410  33.954  1.00  0.00     0.049 H 
ATOM     58  H   UNL A   1      47.344  24.497  33.757  1.00  0.00     0.049 H 
BRANCH  56  59
ATOM     59  N   UNL A   1      48.285  24.608  35.575  1.00  0.00    -0.352 N 
ATOM     60  C   UNL A   1      47.447  25.425  36.290  1.00  0.00     0.251 C 
ATOM     61  H   UNL A   1      48.940  24.100  36.107  1.00  0.00     0.163 HD
ATOM     62  O   UNL A   1      47.640  25.617  37.489  1.00  0.00    -0.269 OA
BRANCH  60  63
ATOM     63  C   UNL A   1      46.322  26.097  35.608  1.00  0.00     0.039 A 
ATOM     64  C   UNL A   1      46.540  27.343  35.014  1.00  0.00    -0.049 A 
ATOM     65  C   UNL A   1      45.058  25.504  35.555  1.00  0.00    -0.049 A 
ATOM     66  C   UNL A   1      45.499  27.973  34.328  1.00  0.00    -0.053 A 
ATOM     67  H   UNL A   1      47.465  27.796  35.082  1.00  0.00     0.063 H 
ATOM     68  C   UNL A   1      44.046  26.095  34.803  1.00  0.00    -0.053 A 
ATOM     69  H   UNL A   1      44.874  24.631  36.073  1.00  0.00     0.063 H 
ATOM     70  C   UNL A   1      44.251  27.343  34.195  1.00  0.00    -0.014 A 
ATOM     71  H   UNL A   1      45.648  28.907  33.916  1.00  0.00     0.063 H 
ATOM     72  H   UNL A   1      43.141  25.613  34.693  1.00  0.00     0.063 H 
BRANCH  70  73
ATOM     73  C   UNL A   1      43.136  27.994  33.462  1.00  0.00     0.031 A 
ATOM     74  C   UNL A   1      42.920  27.692  32.004  1.00  0.00     0.074 A 
ATOM     75  C   UNL A   1      42.344  28.884  34.092  1.00  0.00     0.049 A 
ATOM     76  N   UNL A   1      42.049  28.202  31.169  1.00  0.00    -0.248 NA
ATOM     77  C   UNL A   1      43.822  26.701  31.393  1.00  0.00    -0.034 C 
ATOM     78  C   UNL A   1      42.477  29.295  35.491  1.00  0.00    -0.036 A 
ATOM     79  N   UNL A   1      41.274  29.612  33.634  1.00  0.00    -0.354 N 
ATOM     80  C   UNL A   1      42.299  27.597  29.945  1.00  0.00     0.074 A 
ATOM     81  C   UNL A   1      43.448  26.736  30.124  1.00  0.00    -0.034 C 
ATOM     82  H   UNL A   1      44.554  26.126  31.840  1.00  0.00     0.065 H 
ATOM     83  C   UNL A   1      41.516  30.188  35.780  1.00  0.00    -0.036 A 
ATOM     84  H   UNL A   1      43.195  28.954  36.149  1.00  0.00     0.065 H 
ATOM     85  C   UNL A   1      40.723  30.440  34.581  1.00  0.00     0.049 A 
ATOM     86  H   UNL A   1      40.934  29.547  32.711  1.00  0.00     0.167 HD
ATOM     87  C   UNL A   1      41.613  27.718  28.784  1.00  0.00     0.037 A 
ATOM     88  H   UNL A   1      43.914  26.218  29.362  1.00  0.00     0.065 H 
ATOM     89  H   UNL A   1      41.363  30.625  36.702  1.00  0.00     0.065 H 
ATOM     90  C   UNL A   1      39.698  31.309  34.488  1.00  0.00     0.037 A 
ATOM     91  C   UNL A   1      40.462  28.564  28.610  1.00  0.00     0.049 A 
ATOM     92  C   UNL A   1      38.961  31.435  33.179  1.00  0.00     0.074 A 
ATOM     93  C   UNL A   1      39.691  28.752  27.476  1.00  0.00    -0.036 A 
ATOM     94  N   UNL A   1      39.911  29.359  29.604  1.00  0.00    -0.354 N 
ATOM     95  N   UNL A   1      39.179  30.821  32.041  1.00  0.00    -0.248 NA
ATOM     96  C   UNL A   1      37.824  32.365  33.147  1.00  0.00    -0.034 C 
ATOM     97  C   UNL A   1      38.695  29.687  27.775  1.00  0.00    -0.036 A 
ATOM     98  H   UNL A   1      39.827  28.283  26.567  1.00  0.00     0.065 H 
ATOM     99  C   UNL A   1      38.811  30.039  29.110  1.00  0.00     0.049 A 
ATOM    100  H   UNL A   1      40.253  29.430  30.525  1.00  0.00     0.167 HD
ATOM    101  C   UNL A   1      38.184  31.256  31.176  1.00  0.00     0.074 A 
ATOM    102  C   UNL A   1      37.352  32.174  31.924  1.00  0.00    -0.034 C 
ATOM    103  H   UNL A   1      37.481  33.000  33.885  1.00  0.00     0.065 H 
ATOM    104  H   UNL A   1      37.993  30.053  27.112  1.00  0.00     0.065 H 
ATOM    105  C   UNL A   1      37.976  30.925  29.878  1.00  0.00     0.037 A 
ATOM    106  H   UNL A   1      36.501  32.623  31.553  1.00  0.00     0.065 H 
BRANCH  87 107
ATOM    107  C   UNL A   1      42.076  26.899  27.615  1.00  0.00     0.064 A 
ATOM    108  C   UNL A   1      42.899  27.448  26.618  1.00  0.00     0.173 A 
ATOM    109  C   UNL A   1      41.738  25.541  27.509  1.00  0.00     0.173 A 
ATOM    110  F   UNL A   1      43.241  28.744  26.665  1.00  0.00    -0.203 F 
ATOM    111  C   UNL A   1      43.346  26.676  25.550  1.00  0.00     0.198 A 
ATOM    112  C   UNL A   1      42.214  24.764  26.455  1.00  0.00     0.198 A 
ATOM    113  F   UNL A   1      40.958  24.964  28.435  1.00  0.00    -0.203 F 
ATOM    114  F   UNL A   1      44.094  27.236  24.588  1.00  0.00    -0.200 F 
ATOM    115  C   UNL A   1      43.012  25.333  25.474  1.00  0.00     0.200 A 
ATOM    116  F   UNL A   1      41.902  23.462  26.391  1.00  0.00    -0.200 F 
ATOM    117  F   UNL A   1      43.455  24.588  24.452  1.00  0.00    -0.200 F 
ENDBRANCH  87 107
BRANCH  90 118
ATOM    118  C   UNL A   1      39.292  32.123  35.665  1.00  0.00     0.064 A 
ATOM    119  C   UNL A   1      38.392  31.621  36.618  1.00  0.00     0.173 A 
ATOM    120  C   UNL A   1      39.756  33.435  35.839  1.00  0.00     0.173 A 
ATOM    121  F   UNL A   1      37.904  30.378  36.488  1.00  0.00    -0.203 F 
ATOM    122  C   UNL A   1      37.940  32.413  37.671  1.00  0.00     0.198 A 
ATOM    123  C   UNL A   1      39.330  34.214  36.913  1.00  0.00     0.198 A 
ATOM    124  F   UNL A   1      40.623  33.962  34.962  1.00  0.00    -0.203 F 
ATOM    125  F   UNL A   1      37.026  31.932  38.524  1.00  0.00    -0.200 F 
ATOM    126  C   UNL A   1      38.411  33.709  37.819  1.00  0.00     0.200 A 
ATOM    127  F   UNL A   1      39.800  35.460  37.061  1.00  0.00    -0.200 F 
ATOM    128  F   UNL A   1      37.970  34.473  38.827  1.00  0.00    -0.200 F 
ENDBRANCH  90 118
BRANCH 105 129
ATOM    129  C   UNL A   1      36.762  31.500  29.206  1.00  0.00     0.064 A 
ATOM    130  C   UNL A   1      36.689  32.849  28.827  1.00  0.00     0.173 A 
ATOM    131  C   UNL A   1      35.664  30.676  28.913  1.00  0.00     0.173 A 
ATOM    132  F   UNL A   1      37.707  33.681  29.095  1.00  0.00    -0.203 F 
ATOM    133  C   UNL A   1      35.547  33.359  28.216  1.00  0.00     0.198 A 
ATOM    134  C   UNL A   1      34.538  31.182  28.270  1.00  0.00     0.198 A 
ATOM    135  F   UNL A   1      35.685  29.376  29.243  1.00  0.00    -0.203 F 
ATOM    136  F   UNL A   1      35.476  34.664  27.919  1.00  0.00    -0.200 F 
ATOM    137  C   UNL A   1      34.476  32.525  27.932  1.00  0.00     0.200 A 
ATOM    138  F   UNL A   1      33.511  30.370  27.981  1.00  0.00    -0.200 F 
ATOM    139  F   UNL A   1      33.380  33.019  27.340  1.00  0.00    -0.200 F 
ENDBRANCH 105 129
ENDBRANCH  70  73
ENDBRANCH  60  63
ENDBRANCH  56  59
ENDBRANCH  53  56
ENDBRANCH  50  53
ENDBRANCH  47  50
ENDBRANCH   1  47
TORSDOF 18
ENDMDL
MODEL 7
REMARK VINA RESULT:     -11.9      1.708      7.381
REMARK SMILES O=C(CCCc1nc(-c2ccc(Cl)c(Cl)c2)c(-c2ccccc2)o1)NCCCCCCNC(=O)c1ccc(-c2c3nc(c(-c4c(F)c(F)c(F)c(F)c4F)c4ccc([nH]4)c(-c4c(F)c(F)c(F)c(F)c4F)c4nc(c(-c5c(F)c(F)c(F)c(F)c5F)c5ccc2[nH]5)C=C4)C=C3)cc1
REMARK SMILES IDX 27 1 26 4 25 7 1 8 2 9 3 11 4 14 5 17 6 20 7 21 24 22 8 23
REMARK SMILES IDX 17 24 9 25 10 26 16 27 11 28 14 30 12 32 15 34 13 35 18 36
REMARK SMILES IDX 19 37 23 38 20 39 22 41 21 43 28 47 29 50 30 53 31 56 32 59
REMARK SMILES IDX 33 60 34 62 35 63 36 64 97 65 37 66 96 68 38 70 39 73 40 74
REMARK SMILES IDX 90 75 41 76 95 77 89 78 91 79 42 80 94 81 88 83 87 85 43 87
REMARK SMILES IDX 75 90 55 91 74 92 56 93 59 94 73 95 92 96 57 97 58 99 72 101
REMARK SMILES IDX 93 102 60 105 44 107 45 108 53 109 46 110 47 111 51 112
REMARK SMILES IDX 54 113 48 114 49 115 52 116 50 117 76 118 77 119 85 120
REMARK SMILES IDX 78 121 79 122 83 123 86 124 80 125 81 126 84 127 82 128
REMARK SMILES IDX 61 129 62 130 70 131 63 132 64 133 68 134 71 135 65 136
REMARK SMILES IDX 66 137 69 138 67 139
REMARK H PARENT 27 2 27 3 26 5 26 6 25 10 3 12 3 13 4 15 4 16 5 18 5 19 10 29
REMARK H PARENT 16 31 11 33 19 40 23 42 20 44 22 45 21 46 28 48 28 49 29 51
REMARK H PARENT 29 52 30 54 30 55 31 57 31 58 32 61 36 67 97 69 37 71 96 72
REMARK H PARENT 95 82 89 84 91 86 94 88 88 89 56 98 59 100 92 103 57 104
REMARK H PARENT 93 106
REMARK Flexibility Score: inf
ROOT
ATOM      1  C   UNL A   1      36.928  23.963  26.208  1.00  0.00    -0.036 C 
ATOM      2  H   UNL A   1      36.563  23.305  26.967  1.00  0.00     0.028 H 
ATOM      3  H   UNL A   1      37.287  24.895  26.591  1.00  0.00     0.028 H 
ENDROOT
BRANCH   1   4
ATOM      4  C   UNL A   1      35.767  24.301  25.275  1.00  0.00     0.017 C 
ATOM      5  H   UNL A   1      35.211  25.114  25.695  1.00  0.00     0.049 H 
ATOM      6  H   UNL A   1      36.174  24.566  24.320  1.00  0.00     0.049 H 
BRANCH   4   7
ATOM      7  N   UNL A   1      34.879  23.175  25.086  1.00  0.00    -0.356 N 
ATOM      8  O   UNL A   1      35.252  22.952  22.833  1.00  0.00    -0.275 OA
ATOM      9  C   UNL A   1      34.702  22.576  23.863  1.00  0.00     0.220 C 
ATOM     10  H   UNL A   1      34.384  22.825  25.862  1.00  0.00     0.163 HD
BRANCH   9  11
ATOM     11  C   UNL A   1      33.763  21.389  23.887  1.00  0.00     0.027 C 
ATOM     12  H   UNL A   1      33.719  21.010  24.886  1.00  0.00     0.037 H 
ATOM     13  H   UNL A   1      34.150  20.664  23.200  1.00  0.00     0.037 H 
BRANCH  11  14
ATOM     14  C   UNL A   1      32.341  21.735  23.433  1.00  0.00    -0.036 C 
ATOM     15  H   UNL A   1      31.897  20.843  23.045  1.00  0.00     0.028 H 
ATOM     16  H   UNL A   1      32.456  22.521  22.714  1.00  0.00     0.028 H 
BRANCH  14  17
ATOM     17  C   UNL A   1      31.403  22.296  24.506  1.00  0.00     0.025 C 
ATOM     18  H   UNL A   1      31.773  22.012  25.468  1.00  0.00     0.037 H 
ATOM     19  H   UNL A   1      30.427  21.897  24.323  1.00  0.00     0.037 H 
BRANCH  17  20
ATOM     20  C   UNL A   1      31.297  23.777  24.457  1.00  0.00     0.195 A 
ATOM     21  N   UNL A   1      30.450  24.495  23.743  1.00  0.00    -0.213 NA
ATOM     22  O   UNL A   1      32.100  24.499  25.296  1.00  0.00    -0.440 OA
ATOM     23  C   UNL A   1      30.743  25.787  24.101  1.00  0.00     0.117 A 
ATOM     24  C   UNL A   1      31.715  25.797  25.081  1.00  0.00     0.162 A 
BRANCH  23  25
ATOM     25  C   UNL A   1      30.097  26.954  23.545  1.00  0.00     0.006 A 
ATOM     26  C   UNL A   1      30.825  27.856  22.763  1.00  0.00    -0.051 A 
ATOM     27  C   UNL A   1      28.729  27.174  23.761  1.00  0.00    -0.032 A 
ATOM     28  C   UNL A   1      30.183  28.946  22.170  1.00  0.00    -0.041 A 
ATOM     29  H   UNL A   1      31.838  27.715  22.622  1.00  0.00     0.063 H 
ATOM     30  C   UNL A   1      28.088  28.270  23.176  1.00  0.00     0.060 A 
ATOM     31  H   UNL A   1      28.193  26.523  24.355  1.00  0.00     0.065 H 
ATOM     32  C   UNL A   1      28.814  29.154  22.371  1.00  0.00     0.059 A 
ATOM     33  H   UNL A   1      30.720  29.602  21.582  1.00  0.00     0.064 H 
ATOM     34  Cl  UNL A   1      26.399  28.466  23.481  1.00  0.00    -0.083 Cl
ATOM     35  Cl  UNL A   1      28.082  30.512  21.593  1.00  0.00    -0.083 Cl
ENDBRANCH  23  25
BRANCH  24  36
ATOM     36  C   UNL A   1      32.323  26.819  25.908  1.00  0.00     0.020 A 
ATOM     37  C   UNL A   1      33.660  27.188  25.732  1.00  0.00    -0.051 A 
ATOM     38  C   UNL A   1      31.548  27.489  26.867  1.00  0.00    -0.051 A 
ATOM     39  C   UNL A   1      34.207  28.226  26.490  1.00  0.00    -0.062 A 
ATOM     40  H   UNL A   1      34.244  26.693  25.041  1.00  0.00     0.063 H 
ATOM     41  C   UNL A   1      32.098  28.519  27.630  1.00  0.00    -0.062 A 
ATOM     42  H   UNL A   1      30.562  27.217  27.008  1.00  0.00     0.063 H 
ATOM     43  C   UNL A   1      33.426  28.890  27.436  1.00  0.00    -0.062 A 
ATOM     44  H   UNL A   1      35.191  28.502  26.351  1.00  0.00     0.062 H 
ATOM     45  H   UNL A   1      31.522  29.004  28.335  1.00  0.00     0.062 H 
ATOM     46  H   UNL A   1      33.833  29.657  27.994  1.00  0.00     0.062 H 
ENDBRANCH  24  36
ENDBRANCH  17  20
ENDBRANCH  14  17
ENDBRANCH  11  14
ENDBRANCH   9  11
ENDBRANCH   4   7
ENDBRANCH   1   4
BRANCH   1  47
ATOM     47  C   UNL A   1      38.126  23.288  25.529  1.00  0.00    -0.052 C 
ATOM     48  H   UNL A   1      39.018  23.755  25.895  1.00  0.00     0.027 H 
ATOM     49  H   UNL A   1      37.977  23.412  24.477  1.00  0.00     0.027 H 
BRANCH  47  50
ATOM     50  C   UNL A   1      38.254  21.782  25.762  1.00  0.00    -0.052 C 
ATOM     51  H   UNL A   1      37.886  21.277  24.894  1.00  0.00     0.027 H 
ATOM     52  H   UNL A   1      37.690  21.562  26.646  1.00  0.00     0.027 H 
BRANCH  50  53
ATOM     53  C   UNL A   1      39.680  21.299  26.028  1.00  0.00    -0.036 C 
ATOM     54  H   UNL A   1      40.110  21.929  26.778  1.00  0.00     0.028 H 
ATOM     55  H   UNL A   1      40.196  21.349  25.093  1.00  0.00     0.028 H 
BRANCH  53  56
ATOM     56  C   UNL A   1      39.780  19.854  26.503  1.00  0.00     0.018 C 
ATOM     57  H   UNL A   1      38.907  19.326  26.182  1.00  0.00     0.049 H 
ATOM     58  H   UNL A   1      39.863  19.870  27.570  1.00  0.00     0.049 H 
BRANCH  56  59
ATOM     59  N   UNL A   1      40.955  19.174  25.981  1.00  0.00    -0.352 N 
ATOM     60  C   UNL A   1      42.215  19.672  25.771  1.00  0.00     0.251 C 
ATOM     61  H   UNL A   1      40.828  18.225  25.746  1.00  0.00     0.163 HD
ATOM     62  O   UNL A   1      43.056  19.005  25.171  1.00  0.00    -0.269 OA
BRANCH  60  63
ATOM     63  C   UNL A   1      42.555  21.028  26.247  1.00  0.00     0.039 A 
ATOM     64  C   UNL A   1      42.775  22.038  25.309  1.00  0.00    -0.049 A 
ATOM     65  C   UNL A   1      42.658  21.304  27.614  1.00  0.00    -0.049 A 
ATOM     66  C   UNL A   1      43.055  23.337  25.741  1.00  0.00    -0.053 A 
ATOM     67  H   UNL A   1      42.732  21.827  24.299  1.00  0.00     0.063 H 
ATOM     68  C   UNL A   1      42.857  22.613  28.044  1.00  0.00    -0.053 A 
ATOM     69  H   UNL A   1      42.588  20.539  28.302  1.00  0.00     0.063 H 
ATOM     70  C   UNL A   1      43.073  23.640  27.112  1.00  0.00    -0.014 A 
ATOM     71  H   UNL A   1      43.250  24.077  25.050  1.00  0.00     0.063 H 
ATOM     72  H   UNL A   1      42.845  22.829  29.053  1.00  0.00     0.063 H 
BRANCH  70  73
ATOM     73  C   UNL A   1      43.361  25.016  27.591  1.00  0.00     0.031 A 
ATOM     74  C   UNL A   1      44.786  25.464  27.773  1.00  0.00     0.074 A 
ATOM     75  C   UNL A   1      42.346  25.848  27.899  1.00  0.00     0.049 A 
ATOM     76  N   UNL A   1      45.248  26.597  28.242  1.00  0.00    -0.248 NA
ATOM     77  C   UNL A   1      45.835  24.498  27.404  1.00  0.00    -0.034 C 
ATOM     78  C   UNL A   1      40.923  25.519  27.807  1.00  0.00    -0.036 A 
ATOM     79  N   UNL A   1      42.358  27.140  28.362  1.00  0.00    -0.354 N 
ATOM     80  C   UNL A   1      46.632  26.477  28.223  1.00  0.00     0.074 A 
ATOM     81  C   UNL A   1      46.936  25.138  27.767  1.00  0.00    -0.034 C 
ATOM     82  H   UNL A   1      45.737  23.565  26.974  1.00  0.00     0.065 H 
ATOM     83  C   UNL A   1      40.200  26.586  28.185  1.00  0.00    -0.036 A 
ATOM     84  H   UNL A   1      40.537  24.612  27.501  1.00  0.00     0.065 H 
ATOM     85  C   UNL A   1      41.105  27.660  28.579  1.00  0.00     0.049 A 
ATOM     86  H   UNL A   1      43.187  27.647  28.524  1.00  0.00     0.167 HD
ATOM     87  C   UNL A   1      47.566  27.410  28.523  1.00  0.00     0.037 A 
ATOM     88  H   UNL A   1      47.885  24.736  27.729  1.00  0.00     0.065 H 
ATOM     89  H   UNL A   1      39.169  26.637  28.194  1.00  0.00     0.065 H 
ATOM     90  C   UNL A   1      40.733  28.865  29.051  1.00  0.00     0.037 A 
ATOM     91  C   UNL A   1      47.263  28.746  28.963  1.00  0.00     0.049 A 
ATOM     92  C   UNL A   1      41.794  29.879  29.393  1.00  0.00     0.074 A 
ATOM     93  C   UNL A   1      48.138  29.769  29.285  1.00  0.00    -0.036 A 
ATOM     94  N   UNL A   1      45.981  29.246  29.135  1.00  0.00    -0.354 N 
ATOM     95  N   UNL A   1      43.099  29.769  29.325  1.00  0.00    -0.248 NA
ATOM     96  C   UNL A   1      41.330  31.192  29.860  1.00  0.00    -0.034 C 
ATOM     97  C   UNL A   1      47.385  30.877  29.686  1.00  0.00    -0.036 A 
ATOM     98  H   UNL A   1      49.167  29.722  29.238  1.00  0.00     0.065 H 
ATOM     99  C   UNL A   1      46.041  30.563  29.559  1.00  0.00     0.049 A 
ATOM    100  H   UNL A   1      45.151  28.740  28.979  1.00  0.00     0.167 HD
ATOM    101  C   UNL A   1      43.606  31.007  29.698  1.00  0.00     0.074 A 
ATOM    102  C   UNL A   1      42.469  31.858  29.976  1.00  0.00    -0.034 C 
ATOM    103  H   UNL A   1      40.367  31.513  30.049  1.00  0.00     0.065 H 
ATOM    104  H   UNL A   1      47.766  31.777  30.020  1.00  0.00     0.065 H 
ATOM    105  C   UNL A   1      44.898  31.405  29.801  1.00  0.00     0.037 A 
ATOM    106  H   UNL A   1      42.537  32.854  30.232  1.00  0.00     0.065 H 
BRANCH  87 107
ATOM    107  C   UNL A   1      49.008  27.024  28.363  1.00  0.00     0.064 A 
ATOM    108  C   UNL A   1      49.739  26.474  29.429  1.00  0.00     0.173 A 
ATOM    109  C   UNL A   1      49.656  27.157  27.126  1.00  0.00     0.173 A 
ATOM    110  F   UNL A   1      49.170  26.337  30.636  1.00  0.00    -0.203 F 
ATOM    111  C   UNL A   1      51.068  26.094  29.268  1.00  0.00     0.198 A 
ATOM    112  C   UNL A   1      50.976  26.746  26.961  1.00  0.00     0.198 A 
ATOM    113  F   UNL A   1      49.004  27.672  26.073  1.00  0.00    -0.203 F 
ATOM    114  F   UNL A   1      51.757  25.614  30.313  1.00  0.00    -0.200 F 
ATOM    115  C   UNL A   1      51.683  26.222  28.032  1.00  0.00     0.200 A 
ATOM    116  F   UNL A   1      51.565  26.856  25.761  1.00  0.00    -0.200 F 
ATOM    117  F   UNL A   1      52.959  25.842  27.875  1.00  0.00    -0.200 F 
ENDBRANCH  87 107
BRANCH  90 118
ATOM    118  C   UNL A   1      39.291  29.195  29.221  1.00  0.00     0.064 A 
ATOM    119  C   UNL A   1      38.511  29.615  28.134  1.00  0.00     0.173 A 
ATOM    120  C   UNL A   1      38.676  29.141  30.480  1.00  0.00     0.173 A 
ATOM    121  F   UNL A   1      39.058  29.701  26.911  1.00  0.00    -0.203 F 
ATOM    122  C   UNL A   1      37.186  30.011  28.306  1.00  0.00     0.198 A 
ATOM    123  C   UNL A   1      37.340  29.504  30.645  1.00  0.00     0.198 A 
ATOM    124  F   UNL A   1      39.373  28.739  31.553  1.00  0.00    -0.203 F 
ATOM    125  F   UNL A   1      36.487  30.477  27.263  1.00  0.00    -0.200 F 
ATOM    126  C   UNL A   1      36.601  29.953  29.562  1.00  0.00     0.200 A 
ATOM    127  F   UNL A   1      36.774  29.430  31.857  1.00  0.00    -0.200 F 
ATOM    128  F   UNL A   1      35.330  30.342  29.729  1.00  0.00    -0.200 F 
ENDBRANCH  90 118
BRANCH 105 129
ATOM    129  C   UNL A   1      45.151  32.841  30.160  1.00  0.00     0.064 A 
ATOM    130  C   UNL A   1      45.329  33.257  31.488  1.00  0.00     0.173 A 
ATOM    131  C   UNL A   1      45.242  33.812  29.150  1.00  0.00     0.173 A 
ATOM    132  F   UNL A   1      45.239  32.370  32.490  1.00  0.00    -0.203 F 
ATOM    133  C   UNL A   1      45.550  34.597  31.794  1.00  0.00     0.198 A 
ATOM    134  C   UNL A   1      45.499  35.146  29.458  1.00  0.00     0.198 A 
ATOM    135  F   UNL A   1      45.091  33.468  27.863  1.00  0.00    -0.203 F 
ATOM    136  F   UNL A   1      45.656  34.980  33.073  1.00  0.00    -0.200 F 
ATOM    137  C   UNL A   1      45.641  35.539  30.780  1.00  0.00     0.200 A 
ATOM    138  F   UNL A   1      45.604  36.050  28.474  1.00  0.00    -0.200 F 
ATOM    139  F   UNL A   1      45.859  36.827  31.077  1.00  0.00    -0.200 F 
ENDBRANCH 105 129
ENDBRANCH  70  73
ENDBRANCH  60  63
ENDBRANCH  56  59
ENDBRANCH  53  56
ENDBRANCH  50  53
ENDBRANCH  47  50
ENDBRANCH   1  47
TORSDOF 18
ENDMDL
MODEL 8
REMARK VINA RESULT:     -11.7      6.560     12.777
REMARK SMILES O=C(CCCc1nc(-c2ccc(Cl)c(Cl)c2)c(-c2ccccc2)o1)NCCCCCCNC(=O)c1ccc(-c2c3nc(c(-c4c(F)c(F)c(F)c(F)c4F)c4ccc([nH]4)c(-c4c(F)c(F)c(F)c(F)c4F)c4nc(c(-c5c(F)c(F)c(F)c(F)c5F)c5ccc2[nH]5)C=C4)C=C3)cc1
REMARK SMILES IDX 27 1 26 4 25 7 1 8 2 9 3 11 4 14 5 17 6 20 7 21 24 22 8 23
REMARK SMILES IDX 17 24 9 25 10 26 16 27 11 28 14 30 12 32 15 34 13 35 18 36
REMARK SMILES IDX 19 37 23 38 20 39 22 41 21 43 28 47 29 50 30 53 31 56 32 59
REMARK SMILES IDX 33 60 34 62 35 63 36 64 97 65 37 66 96 68 38 70 39 73 40 74
REMARK SMILES IDX 90 75 41 76 95 77 89 78 91 79 42 80 94 81 88 83 87 85 43 87
REMARK SMILES IDX 75 90 55 91 74 92 56 93 59 94 73 95 92 96 57 97 58 99 72 101
REMARK SMILES IDX 93 102 60 105 44 107 45 108 53 109 46 110 47 111 51 112
REMARK SMILES IDX 54 113 48 114 49 115 52 116 50 117 76 118 77 119 85 120
REMARK SMILES IDX 78 121 79 122 83 123 86 124 80 125 81 126 84 127 82 128
REMARK SMILES IDX 61 129 62 130 70 131 63 132 64 133 68 134 71 135 65 136
REMARK SMILES IDX 66 137 69 138 67 139
REMARK H PARENT 27 2 27 3 26 5 26 6 25 10 3 12 3 13 4 15 4 16 5 18 5 19 10 29
REMARK H PARENT 16 31 11 33 19 40 23 42 20 44 22 45 21 46 28 48 28 49 29 51
REMARK H PARENT 29 52 30 54 30 55 31 57 31 58 32 61 36 67 97 69 37 71 96 72
REMARK H PARENT 95 82 89 84 91 86 94 88 88 89 56 98 59 100 92 103 57 104
REMARK H PARENT 93 106
REMARK Flexibility Score: inf
ROOT
ATOM      1  C   UNL A   1      35.892  34.928  33.870  1.00  0.00    -0.036 C 
ATOM      2  H   UNL A   1      36.918  35.046  33.593  1.00  0.00     0.028 H 
ATOM      3  H   UNL A   1      35.637  35.435  34.778  1.00  0.00     0.028 H 
ENDROOT
BRANCH   1   4
ATOM      4  C   UNL A   1      35.635  33.444  34.121  1.00  0.00     0.017 C 
ATOM      5  H   UNL A   1      34.898  33.346  34.892  1.00  0.00     0.049 H 
ATOM      6  H   UNL A   1      35.295  33.006  33.205  1.00  0.00     0.049 H 
BRANCH   4   7
ATOM      7  N   UNL A   1      36.836  32.750  34.531  1.00  0.00    -0.356 N 
ATOM      8  O   UNL A   1      36.742  33.390  36.733  1.00  0.00    -0.275 OA
ATOM      9  C   UNL A   1      37.291  32.771  35.827  1.00  0.00     0.220 C 
ATOM     10  H   UNL A   1      37.346  32.245  33.857  1.00  0.00     0.163 HD
BRANCH   9  11
ATOM     11  C   UNL A   1      38.541  31.948  36.056  1.00  0.00     0.027 C 
ATOM     12  H   UNL A   1      38.653  31.786  37.107  1.00  0.00     0.037 H 
ATOM     13  H   UNL A   1      39.362  32.497  35.644  1.00  0.00     0.037 H 
BRANCH  11  14
ATOM     14  C   UNL A   1      38.503  30.587  35.352  1.00  0.00    -0.036 C 
ATOM     15  H   UNL A   1      37.544  30.487  34.889  1.00  0.00     0.028 H 
ATOM     16  H   UNL A   1      38.703  29.865  36.118  1.00  0.00     0.028 H 
BRANCH  14  17
ATOM     17  C   UNL A   1      39.569  30.347  34.278  1.00  0.00     0.025 C 
ATOM     18  H   UNL A   1      39.926  31.295  33.932  1.00  0.00     0.037 H 
ATOM     19  H   UNL A   1      39.113  29.784  33.490  1.00  0.00     0.037 H 
BRANCH  17  20
ATOM     20  C   UNL A   1      40.723  29.560  34.782  1.00  0.00     0.195 A 
ATOM     21  N   UNL A   1      41.623  29.941  35.669  1.00  0.00    -0.213 NA
ATOM     22  O   UNL A   1      40.845  28.266  34.357  1.00  0.00    -0.440 OA
ATOM     23  C   UNL A   1      42.424  28.836  35.808  1.00  0.00     0.117 A 
ATOM     24  C   UNL A   1      41.931  27.795  35.048  1.00  0.00     0.162 A 
BRANCH  23  25
ATOM     25  C   UNL A   1      43.594  28.777  36.656  1.00  0.00     0.006 A 
ATOM     26  C   UNL A   1      43.892  27.610  37.364  1.00  0.00    -0.051 A 
ATOM     27  C   UNL A   1      44.455  29.880  36.747  1.00  0.00    -0.032 A 
ATOM     28  C   UNL A   1      45.059  27.532  38.129  1.00  0.00    -0.041 A 
ATOM     29  H   UNL A   1      43.248  26.803  37.323  1.00  0.00     0.063 H 
ATOM     30  C   UNL A   1      45.618  29.807  37.520  1.00  0.00     0.060 A 
ATOM     31  H   UNL A   1      44.228  30.751  36.243  1.00  0.00     0.065 H 
ATOM     32  C   UNL A   1      45.926  28.628  38.205  1.00  0.00     0.059 A 
ATOM     33  H   UNL A   1      45.283  26.664  38.640  1.00  0.00     0.064 H 
ATOM     34  Cl  UNL A   1      46.632  31.205  37.575  1.00  0.00    -0.083 Cl
ATOM     35  Cl  UNL A   1      47.361  28.455  39.153  1.00  0.00    -0.083 Cl
ENDBRANCH  23  25
BRANCH  24  36
ATOM     36  C   UNL A   1      42.266  26.395  34.889  1.00  0.00     0.020 A 
ATOM     37  C   UNL A   1      43.338  25.998  34.085  1.00  0.00    -0.051 A 
ATOM     38  C   UNL A   1      41.541  25.422  35.594  1.00  0.00    -0.051 A 
ATOM     39  C   UNL A   1      43.691  24.648  34.003  1.00  0.00    -0.062 A 
ATOM     40  H   UNL A   1      43.871  26.702  33.551  1.00  0.00     0.063 H 
ATOM     41  C   UNL A   1      41.888  24.074  35.503  1.00  0.00    -0.062 A 
ATOM     42  H   UNL A   1      40.743  25.707  36.184  1.00  0.00     0.063 H 
ATOM     43  C   UNL A   1      42.968  23.690  34.712  1.00  0.00    -0.062 A 
ATOM     44  H   UNL A   1      44.490  24.360  33.416  1.00  0.00     0.062 H 
ATOM     45  H   UNL A   1      41.347  23.365  36.021  1.00  0.00     0.062 H 
ATOM     46  H   UNL A   1      43.232  22.694  34.650  1.00  0.00     0.062 H 
ENDBRANCH  24  36
ENDBRANCH  17  20
ENDBRANCH  14  17
ENDBRANCH  11  14
ENDBRANCH   9  11
ENDBRANCH   4   7
ENDBRANCH   1   4
BRANCH   1  47
ATOM     47  C   UNL A   1      35.027  35.557  32.771  1.00  0.00    -0.052 C 
ATOM     48  H   UNL A   1      35.366  35.179  31.828  1.00  0.00     0.027 H 
ATOM     49  H   UNL A   1      35.140  36.615  32.877  1.00  0.00     0.027 H 
BRANCH  47  50
ATOM     50  C   UNL A   1      33.526  35.282  32.876  1.00  0.00    -0.052 C 
ATOM     51  H   UNL A   1      33.215  35.499  33.876  1.00  0.00     0.027 H 
ATOM     52  H   UNL A   1      33.385  34.255  32.607  1.00  0.00     0.027 H 
BRANCH  50  53
ATOM     53  C   UNL A   1      32.662  36.102  31.918  1.00  0.00    -0.036 C 
ATOM     54  H   UNL A   1      32.493  37.062  32.361  1.00  0.00     0.028 H 
ATOM     55  H   UNL A   1      31.761  35.546  31.769  1.00  0.00     0.028 H 
BRANCH  53  56
ATOM     56  C   UNL A   1      33.274  36.315  30.539  1.00  0.00     0.018 C 
ATOM     57  H   UNL A   1      34.325  36.127  30.598  1.00  0.00     0.049 H 
ATOM     58  H   UNL A   1      33.068  37.324  30.246  1.00  0.00     0.049 H 
BRANCH  56  59
ATOM     59  N   UNL A   1      32.699  35.439  29.530  1.00  0.00    -0.352 N 
ATOM     60  C   UNL A   1      33.273  34.369  28.893  1.00  0.00     0.251 C 
ATOM     61  H   UNL A   1      31.771  35.643  29.268  1.00  0.00     0.163 HD
ATOM     62  O   UNL A   1      32.703  33.830  27.946  1.00  0.00    -0.269 OA
BRANCH  60  63
ATOM     63  C   UNL A   1      34.595  33.878  29.333  1.00  0.00     0.039 A 
ATOM     64  C   UNL A   1      34.655  32.898  30.327  1.00  0.00    -0.049 A 
ATOM     65  C   UNL A   1      35.771  34.381  28.770  1.00  0.00    -0.049 A 
ATOM     66  C   UNL A   1      35.895  32.392  30.724  1.00  0.00    -0.053 A 
ATOM     67  H   UNL A   1      33.788  32.550  30.766  1.00  0.00     0.063 H 
ATOM     68  C   UNL A   1      36.998  33.819  29.108  1.00  0.00    -0.053 A 
ATOM     69  H   UNL A   1      35.729  35.169  28.105  1.00  0.00     0.063 H 
ATOM     70  C   UNL A   1      37.074  32.829  30.101  1.00  0.00    -0.014 A 
ATOM     71  H   UNL A   1      35.944  31.691  31.481  1.00  0.00     0.063 H 
ATOM     72  H   UNL A   1      37.856  34.131  28.628  1.00  0.00     0.063 H 
BRANCH  70  73
ATOM     73  C   UNL A   1      38.400  32.295  30.505  1.00  0.00     0.031 A 
ATOM     74  C   UNL A   1      38.890  30.993  29.931  1.00  0.00     0.074 A 
ATOM     75  C   UNL A   1      39.145  32.957  31.413  1.00  0.00     0.049 A 
ATOM     76  N   UNL A   1      39.983  30.324  30.203  1.00  0.00    -0.248 NA
ATOM     77  C   UNL A   1      38.021  30.339  28.939  1.00  0.00    -0.034 C 
ATOM     78  C   UNL A   1      38.763  34.206  32.073  1.00  0.00    -0.036 A 
ATOM     79  N   UNL A   1      40.376  32.664  31.944  1.00  0.00    -0.354 N 
ATOM     80  C   UNL A   1      39.930  29.179  29.418  1.00  0.00     0.074 A 
ATOM     81  C   UNL A   1      38.666  29.205  28.715  1.00  0.00    -0.034 C 
ATOM     82  H   UNL A   1      37.138  30.677  28.524  1.00  0.00     0.065 H 
ATOM     83  C   UNL A   1      39.747  34.580  32.908  1.00  0.00    -0.036 A 
ATOM     84  H   UNL A   1      37.879  34.716  31.922  1.00  0.00     0.065 H 
ATOM     85  C   UNL A   1      40.810  33.582  32.869  1.00  0.00     0.049 A 
ATOM     86  H   UNL A   1      40.900  31.870  31.686  1.00  0.00     0.167 HD
ATOM     87  C   UNL A   1      40.865  28.212  29.268  1.00  0.00     0.037 A 
ATOM     88  H   UNL A   1      38.315  28.440  28.118  1.00  0.00     0.065 H 
ATOM     89  H   UNL A   1      39.749  35.437  33.484  1.00  0.00     0.065 H 
ATOM     90  C   UNL A   1      41.937  33.608  33.607  1.00  0.00     0.037 A 
ATOM     91  C   UNL A   1      42.128  28.194  29.957  1.00  0.00     0.049 A 
ATOM     92  C   UNL A   1      42.954  32.510  33.431  1.00  0.00     0.074 A 
ATOM     93  C   UNL A   1      43.148  27.263  29.869  1.00  0.00    -0.036 A 
ATOM     94  N   UNL A   1      42.547  29.162  30.859  1.00  0.00    -0.354 N 
ATOM     95  N   UNL A   1      42.912  31.457  32.651  1.00  0.00    -0.248 NA
ATOM     96  C   UNL A   1      44.184  32.613  34.229  1.00  0.00    -0.034 C 
ATOM     97  C   UNL A   1      44.169  27.648  30.744  1.00  0.00    -0.036 A 
ATOM     98  H   UNL A   1      43.154  26.428  29.263  1.00  0.00     0.065 H 
ATOM     99  C   UNL A   1      43.810  28.849  31.334  1.00  0.00     0.049 A 
ATOM    100  H   UNL A   1      42.024  29.953  31.122  1.00  0.00     0.167 HD
ATOM    101  C   UNL A   1      44.123  30.801  32.830  1.00  0.00     0.074 A 
ATOM    102  C   UNL A   1      44.884  31.581  33.782  1.00  0.00    -0.034 C 
ATOM    103  H   UNL A   1      44.437  33.309  34.948  1.00  0.00     0.065 H 
ATOM    104  H   UNL A   1      45.042  27.126  30.919  1.00  0.00     0.065 H 
ATOM    105  C   UNL A   1      44.565  29.654  32.258  1.00  0.00     0.037 A 
ATOM    106  H   UNL A   1      45.847  31.361  34.076  1.00  0.00     0.065 H 
BRANCH  87 107
ATOM    107  C   UNL A   1      40.567  27.101  28.304  1.00  0.00     0.064 A 
ATOM    108  C   UNL A   1      41.232  27.008  27.070  1.00  0.00     0.173 A 
ATOM    109  C   UNL A   1      39.646  26.094  28.628  1.00  0.00     0.173 A 
ATOM    110  F   UNL A   1      42.112  27.951  26.705  1.00  0.00    -0.203 F 
ATOM    111  C   UNL A   1      40.969  25.961  26.191  1.00  0.00     0.198 A 
ATOM    112  C   UNL A   1      39.411  25.031  27.760  1.00  0.00     0.198 A 
ATOM    113  F   UNL A   1      38.986  26.131  29.796  1.00  0.00    -0.203 F 
ATOM    114  F   UNL A   1      41.584  25.919  25.000  1.00  0.00    -0.200 F 
ATOM    115  C   UNL A   1      40.066  24.969  26.540  1.00  0.00     0.200 A 
ATOM    116  F   UNL A   1      38.547  24.064  28.104  1.00  0.00    -0.200 F 
ATOM    117  F   UNL A   1      39.826  23.954  25.698  1.00  0.00    -0.200 F 
ENDBRANCH  87 107
BRANCH  90 118
ATOM    118  C   UNL A   1      42.178  34.714  34.573  1.00  0.00     0.064 A 
ATOM    119  C   UNL A   1      42.706  35.944  34.150  1.00  0.00     0.173 A 
ATOM    120  C   UNL A   1      41.932  34.550  35.944  1.00  0.00     0.173 A 
ATOM    121  F   UNL A   1      42.976  36.145  32.852  1.00  0.00    -0.203 F 
ATOM    122  C   UNL A   1      43.018  36.947  35.065  1.00  0.00     0.198 A 
ATOM    123  C   UNL A   1      42.212  35.569  36.853  1.00  0.00     0.198 A 
ATOM    124  F   UNL A   1      41.421  33.398  36.402  1.00  0.00    -0.203 F 
ATOM    125  F   UNL A   1      43.588  38.083  34.640  1.00  0.00    -0.200 F 
ATOM    126  C   UNL A   1      42.769  36.760  36.416  1.00  0.00     0.200 A 
ATOM    127  F   UNL A   1      41.954  35.389  38.156  1.00  0.00    -0.200 F 
ATOM    128  F   UNL A   1      43.077  37.722  37.296  1.00  0.00    -0.200 F 
ENDBRANCH  90 118
BRANCH 105 129
ATOM    129  C   UNL A   1      45.963  29.214  32.589  1.00  0.00     0.064 A 
ATOM    130  C   UNL A   1      46.234  28.322  33.636  1.00  0.00     0.173 A 
ATOM    131  C   UNL A   1      47.045  29.675  31.823  1.00  0.00     0.173 A 
ATOM    132  F   UNL A   1      45.237  27.861  34.406  1.00  0.00    -0.203 F 
ATOM    133  C   UNL A   1      47.540  27.939  33.929  1.00  0.00     0.198 A 
ATOM    134  C   UNL A   1      48.346  29.262  32.096  1.00  0.00     0.198 A 
ATOM    135  F   UNL A   1      46.841  30.522  30.802  1.00  0.00    -0.203 F 
ATOM    136  F   UNL A   1      47.781  27.133  34.973  1.00  0.00    -0.200 F 
ATOM    137  C   UNL A   1      48.594  28.403  33.156  1.00  0.00     0.200 A 
ATOM    138  F   UNL A   1      49.360  29.699  31.336  1.00  0.00    -0.200 F 
ATOM    139  F   UNL A   1      49.849  28.029  33.437  1.00  0.00    -0.200 F 
ENDBRANCH 105 129
ENDBRANCH  70  73
ENDBRANCH  60  63
ENDBRANCH  56  59
ENDBRANCH  53  56
ENDBRANCH  50  53
ENDBRANCH  47  50
ENDBRANCH   1  47
TORSDOF 18
ENDMDL
MODEL 9
REMARK VINA RESULT:     -11.7      6.023     12.763
REMARK SMILES O=C(CCCc1nc(-c2ccc(Cl)c(Cl)c2)c(-c2ccccc2)o1)NCCCCCCNC(=O)c1ccc(-c2c3nc(c(-c4c(F)c(F)c(F)c(F)c4F)c4ccc([nH]4)c(-c4c(F)c(F)c(F)c(F)c4F)c4nc(c(-c5c(F)c(F)c(F)c(F)c5F)c5ccc2[nH]5)C=C4)C=C3)cc1
REMARK SMILES IDX 27 1 26 4 25 7 1 8 2 9 3 11 4 14 5 17 6 20 7 21 24 22 8 23
REMARK SMILES IDX 17 24 9 25 10 26 16 27 11 28 14 30 12 32 15 34 13 35 18 36
REMARK SMILES IDX 19 37 23 38 20 39 22 41 21 43 28 47 29 50 30 53 31 56 32 59
REMARK SMILES IDX 33 60 34 62 35 63 36 64 97 65 37 66 96 68 38 70 39 73 40 74
REMARK SMILES IDX 90 75 41 76 95 77 89 78 91 79 42 80 94 81 88 83 87 85 43 87
REMARK SMILES IDX 75 90 55 91 74 92 56 93 59 94 73 95 92 96 57 97 58 99 72 101
REMARK SMILES IDX 93 102 60 105 44 107 45 108 53 109 46 110 47 111 51 112
REMARK SMILES IDX 54 113 48 114 49 115 52 116 50 117 76 118 77 119 85 120
REMARK SMILES IDX 78 121 79 122 83 123 86 124 80 125 81 126 84 127 82 128
REMARK SMILES IDX 61 129 62 130 70 131 63 132 64 133 68 134 71 135 65 136
REMARK SMILES IDX 66 137 69 138 67 139
REMARK H PARENT 27 2 27 3 26 5 26 6 25 10 3 12 3 13 4 15 4 16 5 18 5 19 10 29
REMARK H PARENT 16 31 11 33 19 40 23 42 20 44 22 45 21 46 28 48 28 49 29 51
REMARK H PARENT 29 52 30 54 30 55 31 57 31 58 32 61 36 67 97 69 37 71 96 72
REMARK H PARENT 95 82 89 84 91 86 94 88 88 89 56 98 59 100 92 103 57 104
REMARK H PARENT 93 106
REMARK Flexibility Score: inf
ROOT
ATOM      1  C   UNL A   1      44.353  23.121  30.342  1.00  0.00    -0.036 C 
ATOM      2  H   UNL A   1      45.211  23.649  29.982  1.00  0.00     0.028 H 
ATOM      3  H   UNL A   1      44.455  22.058  30.286  1.00  0.00     0.028 H 
ENDROOT
BRANCH   1   4
ATOM      4  C   UNL A   1      43.165  23.485  29.452  1.00  0.00     0.017 C 
ATOM      5  H   UNL A   1      42.267  23.126  29.911  1.00  0.00     0.049 H 
ATOM      6  H   UNL A   1      43.144  24.550  29.346  1.00  0.00     0.049 H 
BRANCH   4   7
ATOM      7  N   UNL A   1      43.281  22.905  28.132  1.00  0.00    -0.356 N 
ATOM      8  O   UNL A   1      41.306  21.740  28.209  1.00  0.00    -0.275 OA
ATOM      9  C   UNL A   1      42.320  22.077  27.607  1.00  0.00     0.220 C 
ATOM     10  H   UNL A   1      44.078  23.111  27.592  1.00  0.00     0.163 HD
BRANCH   9  11
ATOM     11  C   UNL A   1      42.612  21.609  26.197  1.00  0.00     0.027 C 
ATOM     12  H   UNL A   1      42.065  22.225  25.515  1.00  0.00     0.037 H 
ATOM     13  H   UNL A   1      42.318  20.582  26.136  1.00  0.00     0.037 H 
BRANCH  11  14
ATOM     14  C   UNL A   1      44.100  21.681  25.834  1.00  0.00    -0.036 C 
ATOM     15  H   UNL A   1      44.410  20.700  25.542  1.00  0.00     0.028 H 
ATOM     16  H   UNL A   1      44.588  22.058  26.709  1.00  0.00     0.028 H 
BRANCH  14  17
ATOM     17  C   UNL A   1      44.478  22.646  24.707  1.00  0.00     0.025 C 
ATOM     18  H   UNL A   1      43.600  23.175  24.399  1.00  0.00     0.037 H 
ATOM     19  H   UNL A   1      44.891  22.065  23.908  1.00  0.00     0.037 H 
BRANCH  17  20
ATOM     20  C   UNL A   1      45.507  23.634  25.120  1.00  0.00     0.195 A 
ATOM     21  N   UNL A   1      46.530  24.069  24.407  1.00  0.00    -0.213 NA
ATOM     22  O   UNL A   1      45.357  24.236  26.339  1.00  0.00    -0.440 OA
ATOM     23  C   UNL A   1      47.125  24.992  25.230  1.00  0.00     0.117 A 
ATOM     24  C   UNL A   1      46.391  25.134  26.390  1.00  0.00     0.162 A 
BRANCH  23  25
ATOM     25  C   UNL A   1      48.328  25.722  24.901  1.00  0.00     0.006 A 
ATOM     26  C   UNL A   1      48.341  26.607  23.819  1.00  0.00    -0.051 A 
ATOM     27  C   UNL A   1      49.482  25.570  25.684  1.00  0.00    -0.032 A 
ATOM     28  C   UNL A   1      49.485  27.362  23.545  1.00  0.00    -0.041 A 
ATOM     29  H   UNL A   1      47.504  26.703  23.222  1.00  0.00     0.063 H 
ATOM     30  C   UNL A   1      50.630  26.319  25.404  1.00  0.00     0.060 A 
ATOM     31  H   UNL A   1      49.483  24.903  26.470  1.00  0.00     0.065 H 
ATOM     32  C   UNL A   1      50.629  27.223  24.338  1.00  0.00     0.059 A 
ATOM     33  H   UNL A   1      49.486  28.025  22.754  1.00  0.00     0.064 H 
ATOM     34  Cl  UNL A   1      52.006  26.082  26.420  1.00  0.00    -0.083 Cl
ATOM     35  Cl  UNL A   1      51.999  28.202  23.953  1.00  0.00    -0.083 Cl
ENDBRANCH  23  25
BRANCH  24  36
ATOM     36  C   UNL A   1      46.452  26.016  27.537  1.00  0.00     0.020 A 
ATOM     37  C   UNL A   1      46.092  27.362  27.431  1.00  0.00    -0.051 A 
ATOM     38  C   UNL A   1      46.827  25.504  28.789  1.00  0.00    -0.051 A 
ATOM     39  C   UNL A   1      46.088  28.179  28.565  1.00  0.00    -0.062 A 
ATOM     40  H   UNL A   1      45.829  27.755  26.514  1.00  0.00     0.063 H 
ATOM     41  C   UNL A   1      46.832  26.322  29.918  1.00  0.00    -0.062 A 
ATOM     42  H   UNL A   1      47.101  24.512  28.874  1.00  0.00     0.063 H 
ATOM     43  C   UNL A   1      46.456  27.658  29.806  1.00  0.00    -0.062 A 
ATOM     44  H   UNL A   1      45.812  29.170  28.484  1.00  0.00     0.062 H 
ATOM     45  H   UNL A   1      47.112  25.938  30.833  1.00  0.00     0.062 H 
ATOM     46  H   UNL A   1      46.451  28.264  30.641  1.00  0.00     0.062 H 
ENDBRANCH  24  36
ENDBRANCH  17  20
ENDBRANCH  14  17
ENDBRANCH  11  14
ENDBRANCH   9  11
ENDBRANCH   4   7
ENDBRANCH   1   4
BRANCH   1  47
ATOM     47  C   UNL A   1      44.174  23.457  31.827  1.00  0.00    -0.052 C 
ATOM     48  H   UNL A   1      44.024  22.539  32.357  1.00  0.00     0.027 H 
ATOM     49  H   UNL A   1      43.341  24.126  31.880  1.00  0.00     0.027 H 
BRANCH  47  50
ATOM     50  C   UNL A   1      45.345  24.192  32.482  1.00  0.00    -0.052 C 
ATOM     51  H   UNL A   1      45.007  25.162  32.779  1.00  0.00     0.027 H 
ATOM     52  H   UNL A   1      46.129  24.226  31.752  1.00  0.00     0.027 H 
BRANCH  50  53
ATOM     53  C   UNL A   1      45.927  23.493  33.710  1.00  0.00    -0.036 C 
ATOM     54  H   UNL A   1      45.960  22.442  33.511  1.00  0.00     0.028 H 
ATOM     55  H   UNL A   1      45.290  23.743  34.532  1.00  0.00     0.028 H 
BRANCH  53  56
ATOM     56  C   UNL A   1      47.330  23.950  34.093  1.00  0.00     0.018 C 
ATOM     57  H   UNL A   1      47.584  24.806  33.505  1.00  0.00     0.049 H 
ATOM     58  H   UNL A   1      47.997  23.133  33.911  1.00  0.00     0.049 H 
BRANCH  56  59
ATOM     59  N   UNL A   1      47.439  24.301  35.500  1.00  0.00    -0.352 N 
ATOM     60  C   UNL A   1      46.788  25.289  36.193  1.00  0.00     0.251 C 
ATOM     61  H   UNL A   1      48.067  23.755  36.028  1.00  0.00     0.163 HD
ATOM     62  O   UNL A   1      47.114  25.558  37.348  1.00  0.00    -0.269 OA
BRANCH  60  63
ATOM     63  C   UNL A   1      45.704  26.050  35.538  1.00  0.00     0.039 A 
ATOM     64  C   UNL A   1      46.035  27.160  34.757  1.00  0.00    -0.049 A 
ATOM     65  C   UNL A   1      44.367  25.674  35.694  1.00  0.00    -0.049 A 
ATOM     66  C   UNL A   1      45.028  27.866  34.096  1.00  0.00    -0.053 A 
ATOM     67  H   UNL A   1      47.020  27.457  34.669  1.00  0.00     0.063 H 
ATOM     68  C   UNL A   1      43.374  26.328  34.970  1.00  0.00    -0.053 A 
ATOM     69  H   UNL A   1      44.117  24.914  36.345  1.00  0.00     0.063 H 
ATOM     70  C   UNL A   1      43.692  27.441  34.176  1.00  0.00    -0.014 A 
ATOM     71  H   UNL A   1      45.266  28.704  33.544  1.00  0.00     0.063 H 
ATOM     72  H   UNL A   1      42.399  25.993  35.018  1.00  0.00     0.063 H 
BRANCH  70  73
ATOM     73  C   UNL A   1      42.608  28.174  33.473  1.00  0.00     0.031 A 
ATOM     74  C   UNL A   1      42.373  27.935  32.005  1.00  0.00     0.074 A 
ATOM     75  C   UNL A   1      41.865  29.079  34.138  1.00  0.00     0.049 A 
ATOM     76  N   UNL A   1      41.526  28.519  31.194  1.00  0.00    -0.248 NA
ATOM     77  C   UNL A   1      43.221  26.922  31.355  1.00  0.00    -0.034 C 
ATOM     78  C   UNL A   1      42.023  29.432  35.550  1.00  0.00    -0.036 A 
ATOM     79  N   UNL A   1      40.832  29.876  33.712  1.00  0.00    -0.354 N 
ATOM     80  C   UNL A   1      41.741  27.946  29.947  1.00  0.00     0.074 A 
ATOM     81  C   UNL A   1      42.845  27.022  30.089  1.00  0.00    -0.034 C 
ATOM     82  H   UNL A   1      43.925  26.296  31.777  1.00  0.00     0.065 H 
ATOM     83  C   UNL A   1      41.110  30.362  35.876  1.00  0.00    -0.036 A 
ATOM     84  H   UNL A   1      42.726  29.032  36.192  1.00  0.00     0.065 H 
ATOM     85  C   UNL A   1      40.327  30.696  34.691  1.00  0.00     0.049 A 
ATOM     86  H   UNL A   1      40.486  29.862  32.789  1.00  0.00     0.167 HD
ATOM     87  C   UNL A   1      41.058  28.143  28.795  1.00  0.00     0.037 A 
ATOM     88  H   UNL A   1      43.282  26.509  29.308  1.00  0.00     0.065 H 
ATOM     89  H   UNL A   1      40.983  30.773  36.814  1.00  0.00     0.065 H 
ATOM     90  C   UNL A   1      39.347  31.619  34.634  1.00  0.00     0.037 A 
ATOM     91  C   UNL A   1      39.951  29.052  28.657  1.00  0.00     0.049 A 
ATOM     92  C   UNL A   1      38.614  31.830  33.334  1.00  0.00     0.074 A 
ATOM     93  C   UNL A   1      39.186  29.319  27.535  1.00  0.00    -0.036 A 
ATOM     94  N   UNL A   1      39.444  29.837  29.683  1.00  0.00    -0.354 N 
ATOM     95  N   UNL A   1      38.796  31.247  32.174  1.00  0.00    -0.248 NA
ATOM     96  C   UNL A   1      37.524  32.816  33.342  1.00  0.00    -0.034 C 
ATOM     97  C   UNL A   1      38.240  30.292  27.873  1.00  0.00    -0.036 A 
ATOM     98  H   UNL A   1      39.295  28.877  26.609  1.00  0.00     0.065 H 
ATOM     99  C   UNL A   1      38.378  30.590  29.219  1.00  0.00     0.049 A 
ATOM    100  H   UNL A   1      39.792  29.858  30.604  1.00  0.00     0.167 HD
ATOM    101  C   UNL A   1      37.821  31.762  31.331  1.00  0.00     0.074 A 
ATOM    102  C   UNL A   1      37.039  32.693  32.115  1.00  0.00    -0.034 C 
ATOM    103  H   UNL A   1      37.217  33.441  34.104  1.00  0.00     0.065 H 
ATOM    104  H   UNL A   1      37.555  30.717  27.227  1.00  0.00     0.065 H 
ATOM    105  C   UNL A   1      37.592  31.489  30.023  1.00  0.00     0.037 A 
ATOM    106  H   UNL A   1      36.211  33.198  31.765  1.00  0.00     0.065 H 
BRANCH  87 107
ATOM    107  C   UNL A   1      41.474  27.344  27.595  1.00  0.00     0.064 A 
ATOM    108  C   UNL A   1      42.522  27.770  26.762  1.00  0.00     0.173 A 
ATOM    109  C   UNL A   1      40.859  26.119  27.298  1.00  0.00     0.173 A 
ATOM    110  F   UNL A   1      43.135  28.940  26.994  1.00  0.00    -0.203 F 
ATOM    111  C   UNL A   1      42.921  27.012  25.665  1.00  0.00     0.198 A 
ATOM    112  C   UNL A   1      41.283  25.347  26.219  1.00  0.00     0.198 A 
ATOM    113  F   UNL A   1      39.857  25.661  28.063  1.00  0.00    -0.203 F 
ATOM    114  F   UNL A   1      43.892  27.462  24.859  1.00  0.00    -0.200 F 
ATOM    115  C   UNL A   1      42.308  25.797  25.400  1.00  0.00     0.200 A 
ATOM    116  F   UNL A   1      40.700  24.165  25.971  1.00  0.00    -0.200 F 
ATOM    117  F   UNL A   1      42.703  25.060  24.352  1.00  0.00    -0.200 F 
ENDBRANCH  87 107
BRANCH  90 118
ATOM    118  C   UNL A   1      38.987  32.410  35.842  1.00  0.00     0.064 A 
ATOM    119  C   UNL A   1      38.167  31.869  36.844  1.00  0.00     0.173 A 
ATOM    120  C   UNL A   1      39.415  33.736  35.998  1.00  0.00     0.173 A 
ATOM    121  F   UNL A   1      37.716  30.611  36.733  1.00  0.00    -0.203 F 
ATOM    122  C   UNL A   1      37.754  32.637  37.931  1.00  0.00     0.198 A 
ATOM    123  C   UNL A   1      39.029  34.492  37.104  1.00  0.00     0.198 A 
ATOM    124  F   UNL A   1      40.206  34.301  35.074  1.00  0.00    -0.203 F 
ATOM    125  F   UNL A   1      36.913  32.118  38.834  1.00  0.00    -0.200 F 
ATOM    126  C   UNL A   1      38.187  33.948  38.061  1.00  0.00     0.200 A 
ATOM    127  F   UNL A   1      39.464  35.753  37.234  1.00  0.00    -0.200 F 
ATOM    128  F   UNL A   1      37.783  34.689  39.101  1.00  0.00    -0.200 F 
ENDBRANCH  90 118
BRANCH 105 129
ATOM    129  C   UNL A   1      36.406  32.148  29.378  1.00  0.00     0.064 A 
ATOM    130  C   UNL A   1      35.269  31.423  28.994  1.00  0.00     0.173 A 
ATOM    131  C   UNL A   1      36.402  33.536  29.166  1.00  0.00     0.173 A 
ATOM    132  F   UNL A   1      35.228  30.093  29.163  1.00  0.00    -0.203 F 
ATOM    133  C   UNL A   1      34.188  32.056  28.387  1.00  0.00     0.198 A 
ATOM    134  C   UNL A   1      35.304  34.171  28.591  1.00  0.00     0.198 A 
ATOM    135  F   UNL A   1      37.460  34.279  29.524  1.00  0.00    -0.203 F 
ATOM    136  F   UNL A   1      33.138  31.334  27.973  1.00  0.00    -0.200 F 
ATOM    137  C   UNL A   1      34.204  33.429  28.192  1.00  0.00     0.200 A 
ATOM    138  F   UNL A   1      35.315  35.500  28.420  1.00  0.00    -0.200 F 
ATOM    139  F   UNL A   1      33.160  34.037  27.611  1.00  0.00    -0.200 F 
ENDBRANCH 105 129
ENDBRANCH  70  73
ENDBRANCH  60  63
ENDBRANCH  56  59
ENDBRANCH  53  56
ENDBRANCH  50  53
ENDBRANCH  47  50
ENDBRANCH   1  47
TORSDOF 18
ENDMDL
MODEL 10
REMARK VINA RESULT:     -11.6      6.213     10.347
REMARK SMILES O=C(CCCc1nc(-c2ccc(Cl)c(Cl)c2)c(-c2ccccc2)o1)NCCCCCCNC(=O)c1ccc(-c2c3nc(c(-c4c(F)c(F)c(F)c(F)c4F)c4ccc([nH]4)c(-c4c(F)c(F)c(F)c(F)c4F)c4nc(c(-c5c(F)c(F)c(F)c(F)c5F)c5ccc2[nH]5)C=C4)C=C3)cc1
REMARK SMILES IDX 27 1 26 4 25 7 1 8 2 9 3 11 4 14 5 17 6 20 7 21 24 22 8 23
REMARK SMILES IDX 17 24 9 25 10 26 16 27 11 28 14 30 12 32 15 34 13 35 18 36
REMARK SMILES IDX 19 37 23 38 20 39 22 41 21 43 28 47 29 50 30 53 31 56 32 59
REMARK SMILES IDX 33 60 34 62 35 63 36 64 97 65 37 66 96 68 38 70 39 73 40 74
REMARK SMILES IDX 90 75 41 76 95 77 89 78 91 79 42 80 94 81 88 83 87 85 43 87
REMARK SMILES IDX 75 90 55 91 74 92 56 93 59 94 73 95 92 96 57 97 58 99 72 101
REMARK SMILES IDX 93 102 60 105 44 107 45 108 53 109 46 110 47 111 51 112
REMARK SMILES IDX 54 113 48 114 49 115 52 116 50 117 76 118 77 119 85 120
REMARK SMILES IDX 78 121 79 122 83 123 86 124 80 125 81 126 84 127 82 128
REMARK SMILES IDX 61 129 62 130 70 131 63 132 64 133 68 134 71 135 65 136
REMARK SMILES IDX 66 137 69 138 67 139
REMARK H PARENT 27 2 27 3 26 5 26 6 25 10 3 12 3 13 4 15 4 16 5 18 5 19 10 29
REMARK H PARENT 16 31 11 33 19 40 23 42 20 44 22 45 21 46 28 48 28 49 29 51
REMARK H PARENT 29 52 30 54 30 55 31 57 31 58 32 61 36 67 97 69 37 71 96 72
REMARK H PARENT 95 82 89 84 91 86 94 88 88 89 56 98 59 100 92 103 57 104
REMARK H PARENT 93 106
REMARK Flexibility Score: inf
ROOT
ATOM      1  C   UNL A   1      45.125  22.000  24.177  1.00  0.00    -0.036 C 
ATOM      2  H   UNL A   1      44.581  21.520  23.391  1.00  0.00     0.028 H 
ATOM      3  H   UNL A   1      46.057  22.416  23.854  1.00  0.00     0.028 H 
ENDROOT
BRANCH   1   4
ATOM      4  C   UNL A   1      45.467  20.947  25.230  1.00  0.00     0.017 C 
ATOM      5  H   UNL A   1      46.107  20.212  24.788  1.00  0.00     0.049 H 
ATOM      6  H   UNL A   1      45.952  21.441  26.047  1.00  0.00     0.049 H 
BRANCH   4   7
ATOM      7  N   UNL A   1      44.284  20.291  25.741  1.00  0.00    -0.356 N 
ATOM      8  O   UNL A   1      44.672  18.271  24.723  1.00  0.00    -0.275 OA
ATOM      9  C   UNL A   1      43.986  18.983  25.450  1.00  0.00     0.220 C 
ATOM     10  H   UNL A   1      43.670  20.801  26.318  1.00  0.00     0.163 HD
BRANCH   9  11
ATOM     11  C   UNL A   1      42.726  18.473  26.117  1.00  0.00     0.027 C 
ATOM     12  H   UNL A   1      42.881  18.462  27.175  1.00  0.00     0.037 H 
ATOM     13  H   UNL A   1      42.535  17.494  25.729  1.00  0.00     0.037 H 
BRANCH  11  14
ATOM     14  C   UNL A   1      41.494  19.333  25.812  1.00  0.00    -0.036 C 
ATOM     15  H   UNL A   1      40.789  18.718  25.294  1.00  0.00     0.028 H 
ATOM     16  H   UNL A   1      41.860  20.163  25.244  1.00  0.00     0.028 H 
BRANCH  14  17
ATOM     17  C   UNL A   1      40.780  19.948  27.020  1.00  0.00     0.025 C 
ATOM     18  H   UNL A   1      40.996  19.356  27.885  1.00  0.00     0.037 H 
ATOM     19  H   UNL A   1      39.732  19.964  26.802  1.00  0.00     0.037 H 
BRANCH  17  20
ATOM     20  C   UNL A   1      41.204  21.347  27.285  1.00  0.00     0.195 A 
ATOM     21  N   UNL A   1      40.539  22.451  27.001  1.00  0.00    -0.213 NA
ATOM     22  O   UNL A   1      42.371  21.538  27.971  1.00  0.00    -0.440 OA
ATOM     23  C   UNL A   1      41.344  23.447  27.494  1.00  0.00     0.117 A 
ATOM     24  C   UNL A   1      42.440  22.898  28.128  1.00  0.00     0.162 A 
BRANCH  23  25
ATOM     25  C   UNL A   1      41.057  24.859  27.383  1.00  0.00     0.006 A 
ATOM     26  C   UNL A   1      41.549  25.595  26.301  1.00  0.00    -0.051 A 
ATOM     27  C   UNL A   1      40.256  25.493  28.344  1.00  0.00    -0.032 A 
ATOM     28  C   UNL A   1      41.213  26.944  26.161  1.00  0.00    -0.041 A 
ATOM     29  H   UNL A   1      42.162  25.140  25.605  1.00  0.00     0.063 H 
ATOM     30  C   UNL A   1      39.927  26.846  28.209  1.00  0.00     0.060 A 
ATOM     31  H   UNL A   1      39.908  24.959  29.155  1.00  0.00     0.065 H 
ATOM     32  C   UNL A   1      40.398  27.571  27.110  1.00  0.00     0.059 A 
ATOM     33  H   UNL A   1      41.567  27.481  25.353  1.00  0.00     0.064 H 
ATOM     34  Cl  UNL A   1      38.928  27.552  29.428  1.00  0.00    -0.083 Cl
ATOM     35  Cl  UNL A   1      40.008  29.236  26.863  1.00  0.00    -0.083 Cl
ENDBRANCH  23  25
BRANCH  24  36
ATOM     36  C   UNL A   1      43.535  23.423  28.917  1.00  0.00     0.020 A 
ATOM     37  C   UNL A   1      44.613  24.074  28.310  1.00  0.00    -0.051 A 
ATOM     38  C   UNL A   1      43.492  23.328  30.317  1.00  0.00    -0.051 A 
ATOM     39  C   UNL A   1      45.623  24.639  29.094  1.00  0.00    -0.062 A 
ATOM     40  H   UNL A   1      44.664  24.139  27.282  1.00  0.00     0.063 H 
ATOM     41  C   UNL A   1      44.506  23.883  31.097  1.00  0.00    -0.062 A 
ATOM     42  H   UNL A   1      42.703  22.842  30.772  1.00  0.00     0.063 H 
ATOM     43  C   UNL A   1      45.567  24.544  30.484  1.00  0.00    -0.062 A 
ATOM     44  H   UNL A   1      46.412  25.127  28.643  1.00  0.00     0.062 H 
ATOM     45  H   UNL A   1      44.468  23.805  32.125  1.00  0.00     0.062 H 
ATOM     46  H   UNL A   1      46.314  24.963  31.060  1.00  0.00     0.062 H 
ENDBRANCH  24  36
ENDBRANCH  17  20
ENDBRANCH  14  17
ENDBRANCH  11  14
ENDBRANCH   9  11
ENDBRANCH   4   7
ENDBRANCH   1   4
BRANCH   1  47
ATOM     47  C   UNL A   1      44.285  23.176  24.688  1.00  0.00    -0.052 C 
ATOM     48  H   UNL A   1      43.796  22.865  25.589  1.00  0.00     0.027 H 
ATOM     49  H   UNL A   1      43.610  23.423  23.896  1.00  0.00     0.027 H 
BRANCH  47  50
ATOM     50  C   UNL A   1      45.062  24.458  24.993  1.00  0.00    -0.052 C 
ATOM     51  H   UNL A   1      44.651  24.896  25.877  1.00  0.00     0.027 H 
ATOM     52  H   UNL A   1      44.966  25.084  24.130  1.00  0.00     0.027 H 
BRANCH  50  53
ATOM     53  C   UNL A   1      46.561  24.254  25.214  1.00  0.00    -0.036 C 
ATOM     54  H   UNL A   1      46.982  23.867  24.310  1.00  0.00     0.028 H 
ATOM     55  H   UNL A   1      46.657  23.582  26.041  1.00  0.00     0.028 H 
BRANCH  53  56
ATOM     56  C   UNL A   1      47.323  25.519  25.592  1.00  0.00     0.018 C 
ATOM     57  H   UNL A   1      48.330  25.252  25.835  1.00  0.00     0.049 H 
ATOM     58  H   UNL A   1      46.819  25.963  26.424  1.00  0.00     0.049 H 
BRANCH  56  59
ATOM     59  N   UNL A   1      47.347  26.499  24.517  1.00  0.00    -0.352 N 
ATOM     60  C   UNL A   1      46.809  27.761  24.493  1.00  0.00     0.251 C 
ATOM     61  H   UNL A   1      47.812  26.220  23.696  1.00  0.00     0.163 HD
ATOM     62  O   UNL A   1      46.779  28.404  23.445  1.00  0.00    -0.269 OA
BRANCH  60  63
ATOM     63  C   UNL A   1      46.240  28.339  25.728  1.00  0.00     0.039 A 
ATOM     64  C   UNL A   1      47.087  29.013  26.610  1.00  0.00    -0.049 A 
ATOM     65  C   UNL A   1      44.878  28.215  26.017  1.00  0.00    -0.049 A 
ATOM     66  C   UNL A   1      46.559  29.602  27.761  1.00  0.00    -0.053 A 
ATOM     67  H   UNL A   1      48.099  29.076  26.413  1.00  0.00     0.063 H 
ATOM     68  C   UNL A   1      44.341  28.871  27.121  1.00  0.00    -0.053 A 
ATOM     69  H   UNL A   1      44.272  27.638  25.413  1.00  0.00     0.063 H 
ATOM     70  C   UNL A   1      45.178  29.558  28.013  1.00  0.00    -0.014 A 
ATOM     71  H   UNL A   1      47.187  30.074  28.431  1.00  0.00     0.063 H 
ATOM     72  H   UNL A   1      43.323  28.852  27.284  1.00  0.00     0.063 H 
BRANCH  70  73
ATOM     73  C   UNL A   1      44.598  30.187  29.227  1.00  0.00     0.031 A 
ATOM     74  C   UNL A   1      44.343  31.670  29.254  1.00  0.00     0.074 A 
ATOM     75  C   UNL A   1      44.338  29.436  30.316  1.00  0.00     0.049 A 
ATOM     76  N   UNL A   1      43.907  32.420  30.235  1.00  0.00    -0.248 NA
ATOM     77  C   UNL A   1      44.645  32.415  28.021  1.00  0.00    -0.034 C 
ATOM     78  C   UNL A   1      44.580  27.997  30.430  1.00  0.00    -0.036 A 
ATOM     79  N   UNL A   1      43.820  29.782  31.539  1.00  0.00    -0.354 N 
ATOM     80  C   UNL A   1      43.883  33.716  29.738  1.00  0.00     0.074 A 
ATOM     81  C   UNL A   1      44.417  33.665  28.394  1.00  0.00    -0.034 C 
ATOM     82  H   UNL A   1      44.953  32.057  27.103  1.00  0.00     0.065 H 
ATOM     83  C   UNL A   1      44.197  27.582  31.649  1.00  0.00    -0.036 A 
ATOM     84  H   UNL A   1      44.983  27.398  29.693  1.00  0.00     0.065 H 
ATOM     85  C   UNL A   1      43.716  28.728  32.413  1.00  0.00     0.049 A 
ATOM     86  H   UNL A   1      43.549  30.702  31.768  1.00  0.00     0.167 HD
ATOM     87  C   UNL A   1      43.424  34.843  30.332  1.00  0.00     0.037 A 
ATOM     88  H   UNL A   1      44.596  34.493  27.805  1.00  0.00     0.065 H 
ATOM     89  H   UNL A   1      44.236  26.608  31.989  1.00  0.00     0.065 H 
ATOM     90  C   UNL A   1      43.287  28.695  33.690  1.00  0.00     0.037 A 
ATOM     91  C   UNL A   1      42.880  34.891  31.663  1.00  0.00     0.049 A 
ATOM     92  C   UNL A   1      42.797  29.967  34.332  1.00  0.00     0.074 A 
ATOM     93  C   UNL A   1      42.381  35.982  32.354  1.00  0.00    -0.036 A 
ATOM     94  N   UNL A   1      42.757  33.795  32.504  1.00  0.00    -0.354 N 
ATOM     95  N   UNL A   1      42.736  31.178  33.833  1.00  0.00    -0.248 NA
ATOM     96  C   UNL A   1      42.299  29.863  35.710  1.00  0.00    -0.034 C 
ATOM     97  C   UNL A   1      41.989  35.551  33.626  1.00  0.00    -0.036 A 
ATOM     98  H   UNL A   1      42.311  36.946  31.994  1.00  0.00     0.065 H 
ATOM     99  C   UNL A   1      42.190  34.183  33.706  1.00  0.00     0.049 A 
ATOM    100  H   UNL A   1      43.032  32.876  32.279  1.00  0.00     0.167 HD
ATOM    101  C   UNL A   1      42.155  31.967  34.817  1.00  0.00     0.074 A 
ATOM    102  C   UNL A   1      41.868  31.095  35.936  1.00  0.00    -0.034 C 
ATOM    103  H   UNL A   1      42.287  29.044  36.339  1.00  0.00     0.065 H 
ATOM    104  H   UNL A   1      41.613  36.152  34.377  1.00  0.00     0.065 H 
ATOM    105  C   UNL A   1      41.883  33.295  34.798  1.00  0.00     0.037 A 
ATOM    106  H   UNL A   1      41.390  31.395  36.799  1.00  0.00     0.065 H 
BRANCH  87 107
ATOM    107  C   UNL A   1      43.470  36.115  29.536  1.00  0.00     0.064 A 
ATOM    108  C   UNL A   1      44.562  36.994  29.626  1.00  0.00     0.173 A 
ATOM    109  C   UNL A   1      42.440  36.441  28.640  1.00  0.00     0.173 A 
ATOM    110  F   UNL A   1      45.566  36.736  30.477  1.00  0.00    -0.203 F 
ATOM    111  C   UNL A   1      44.611  38.159  28.867  1.00  0.00     0.198 A 
ATOM    112  C   UNL A   1      42.509  37.591  27.858  1.00  0.00     0.198 A 
ATOM    113  F   UNL A   1      41.376  35.635  28.511  1.00  0.00    -0.203 F 
ATOM    114  F   UNL A   1      45.642  39.003  29.004  1.00  0.00    -0.200 F 
ATOM    115  C   UNL A   1      43.589  38.452  27.977  1.00  0.00     0.200 A 
ATOM    116  F   UNL A   1      41.527  37.867  26.987  1.00  0.00    -0.200 F 
ATOM    117  F   UNL A   1      43.644  39.568  27.236  1.00  0.00    -0.200 F 
ENDBRANCH  87 107
BRANCH  90 118
ATOM    118  C   UNL A   1      43.287  27.415  34.451  1.00  0.00     0.064 A 
ATOM    119  C   UNL A   1      42.113  26.661  34.599  1.00  0.00     0.173 A 
ATOM    120  C   UNL A   1      44.446  26.945  35.084  1.00  0.00     0.173 A 
ATOM    121  F   UNL A   1      40.973  27.078  34.028  1.00  0.00    -0.203 F 
ATOM    122  C   UNL A   1      42.089  25.512  35.386  1.00  0.00     0.198 A 
ATOM    123  C   UNL A   1      44.429  25.776  35.842  1.00  0.00     0.198 A 
ATOM    124  F   UNL A   1      45.598  27.623  34.968  1.00  0.00    -0.203 F 
ATOM    125  F   UNL A   1      40.938  24.852  35.569  1.00  0.00    -0.200 F 
ATOM    126  C   UNL A   1      43.248  25.068  36.005  1.00  0.00     0.200 A 
ATOM    127  F   UNL A   1      45.555  25.342  36.425  1.00  0.00    -0.200 F 
ATOM    128  F   UNL A   1      43.223  23.968  36.769  1.00  0.00    -0.200 F 
ENDBRANCH  90 118
BRANCH 105 129
ATOM    129  C   UNL A   1      41.176  33.872  35.990  1.00  0.00     0.064 A 
ATOM    130  C   UNL A   1      41.863  34.557  37.004  1.00  0.00     0.173 A 
ATOM    131  C   UNL A   1      39.781  33.759  36.104  1.00  0.00     0.173 A 
ATOM    132  F   UNL A   1      43.197  34.682  36.949  1.00  0.00    -0.203 F 
ATOM    133  C   UNL A   1      41.185  35.072  38.105  1.00  0.00     0.198 A 
ATOM    134  C   UNL A   1      39.103  34.306  37.189  1.00  0.00     0.198 A 
ATOM    135  F   UNL A   1      39.074  33.123  35.157  1.00  0.00    -0.203 F 
ATOM    136  F   UNL A   1      41.869  35.668  39.091  1.00  0.00    -0.200 F 
ATOM    137  C   UNL A   1      39.806  34.952  38.194  1.00  0.00     0.200 A 
ATOM    138  F   UNL A   1      37.768  34.204  37.263  1.00  0.00    -0.200 F 
ATOM    139  F   UNL A   1      39.155  35.453  39.253  1.00  0.00    -0.200 F 
ENDBRANCH 105 129
ENDBRANCH  70  73
ENDBRANCH  60  63
ENDBRANCH  56  59
ENDBRANCH  53  56
ENDBRANCH  50  53
ENDBRANCH  47  50
ENDBRANCH   1  47
TORSDOF 18
ENDMDL
