MODEL 1
REMARK VINA RESULT:      -8.1      0.000      0.000
REMARK SMILES CC(C)C[C@H](NC(=O)CNC(=O)[C@@H]([NH3+])C(C)C)C(=O)NCCCCCCNC(=O)c1ccc(-c2c3nc(c(-c4c(F)c(F)c(F)c(F)c4F)c4ccc([nH]4)c(-c4c(F)c(F)c(F)c(F)c4F)c4nc(c(-c5c(F)c(F)c(F)c(F)c5F)c5ccc2[nH]5)C=C4)C=C3)cc1
REMARK SMILES IDX 21 1 20 4 18 5 19 6 5 8 4 10 2 13 1 15 3 19 6 23 7 24 8 26
REMARK SMILES IDX 9 27 10 30 11 31 12 33 13 34 14 36 15 40 16 42 17 46 22 50
REMARK SMILES IDX 23 53 24 56 25 59 26 62 27 65 28 66 29 68 30 69 31 70 92 71
REMARK SMILES IDX 32 72 91 74 33 76 34 79 35 80 85 81 36 82 90 83 84 84 86 85
REMARK SMILES IDX 37 86 89 87 83 89 82 91 38 93 70 96 50 97 69 98 51 99 54 100
REMARK SMILES IDX 68 101 87 102 52 103 53 105 67 107 88 108 55 111 39 113
REMARK SMILES IDX 40 114 48 115 41 116 42 117 46 118 49 119 43 120 44 121
REMARK SMILES IDX 47 122 45 123 71 124 72 125 80 126 73 127 74 128 78 129
REMARK SMILES IDX 81 130 75 131 76 132 79 133 77 134 56 135 57 136 65 137
REMARK SMILES IDX 58 138 59 139 63 140 66 141 60 142 61 143 64 144 62 145
REMARK H PARENT 21 2 21 3 20 7 5 9 4 11 4 12 2 14 1 16 1 17 1 18 3 20 3 21
REMARK H PARENT 3 22 6 25 9 28 9 29 10 32 13 35 14 37 14 38 14 39 15 41 16 43
REMARK H PARENT 16 44 16 45 17 47 17 48 17 49 22 51 22 52 23 54 23 55 24 57
REMARK H PARENT 24 58 25 60 25 61 26 63 26 64 27 67 31 73 92 75 32 77 91 78
REMARK H PARENT 90 88 84 90 86 92 89 94 83 95 51 104 54 106 87 109 52 110
REMARK H PARENT 88 112
REMARK Flexibility Score: inf
ROOT
ATOM      1  C   UNL A   1      38.083  30.772  33.469  1.00  0.00     0.017 C 
ATOM      2  H   UNL A   1      38.478  29.906  32.981  1.00  0.00     0.049 H 
ATOM      3  H   UNL A   1      38.799  31.567  33.458  1.00  0.00     0.049 H 
ENDROOT
BRANCH   1   4
ATOM      4  N   UNL A   1      37.777  30.445  34.843  1.00  0.00    -0.354 N 
ATOM      5  C   UNL A   1      38.375  30.847  35.996  1.00  0.00     0.242 C 
ATOM      6  O   UNL A   1      37.831  30.536  37.061  1.00  0.00    -0.273 OA
ATOM      7  H   UNL A   1      37.014  29.836  34.963  1.00  0.00     0.163 HD
BRANCH   5   8
ATOM      8  C   UNL A   1      39.610  31.765  35.983  1.00  0.00     0.108 C 
ATOM      9  H   UNL A   1      39.364  32.609  36.593  1.00  0.00     0.063 H 
BRANCH   8  10
ATOM     10  C   UNL A   1      39.908  32.331  34.586  1.00  0.00    -0.021 C 
ATOM     11  H   UNL A   1      40.924  32.102  34.342  1.00  0.00     0.030 H 
ATOM     12  H   UNL A   1      39.205  31.880  33.918  1.00  0.00     0.030 H 
BRANCH  10  13
ATOM     13  C   UNL A   1      39.715  33.863  34.460  1.00  0.00    -0.045 C 
ATOM     14  H   UNL A   1      40.404  34.314  35.143  1.00  0.00     0.030 H 
BRANCH  13  15
ATOM     15  C   UNL A   1      40.036  34.396  33.066  1.00  0.00    -0.063 C 
ATOM     16  H   UNL A   1      39.230  35.014  32.726  1.00  0.00     0.023 H 
ATOM     17  H   UNL A   1      40.164  33.576  32.391  1.00  0.00     0.023 H 
ATOM     18  H   UNL A   1      40.936  34.972  33.103  1.00  0.00     0.023 H 
ENDBRANCH  13  15
BRANCH  13  19
ATOM     19  C   UNL A   1      38.273  34.232  34.811  1.00  0.00    -0.063 C 
ATOM     20  H   UNL A   1      38.256  34.754  35.745  1.00  0.00     0.023 H 
ATOM     21  H   UNL A   1      37.686  33.340  34.891  1.00  0.00     0.023 H 
ATOM     22  H   UNL A   1      37.868  34.859  34.045  1.00  0.00     0.023 H 
ENDBRANCH  13  19
ENDBRANCH  10  13
ENDBRANCH   8  10
BRANCH   8  23
ATOM     23  N   UNL A   1      40.778  31.143  36.607  1.00  0.00    -0.343 N 
ATOM     24  C   UNL A   1      41.476  30.030  36.248  1.00  0.00     0.240 C 
ATOM     25  H   UNL A   1      41.113  31.601  37.411  1.00  0.00     0.164 HD
ATOM     26  O   UNL A   1      42.565  29.861  36.808  1.00  0.00    -0.273 OA
BRANCH  24  27
ATOM     27  C   UNL A   1      41.036  29.097  35.111  1.00  0.00     0.097 C 
ATOM     28  H   UNL A   1      40.290  29.604  34.537  1.00  0.00     0.059 H 
ATOM     29  H   UNL A   1      40.682  28.204  35.585  1.00  0.00     0.059 H 
BRANCH  27  30
ATOM     30  N   UNL A   1      42.088  28.674  34.204  1.00  0.00    -0.342 N 
ATOM     31  C   UNL A   1      42.781  27.504  34.140  1.00  0.00     0.278 C 
ATOM     32  H   UNL A   1      42.341  29.342  33.527  1.00  0.00     0.164 HD
ATOM     33  O   UNL A   1      43.587  27.393  33.210  1.00  0.00    -0.268 OA
BRANCH  31  34
ATOM     34  C   UNL A   1      42.557  26.323  35.123  1.00  0.00     0.166 C 
ATOM     35  H   UNL A   1      42.798  26.669  36.106  1.00  0.00     0.107 H 
BRANCH  34  36
ATOM     36  N   UNL A   1      41.143  25.900  35.180  1.00  0.00    -0.347 N 
ATOM     37  H   UNL A   1      41.042  24.989  34.733  1.00  0.00     0.345 HD
ATOM     38  H   UNL A   1      40.563  26.583  34.694  1.00  0.00     0.345 HD
ATOM     39  H   UNL A   1      40.846  25.834  36.154  1.00  0.00     0.345 HD
ENDBRANCH  34  36
BRANCH  34  40
ATOM     40  C   UNL A   1      43.508  25.152  34.794  1.00  0.00     0.015 C 
ATOM     41  H   UNL A   1      43.767  25.245  33.760  1.00  0.00     0.036 H 
BRANCH  40  42
ATOM     42  C   UNL A   1      44.768  25.223  35.668  1.00  0.00    -0.057 C 
ATOM     43  H   UNL A   1      44.552  25.770  36.561  1.00  0.00     0.024 H 
ATOM     44  H   UNL A   1      45.549  25.714  35.127  1.00  0.00     0.024 H 
ATOM     45  H   UNL A   1      45.081  24.232  35.923  1.00  0.00     0.024 H 
ENDBRANCH  40  42
BRANCH  40  46
ATOM     46  C   UNL A   1      42.836  23.790  35.012  1.00  0.00    -0.057 C 
ATOM     47  H   UNL A   1      42.624  23.340  34.065  1.00  0.00     0.024 H 
ATOM     48  H   UNL A   1      41.923  23.925  35.555  1.00  0.00     0.024 H 
ATOM     49  H   UNL A   1      43.491  23.153  35.570  1.00  0.00     0.024 H 
ENDBRANCH  40  46
ENDBRANCH  34  40
ENDBRANCH  31  34
ENDBRANCH  27  30
ENDBRANCH  24  27
ENDBRANCH   8  23
ENDBRANCH   5   8
ENDBRANCH   1   4
BRANCH   1  50
ATOM     50  C   UNL A   1      36.835  31.234  32.726  1.00  0.00    -0.036 C 
ATOM     51  H   UNL A   1      36.143  31.628  33.442  1.00  0.00     0.028 H 
ATOM     52  H   UNL A   1      36.446  30.381  32.210  1.00  0.00     0.028 H 
BRANCH  50  53
ATOM     53  C   UNL A   1      37.107  32.311  31.671  1.00  0.00    -0.052 C 
ATOM     54  H   UNL A   1      37.247  31.825  30.728  1.00  0.00     0.027 H 
ATOM     55  H   UNL A   1      37.972  32.845  32.003  1.00  0.00     0.027 H 
BRANCH  53  56
ATOM     56  C   UNL A   1      35.991  33.350  31.512  1.00  0.00    -0.052 C 
ATOM     57  H   UNL A   1      36.411  34.221  31.055  1.00  0.00     0.027 H 
ATOM     58  H   UNL A   1      35.608  33.531  32.495  1.00  0.00     0.027 H 
BRANCH  56  59
ATOM     59  C   UNL A   1      34.802  32.893  30.664  1.00  0.00    -0.036 C 
ATOM     60  H   UNL A   1      34.024  33.622  30.760  1.00  0.00     0.028 H 
ATOM     61  H   UNL A   1      34.517  31.930  31.030  1.00  0.00     0.028 H 
BRANCH  59  62
ATOM     62  C   UNL A   1      35.116  32.724  29.184  1.00  0.00     0.018 C 
ATOM     63  H   UNL A   1      36.141  32.440  29.077  1.00  0.00     0.049 H 
ATOM     64  H   UNL A   1      34.921  33.656  28.695  1.00  0.00     0.049 H 
BRANCH  62  65
ATOM     65  N   UNL A   1      34.280  31.709  28.565  1.00  0.00    -0.352 N 
ATOM     66  C   UNL A   1      34.636  30.483  28.069  1.00  0.00     0.251 C 
ATOM     67  H   UNL A   1      33.324  31.935  28.490  1.00  0.00     0.163 HD
ATOM     68  O   UNL A   1      33.846  29.832  27.390  1.00  0.00    -0.269 OA
BRANCH  66  69
ATOM     69  C   UNL A   1      35.989  29.957  28.339  1.00  0.00     0.039 A 
ATOM     70  C   UNL A   1      36.977  30.115  27.366  1.00  0.00    -0.049 A 
ATOM     71  C   UNL A   1      36.283  29.330  29.554  1.00  0.00    -0.049 A 
ATOM     72  C   UNL A   1      38.279  29.698  27.637  1.00  0.00    -0.053 A 
ATOM     73  H   UNL A   1      36.746  30.537  26.453  1.00  0.00     0.063 H 
ATOM     74  C   UNL A   1      37.598  28.989  29.853  1.00  0.00    -0.053 A 
ATOM     75  H   UNL A   1      35.528  29.123  30.225  1.00  0.00     0.063 H 
ATOM     76  C   UNL A   1      38.608  29.169  28.897  1.00  0.00    -0.014 A 
ATOM     77  H   UNL A   1      39.007  29.779  26.908  1.00  0.00     0.063 H 
ATOM     78  H   UNL A   1      37.830  28.602  30.780  1.00  0.00     0.063 H 
BRANCH  76  79
ATOM     79  C   UNL A   1      40.010  28.823  29.236  1.00  0.00     0.031 A 
ATOM     80  C   UNL A   1      40.874  29.794  29.986  1.00  0.00     0.074 A 
ATOM     81  C   UNL A   1      40.521  27.653  28.807  1.00  0.00     0.049 A 
ATOM     82  N   UNL A   1      42.133  29.687  30.329  1.00  0.00    -0.248 NA
ATOM     83  C   UNL A   1      40.248  31.065  30.380  1.00  0.00    -0.034 C 
ATOM     84  C   UNL A   1      39.796  26.655  28.019  1.00  0.00    -0.036 A 
ATOM     85  N   UNL A   1      41.773  27.112  28.960  1.00  0.00    -0.354 N 
ATOM     86  C   UNL A   1      42.449  30.875  30.974  1.00  0.00     0.074 A 
ATOM     87  C   UNL A   1      41.271  31.714  30.915  1.00  0.00    -0.034 C 
ATOM     88  H   UNL A   1      39.269  31.371  30.269  1.00  0.00     0.065 H 
ATOM     89  C   UNL A   1      40.608  25.616  27.775  1.00  0.00    -0.036 A 
ATOM     90  H   UNL A   1      38.817  26.738  27.703  1.00  0.00     0.065 H 
ATOM     91  C   UNL A   1      41.921  25.892  28.349  1.00  0.00     0.049 A 
ATOM     92  H   UNL A   1      42.495  27.557  29.460  1.00  0.00     0.167 HD
ATOM     93  C   UNL A   1      43.607  31.223  31.585  1.00  0.00     0.037 A 
ATOM     94  H   UNL A   1      41.232  32.691  31.245  1.00  0.00     0.065 H 
ATOM     95  H   UNL A   1      40.347  24.758  27.262  1.00  0.00     0.065 H 
ATOM     96  C   UNL A   1      42.999  25.091  28.251  1.00  0.00     0.037 A 
ATOM     97  C   UNL A   1      44.776  30.383  31.637  1.00  0.00     0.049 A 
ATOM     98  C   UNL A   1      44.283  25.507  28.911  1.00  0.00     0.074 A 
ATOM     99  C   UNL A   1      45.981  30.616  32.276  1.00  0.00    -0.036 A 
ATOM    100  N   UNL A   1      44.890  29.148  31.011  1.00  0.00    -0.354 N 
ATOM    101  N   UNL A   1      44.548  26.597  29.590  1.00  0.00    -0.248 NA
ATOM    102  C   UNL A   1      45.416  24.580  28.798  1.00  0.00    -0.034 C 
ATOM    103  C   UNL A   1      46.844  29.554  31.983  1.00  0.00    -0.036 A 
ATOM    104  H   UNL A   1      46.205  31.433  32.864  1.00  0.00     0.065 H 
ATOM    105  C   UNL A   1      46.157  28.625  31.217  1.00  0.00     0.049 A 
ATOM    106  H   UNL A   1      44.175  28.708  30.497  1.00  0.00     0.167 HD
ATOM    107  C   UNL A   1      45.870  26.482  29.998  1.00  0.00     0.074 A 
ATOM    108  C   UNL A   1      46.345  25.203  29.509  1.00  0.00    -0.034 C 
ATOM    109  H   UNL A   1      45.474  23.679  28.296  1.00  0.00     0.065 H 
ATOM    110  H   UNL A   1      47.827  29.475  32.288  1.00  0.00     0.065 H 
ATOM    111  C   UNL A   1      46.622  27.357  30.711  1.00  0.00     0.037 A 
ATOM    112  H   UNL A   1      47.288  24.826  29.691  1.00  0.00     0.065 H 
BRANCH  93 113
ATOM    113  C   UNL A   1      43.664  32.578  32.234  1.00  0.00     0.064 A 
ATOM    114  C   UNL A   1      43.450  32.747  33.611  1.00  0.00     0.173 A 
ATOM    115  C   UNL A   1      43.940  33.724  31.473  1.00  0.00     0.173 A 
ATOM    116  F   UNL A   1      43.173  31.686  34.386  1.00  0.00    -0.203 F 
ATOM    117  C   UNL A   1      43.462  34.012  34.193  1.00  0.00     0.198 A 
ATOM    118  C   UNL A   1      43.990  34.984  32.064  1.00  0.00     0.198 A 
ATOM    119  F   UNL A   1      44.161  33.624  30.153  1.00  0.00    -0.203 F 
ATOM    120  F   UNL A   1      43.185  34.151  35.496  1.00  0.00    -0.200 F 
ATOM    121  C   UNL A   1      43.737  35.129  33.420  1.00  0.00     0.200 A 
ATOM    122  F   UNL A   1      44.272  36.062  31.317  1.00  0.00    -0.200 F 
ATOM    123  F   UNL A   1      43.749  36.347  33.979  1.00  0.00    -0.200 F 
ENDBRANCH  93 113
BRANCH  96 124
ATOM    124  C   UNL A   1      42.893  23.813  27.500  1.00  0.00     0.064 A 
ATOM    125  C   UNL A   1      42.407  22.650  28.113  1.00  0.00     0.173 A 
ATOM    126  C   UNL A   1      43.245  23.738  26.143  1.00  0.00     0.173 A 
ATOM    127  F   UNL A   1      42.074  22.668  29.412  1.00  0.00    -0.203 F 
ATOM    128  C   UNL A   1      42.288  21.458  27.402  1.00  0.00     0.198 A 
ATOM    129  C   UNL A   1      43.096  22.552  25.425  1.00  0.00     0.198 A 
ATOM    130  F   UNL A   1      43.707  24.824  25.508  1.00  0.00    -0.203 F 
ATOM    131  F   UNL A   1      41.853  20.352  28.021  1.00  0.00    -0.200 F 
ATOM    132  C   UNL A   1      42.623  21.412  26.057  1.00  0.00     0.200 A 
ATOM    133  F   UNL A   1      43.403  22.519  24.122  1.00  0.00    -0.200 F 
ATOM    134  F   UNL A   1      42.492  20.269  25.369  1.00  0.00    -0.200 F 
ENDBRANCH  96 124
BRANCH 111 135
ATOM    135  C   UNL A   1      48.038  26.958  31.013  1.00  0.00     0.064 A 
ATOM    136  C   UNL A   1      48.357  26.154  32.118  1.00  0.00     0.173 A 
ATOM    137  C   UNL A   1      49.086  27.353  30.167  1.00  0.00     0.173 A 
ATOM    138  F   UNL A   1      47.396  25.763  32.968  1.00  0.00    -0.203 F 
ATOM    139  C   UNL A   1      49.675  25.784  32.379  1.00  0.00     0.198 A 
ATOM    140  C   UNL A   1      50.397  26.953  30.411  1.00  0.00     0.198 A 
ATOM    141  F   UNL A   1      48.837  28.117  29.092  1.00  0.00    -0.203 F 
ATOM    142  F   UNL A   1      49.960  25.060  33.469  1.00  0.00    -0.200 F 
ATOM    143  C   UNL A   1      50.690  26.175  31.521  1.00  0.00     0.200 A 
ATOM    144  F   UNL A   1      51.375  27.319  29.572  1.00  0.00    -0.200 F 
ATOM    145  F   UNL A   1      51.956  25.811  31.768  1.00  0.00    -0.200 F 
ENDBRANCH 111 135
ENDBRANCH  76  79
ENDBRANCH  66  69
ENDBRANCH  62  65
ENDBRANCH  59  62
ENDBRANCH  56  59
ENDBRANCH  53  56
ENDBRANCH  50  53
ENDBRANCH   1  50
TORSDOF 25
ENDMDL
MODEL 2
REMARK VINA RESULT:      -8.0      0.641      1.730
REMARK SMILES CC(C)C[C@H](NC(=O)CNC(=O)[C@@H]([NH3+])C(C)C)C(=O)NCCCCCCNC(=O)c1ccc(-c2c3nc(c(-c4c(F)c(F)c(F)c(F)c4F)c4ccc([nH]4)c(-c4c(F)c(F)c(F)c(F)c4F)c4nc(c(-c5c(F)c(F)c(F)c(F)c5F)c5ccc2[nH]5)C=C4)C=C3)cc1
REMARK SMILES IDX 21 1 20 4 18 5 19 6 5 8 4 10 2 13 1 15 3 19 6 23 7 24 8 26
REMARK SMILES IDX 9 27 10 30 11 31 12 33 13 34 14 36 15 40 16 42 17 46 22 50
REMARK SMILES IDX 23 53 24 56 25 59 26 62 27 65 28 66 29 68 30 69 31 70 92 71
REMARK SMILES IDX 32 72 91 74 33 76 34 79 35 80 85 81 36 82 90 83 84 84 86 85
REMARK SMILES IDX 37 86 89 87 83 89 82 91 38 93 70 96 50 97 69 98 51 99 54 100
REMARK SMILES IDX 68 101 87 102 52 103 53 105 67 107 88 108 55 111 39 113
REMARK SMILES IDX 40 114 48 115 41 116 42 117 46 118 49 119 43 120 44 121
REMARK SMILES IDX 47 122 45 123 71 124 72 125 80 126 73 127 74 128 78 129
REMARK SMILES IDX 81 130 75 131 76 132 79 133 77 134 56 135 57 136 65 137
REMARK SMILES IDX 58 138 59 139 63 140 66 141 60 142 61 143 64 144 62 145
REMARK H PARENT 21 2 21 3 20 7 5 9 4 11 4 12 2 14 1 16 1 17 1 18 3 20 3 21
REMARK H PARENT 3 22 6 25 9 28 9 29 10 32 13 35 14 37 14 38 14 39 15 41 16 43
REMARK H PARENT 16 44 16 45 17 47 17 48 17 49 22 51 22 52 23 54 23 55 24 57
REMARK H PARENT 24 58 25 60 25 61 26 63 26 64 27 67 31 73 92 75 32 77 91 78
REMARK H PARENT 90 88 84 90 86 92 89 94 83 95 51 104 54 106 87 109 52 110
REMARK H PARENT 88 112
REMARK Flexibility Score: inf
ROOT
ATOM      1  C   UNL A   1      38.121  30.722  33.449  1.00  0.00     0.017 C 
ATOM      2  H   UNL A   1      38.522  29.889  32.911  1.00  0.00     0.049 H 
ATOM      3  H   UNL A   1      38.839  31.513  33.505  1.00  0.00     0.049 H 
ENDROOT
BRANCH   1   4
ATOM      4  N   UNL A   1      37.792  30.302  34.793  1.00  0.00    -0.354 N 
ATOM      5  C   UNL A   1      38.356  30.642  35.983  1.00  0.00     0.242 C 
ATOM      6  O   UNL A   1      37.796  30.253  37.013  1.00  0.00    -0.273 OA
ATOM      7  H   UNL A   1      37.039  29.671  34.857  1.00  0.00     0.163 HD
BRANCH   5   8
ATOM      8  C   UNL A   1      39.571  31.584  36.056  1.00  0.00     0.108 C 
ATOM      9  H   UNL A   1      39.285  32.395  36.693  1.00  0.00     0.063 H 
BRANCH   8  10
ATOM     10  C   UNL A   1      39.909  32.216  34.698  1.00  0.00    -0.021 C 
ATOM     11  H   UNL A   1      40.920  31.968  34.455  1.00  0.00     0.030 H 
ATOM     12  H   UNL A   1      39.202  31.826  33.995  1.00  0.00     0.030 H 
BRANCH  10  13
ATOM     13  C   UNL A   1      39.766  33.758  34.655  1.00  0.00    -0.045 C 
ATOM     14  H   UNL A   1      40.558  34.155  35.255  1.00  0.00     0.030 H 
BRANCH  13  15
ATOM     15  C   UNL A   1      39.921  34.337  33.250  1.00  0.00    -0.063 C 
ATOM     16  H   UNL A   1      39.809  33.554  32.528  1.00  0.00     0.023 H 
ATOM     17  H   UNL A   1      40.891  34.777  33.150  1.00  0.00     0.023 H 
ATOM     18  H   UNL A   1      39.171  35.083  33.087  1.00  0.00     0.023 H 
ENDBRANCH  13  15
BRANCH  13  19
ATOM     19  C   UNL A   1      38.401  34.166  35.210  1.00  0.00    -0.063 C 
ATOM     20  H   UNL A   1      38.191  33.599  36.092  1.00  0.00     0.023 H 
ATOM     21  H   UNL A   1      37.646  33.974  34.475  1.00  0.00     0.023 H 
ATOM     22  H   UNL A   1      38.409  35.208  35.449  1.00  0.00     0.023 H 
ENDBRANCH  13  19
ENDBRANCH  10  13
ENDBRANCH   8  10
BRANCH   8  23
ATOM     23  N   UNL A   1      40.728  30.958  36.696  1.00  0.00    -0.343 N 
ATOM     24  C   UNL A   1      41.569  29.991  36.235  1.00  0.00     0.240 C 
ATOM     25  H   UNL A   1      40.931  31.287  37.601  1.00  0.00     0.164 HD
ATOM     26  O   UNL A   1      42.608  29.814  36.882  1.00  0.00    -0.273 OA
BRANCH  24  27
ATOM     27  C   UNL A   1      41.345  29.248  34.910  1.00  0.00     0.097 C 
ATOM     28  H   UNL A   1      42.204  29.406  34.294  1.00  0.00     0.059 H 
ATOM     29  H   UNL A   1      40.440  29.647  34.500  1.00  0.00     0.059 H 
BRANCH  27  30
ATOM     30  N   UNL A   1      41.133  27.817  35.024  1.00  0.00    -0.342 N 
ATOM     31  C   UNL A   1      42.018  26.810  35.265  1.00  0.00     0.278 C 
ATOM     32  H   UNL A   1      40.200  27.527  34.907  1.00  0.00     0.164 HD
ATOM     33  O   UNL A   1      41.542  25.675  35.375  1.00  0.00    -0.268 OA
BRANCH  31  34
ATOM     34  C   UNL A   1      43.541  27.039  35.459  1.00  0.00     0.166 C 
ATOM     35  H   UNL A   1      43.727  28.088  35.358  1.00  0.00     0.107 H 
BRANCH  34  36
ATOM     36  N   UNL A   1      43.996  26.677  36.817  1.00  0.00    -0.347 N 
ATOM     37  H   UNL A   1      43.197  26.371  37.373  1.00  0.00     0.345 HD
ATOM     38  H   UNL A   1      44.427  27.489  37.259  1.00  0.00     0.345 HD
ATOM     39  H   UNL A   1      44.678  25.921  36.758  1.00  0.00     0.345 HD
ENDBRANCH  34  36
BRANCH  34  40
ATOM     40  C   UNL A   1      44.347  26.314  34.358  1.00  0.00     0.015 C 
ATOM     41  H   UNL A   1      45.345  26.698  34.403  1.00  0.00     0.036 H 
BRANCH  40  42
ATOM     42  C   UNL A   1      44.347  24.799  34.604  1.00  0.00    -0.057 C 
ATOM     43  H   UNL A   1      45.243  24.522  35.119  1.00  0.00     0.024 H 
ATOM     44  H   UNL A   1      44.300  24.286  33.666  1.00  0.00     0.024 H 
ATOM     45  H   UNL A   1      43.497  24.534  35.198  1.00  0.00     0.024 H 
ENDBRANCH  40  42
BRANCH  40  46
ATOM     46  C   UNL A   1      43.778  26.584  32.960  1.00  0.00    -0.057 C 
ATOM     47  H   UNL A   1      42.747  26.861  33.041  1.00  0.00     0.024 H 
ATOM     48  H   UNL A   1      43.864  25.700  32.363  1.00  0.00     0.024 H 
ATOM     49  H   UNL A   1      44.324  27.381  32.499  1.00  0.00     0.024 H 
ENDBRANCH  40  46
ENDBRANCH  34  40
ENDBRANCH  31  34
ENDBRANCH  27  30
ENDBRANCH  24  27
ENDBRANCH   8  23
ENDBRANCH   5   8
ENDBRANCH   1   4
BRANCH   1  50
ATOM     50  C   UNL A   1      36.887  31.237  32.721  1.00  0.00    -0.036 C 
ATOM     51  H   UNL A   1      36.185  31.588  33.450  1.00  0.00     0.028 H 
ATOM     52  H   UNL A   1      36.502  30.422  32.144  1.00  0.00     0.028 H 
BRANCH  50  53
ATOM     53  C   UNL A   1      37.179  32.379  31.742  1.00  0.00    -0.052 C 
ATOM     54  H   UNL A   1      37.403  31.951  30.788  1.00  0.00     0.027 H 
ATOM     55  H   UNL A   1      37.995  32.931  32.160  1.00  0.00     0.027 H 
BRANCH  53  56
ATOM     56  C   UNL A   1      36.030  33.378  31.559  1.00  0.00    -0.052 C 
ATOM     57  H   UNL A   1      36.412  34.234  31.044  1.00  0.00     0.027 H 
ATOM     58  H   UNL A   1      35.668  33.601  32.541  1.00  0.00     0.027 H 
BRANCH  56  59
ATOM     59  C   UNL A   1      34.832  32.843  30.771  1.00  0.00    -0.036 C 
ATOM     60  H   UNL A   1      33.996  33.485  30.958  1.00  0.00     0.028 H 
ATOM     61  H   UNL A   1      34.669  31.840  31.104  1.00  0.00     0.028 H 
BRANCH  59  62
ATOM     62  C   UNL A   1      35.052  32.775  29.266  1.00  0.00     0.018 C 
ATOM     63  H   UNL A   1      36.079  32.550  29.075  1.00  0.00     0.049 H 
ATOM     64  H   UNL A   1      34.780  33.722  28.848  1.00  0.00     0.049 H 
BRANCH  62  65
ATOM     65  N   UNL A   1      34.225  31.756  28.643  1.00  0.00    -0.352 N 
ATOM     66  C   UNL A   1      34.594  30.541  28.129  1.00  0.00     0.251 C 
ATOM     67  H   UNL A   1      33.265  31.969  28.580  1.00  0.00     0.163 HD
ATOM     68  O   UNL A   1      33.807  29.886  27.450  1.00  0.00    -0.269 OA
BRANCH  66  69
ATOM     69  C   UNL A   1      35.956  30.032  28.379  1.00  0.00     0.039 A 
ATOM     70  C   UNL A   1      36.926  30.191  27.388  1.00  0.00    -0.049 A 
ATOM     71  C   UNL A   1      36.279  29.419  29.594  1.00  0.00    -0.049 A 
ATOM     72  C   UNL A   1      38.237  29.790  27.638  1.00  0.00    -0.053 A 
ATOM     73  H   UNL A   1      36.674  30.603  26.475  1.00  0.00     0.063 H 
ATOM     74  C   UNL A   1      37.602  29.094  29.872  1.00  0.00    -0.053 A 
ATOM     75  H   UNL A   1      35.538  29.209  30.281  1.00  0.00     0.063 H 
ATOM     76  C   UNL A   1      38.593  29.277  28.897  1.00  0.00    -0.014 A 
ATOM     77  H   UNL A   1      38.950  29.872  26.896  1.00  0.00     0.063 H 
ATOM     78  H   UNL A   1      37.855  28.718  30.799  1.00  0.00     0.063 H 
BRANCH  76  79
ATOM     79  C   UNL A   1      40.005  28.948  29.214  1.00  0.00     0.031 A 
ATOM     80  C   UNL A   1      40.868  29.931  29.949  1.00  0.00     0.074 A 
ATOM     81  C   UNL A   1      40.524  27.784  28.779  1.00  0.00     0.049 A 
ATOM     82  N   UNL A   1      42.134  29.840  30.272  1.00  0.00    -0.248 NA
ATOM     83  C   UNL A   1      40.234  31.195  30.351  1.00  0.00    -0.034 C 
ATOM     84  C   UNL A   1      39.798  26.776  28.003  1.00  0.00    -0.036 A 
ATOM     85  N   UNL A   1      41.784  27.259  28.912  1.00  0.00    -0.354 N 
ATOM     86  C   UNL A   1      42.445  31.033  30.911  1.00  0.00     0.074 A 
ATOM     87  C   UNL A   1      41.257  31.857  30.869  1.00  0.00    -0.034 C 
ATOM     88  H   UNL A   1      39.249  31.488  30.256  1.00  0.00     0.065 H 
ATOM     89  C   UNL A   1      40.619  25.747  27.747  1.00  0.00    -0.036 A 
ATOM     90  H   UNL A   1      38.814  26.846  27.703  1.00  0.00     0.065 H 
ATOM     91  C   UNL A   1      41.938  26.040  28.301  1.00  0.00     0.049 A 
ATOM     92  H   UNL A   1      42.509  27.713  29.400  1.00  0.00     0.167 HD
ATOM     93  C   UNL A   1      43.609  31.396  31.502  1.00  0.00     0.037 A 
ATOM     94  H   UNL A   1      41.211  32.833  31.199  1.00  0.00     0.065 H 
ATOM     95  H   UNL A   1      40.360  24.885  27.240  1.00  0.00     0.065 H 
ATOM     96  C   UNL A   1      43.024  25.252  28.186  1.00  0.00     0.037 A 
ATOM     97  C   UNL A   1      44.789  30.570  31.536  1.00  0.00     0.049 A 
ATOM     98  C   UNL A   1      44.313  25.684  28.825  1.00  0.00     0.074 A 
ATOM     99  C   UNL A   1      46.001  30.819  32.156  1.00  0.00    -0.036 A 
ATOM    100  N   UNL A   1      44.908  29.336  30.911  1.00  0.00    -0.354 N 
ATOM    101  N   UNL A   1      44.575  26.779  29.498  1.00  0.00    -0.248 NA
ATOM    102  C   UNL A   1      45.455  24.772  28.695  1.00  0.00    -0.034 C 
ATOM    103  C   UNL A   1      46.872  29.768  31.850  1.00  0.00    -0.036 A 
ATOM    104  H   UNL A   1      46.224  31.640  32.739  1.00  0.00     0.065 H 
ATOM    105  C   UNL A   1      46.185  28.830  31.097  1.00  0.00     0.049 A 
ATOM    106  H   UNL A   1      44.190  28.887  30.408  1.00  0.00     0.167 HD
ATOM    107  C   UNL A   1      45.905  26.681  29.885  1.00  0.00     0.074 A 
ATOM    108  C   UNL A   1      46.388  25.407  29.390  1.00  0.00    -0.034 C 
ATOM    109  H   UNL A   1      45.517  23.871  28.194  1.00  0.00     0.065 H 
ATOM    110  H   UNL A   1      47.861  29.701  32.140  1.00  0.00     0.065 H 
ATOM    111  C   UNL A   1      46.657  27.566  30.585  1.00  0.00     0.037 A 
ATOM    112  H   UNL A   1      47.338  25.042  29.558  1.00  0.00     0.065 H 
BRANCH  93 113
ATOM    113  C   UNL A   1      43.659  32.753  32.148  1.00  0.00     0.064 A 
ATOM    114  C   UNL A   1      43.454  32.922  33.527  1.00  0.00     0.173 A 
ATOM    115  C   UNL A   1      43.921  33.899  31.384  1.00  0.00     0.173 A 
ATOM    116  F   UNL A   1      43.190  31.860  34.306  1.00  0.00    -0.203 F 
ATOM    117  C   UNL A   1      43.460  34.188  34.106  1.00  0.00     0.198 A 
ATOM    118  C   UNL A   1      43.965  35.161  31.973  1.00  0.00     0.198 A 
ATOM    119  F   UNL A   1      44.134  33.799  30.063  1.00  0.00    -0.203 F 
ATOM    120  F   UNL A   1      43.191  34.328  35.411  1.00  0.00    -0.200 F 
ATOM    121  C   UNL A   1      43.720  35.306  33.329  1.00  0.00     0.200 A 
ATOM    122  F   UNL A   1      44.233  36.240  31.222  1.00  0.00    -0.200 F 
ATOM    123  F   UNL A   1      43.726  36.525  33.887  1.00  0.00    -0.200 F 
ENDBRANCH  93 113
BRANCH  96 124
ATOM    124  C   UNL A   1      42.922  23.972  27.438  1.00  0.00     0.064 A 
ATOM    125  C   UNL A   1      43.256  23.898  26.079  1.00  0.00     0.173 A 
ATOM    126  C   UNL A   1      42.519  22.789  28.076  1.00  0.00     0.173 A 
ATOM    127  F   UNL A   1      43.630  25.006  25.421  1.00  0.00    -0.203 F 
ATOM    128  C   UNL A   1      43.181  22.693  25.384  1.00  0.00     0.198 A 
ATOM    129  C   UNL A   1      42.474  21.578  27.388  1.00  0.00     0.198 A 
ATOM    130  F   UNL A   1      42.197  22.804  29.377  1.00  0.00    -0.203 F 
ATOM    131  F   UNL A   1      43.473  22.657  24.077  1.00  0.00    -0.200 F 
ATOM    132  C   UNL A   1      42.800  21.532  26.041  1.00  0.00     0.200 A 
ATOM    133  F   UNL A   1      42.124  20.457  28.032  1.00  0.00    -0.200 F 
ATOM    134  F   UNL A   1      42.744  20.370  25.375  1.00  0.00    -0.200 F 
ENDBRANCH  96 124
BRANCH 111 135
ATOM    135  C   UNL A   1      48.083  27.185  30.864  1.00  0.00     0.064 A 
ATOM    136  C   UNL A   1      49.134  27.605  30.034  1.00  0.00     0.173 A 
ATOM    137  C   UNL A   1      48.409  26.422  31.996  1.00  0.00     0.173 A 
ATOM    138  F   UNL A   1      48.876  28.322  28.930  1.00  0.00    -0.203 F 
ATOM    139  C   UNL A   1      50.453  27.253  30.313  1.00  0.00     0.198 A 
ATOM    140  C   UNL A   1      49.731  26.101  32.290  1.00  0.00     0.198 A 
ATOM    141  F   UNL A   1      47.443  25.999  32.828  1.00  0.00    -0.203 F 
ATOM    142  F   UNL A   1      51.432  27.621  29.477  1.00  0.00    -0.200 F 
ATOM    143  C   UNL A   1      50.750  26.510  31.445  1.00  0.00     0.200 A 
ATOM    144  F   UNL A   1      50.018  25.396  33.393  1.00  0.00    -0.200 F 
ATOM    145  F   UNL A   1      52.020  26.179  31.716  1.00  0.00    -0.200 F 
ENDBRANCH 111 135
ENDBRANCH  76  79
ENDBRANCH  66  69
ENDBRANCH  62  65
ENDBRANCH  59  62
ENDBRANCH  56  59
ENDBRANCH  53  56
ENDBRANCH  50  53
ENDBRANCH   1  50
TORSDOF 25
ENDMDL
MODEL 3
REMARK VINA RESULT:      -7.9      0.781      7.156
REMARK SMILES CC(C)C[C@H](NC(=O)CNC(=O)[C@@H]([NH3+])C(C)C)C(=O)NCCCCCCNC(=O)c1ccc(-c2c3nc(c(-c4c(F)c(F)c(F)c(F)c4F)c4ccc([nH]4)c(-c4c(F)c(F)c(F)c(F)c4F)c4nc(c(-c5c(F)c(F)c(F)c(F)c5F)c5ccc2[nH]5)C=C4)C=C3)cc1
REMARK SMILES IDX 21 1 20 4 18 5 19 6 5 8 4 10 2 13 1 15 3 19 6 23 7 24 8 26
REMARK SMILES IDX 9 27 10 30 11 31 12 33 13 34 14 36 15 40 16 42 17 46 22 50
REMARK SMILES IDX 23 53 24 56 25 59 26 62 27 65 28 66 29 68 30 69 31 70 92 71
REMARK SMILES IDX 32 72 91 74 33 76 34 79 35 80 85 81 36 82 90 83 84 84 86 85
REMARK SMILES IDX 37 86 89 87 83 89 82 91 38 93 70 96 50 97 69 98 51 99 54 100
REMARK SMILES IDX 68 101 87 102 52 103 53 105 67 107 88 108 55 111 39 113
REMARK SMILES IDX 40 114 48 115 41 116 42 117 46 118 49 119 43 120 44 121
REMARK SMILES IDX 47 122 45 123 71 124 72 125 80 126 73 127 74 128 78 129
REMARK SMILES IDX 81 130 75 131 76 132 79 133 77 134 56 135 57 136 65 137
REMARK SMILES IDX 58 138 59 139 63 140 66 141 60 142 61 143 64 144 62 145
REMARK H PARENT 21 2 21 3 20 7 5 9 4 11 4 12 2 14 1 16 1 17 1 18 3 20 3 21
REMARK H PARENT 3 22 6 25 9 28 9 29 10 32 13 35 14 37 14 38 14 39 15 41 16 43
REMARK H PARENT 16 44 16 45 17 47 17 48 17 49 22 51 22 52 23 54 23 55 24 57
REMARK H PARENT 24 58 25 60 25 61 26 63 26 64 27 67 31 73 92 75 32 77 91 78
REMARK H PARENT 90 88 84 90 86 92 89 94 83 95 51 104 54 106 87 109 52 110
REMARK H PARENT 88 112
REMARK Flexibility Score: inf
ROOT
ATOM      1  C   UNL A   1      38.235  30.758  33.382  1.00  0.00     0.017 C 
ATOM      2  H   UNL A   1      38.552  29.944  32.765  1.00  0.00     0.049 H 
ATOM      3  H   UNL A   1      39.001  31.502  33.444  1.00  0.00     0.049 H 
ENDROOT
BRANCH   1   4
ATOM      4  N   UNL A   1      37.963  30.265  34.714  1.00  0.00    -0.354 N 
ATOM      5  C   UNL A   1      38.584  30.533  35.894  1.00  0.00     0.242 C 
ATOM      6  O   UNL A   1      38.067  30.090  36.925  1.00  0.00    -0.273 OA
ATOM      7  H   UNL A   1      37.209  29.637  34.776  1.00  0.00     0.163 HD
BRANCH   5   8
ATOM      8  C   UNL A   1      39.809  31.461  35.964  1.00  0.00     0.108 C 
ATOM      9  H   UNL A   1      39.543  32.261  36.623  1.00  0.00     0.063 H 
BRANCH   8  10
ATOM     10  C   UNL A   1      40.128  32.119  34.614  1.00  0.00    -0.021 C 
ATOM     11  H   UNL A   1      41.119  31.835  34.328  1.00  0.00     0.030 H 
ATOM     12  H   UNL A   1      39.382  31.781  33.926  1.00  0.00     0.030 H 
BRANCH  10  13
ATOM     13  C   UNL A   1      40.053  33.667  34.620  1.00  0.00    -0.045 C 
ATOM     14  H   UNL A   1      40.847  34.008  35.251  1.00  0.00     0.030 H 
BRANCH  13  15
ATOM     15  C   UNL A   1      40.266  34.284  33.240  1.00  0.00    -0.063 C 
ATOM     16  H   UNL A   1      39.698  35.188  33.162  1.00  0.00     0.023 H 
ATOM     17  H   UNL A   1      39.944  33.596  32.487  1.00  0.00     0.023 H 
ATOM     18  H   UNL A   1      41.305  34.502  33.103  1.00  0.00     0.023 H 
ENDBRANCH  13  15
BRANCH  13  19
ATOM     19  C   UNL A   1      38.693  34.115  35.158  1.00  0.00    -0.063 C 
ATOM     20  H   UNL A   1      37.977  34.109  34.364  1.00  0.00     0.023 H 
ATOM     21  H   UNL A   1      38.777  35.105  35.555  1.00  0.00     0.023 H 
ATOM     22  H   UNL A   1      38.376  33.446  35.930  1.00  0.00     0.023 H 
ENDBRANCH  13  19
ENDBRANCH  10  13
ENDBRANCH   8  10
BRANCH   8  23
ATOM     23  N   UNL A   1      40.972  30.811  36.570  1.00  0.00    -0.343 N 
ATOM     24  C   UNL A   1      41.709  29.751  36.135  1.00  0.00     0.240 C 
ATOM     25  H   UNL A   1      41.267  31.199  37.424  1.00  0.00     0.164 HD
ATOM     26  O   UNL A   1      42.783  29.556  36.716  1.00  0.00    -0.273 OA
BRANCH  24  27
ATOM     27  C   UNL A   1      41.331  28.918  34.902  1.00  0.00     0.097 C 
ATOM     28  H   UNL A   1      42.138  28.977  34.204  1.00  0.00     0.059 H 
ATOM     29  H   UNL A   1      40.413  29.332  34.538  1.00  0.00     0.059 H 
BRANCH  27  30
ATOM     30  N   UNL A   1      41.062  27.514  35.155  1.00  0.00    -0.342 N 
ATOM     31  C   UNL A   1      41.883  26.430  35.082  1.00  0.00     0.278 C 
ATOM     32  H   UNL A   1      40.136  27.313  35.421  1.00  0.00     0.164 HD
ATOM     33  O   UNL A   1      41.394  25.346  35.420  1.00  0.00    -0.268 OA
BRANCH  31  34
ATOM     34  C   UNL A   1      43.376  26.516  34.663  1.00  0.00     0.166 C 
ATOM     35  H   UNL A   1      43.462  27.289  33.928  1.00  0.00     0.107 H 
BRANCH  34  36
ATOM     36  N   UNL A   1      44.251  26.922  35.782  1.00  0.00    -0.347 N 
ATOM     37  H   UNL A   1      43.682  27.128  36.602  1.00  0.00     0.345 HD
ATOM     38  H   UNL A   1      44.778  27.754  35.516  1.00  0.00     0.345 HD
ATOM     39  H   UNL A   1      44.899  26.165  35.999  1.00  0.00     0.345 HD
ENDBRANCH  34  36
BRANCH  34  40
ATOM     40  C   UNL A   1      43.835  25.195  34.008  1.00  0.00     0.015 C 
ATOM     41  H   UNL A   1      42.950  24.631  33.795  1.00  0.00     0.036 H 
BRANCH  40  42
ATOM     42  C   UNL A   1      44.609  25.479  32.714  1.00  0.00    -0.057 C 
ATOM     43  H   UNL A   1      45.467  26.079  32.936  1.00  0.00     0.024 H 
ATOM     44  H   UNL A   1      43.977  26.001  32.027  1.00  0.00     0.024 H 
ATOM     45  H   UNL A   1      44.924  24.555  32.276  1.00  0.00     0.024 H 
ENDBRANCH  40  42
BRANCH  40  46
ATOM     46  C   UNL A   1      44.730  24.372  34.944  1.00  0.00    -0.057 C 
ATOM     47  H   UNL A   1      45.671  24.867  35.063  1.00  0.00     0.024 H 
ATOM     48  H   UNL A   1      44.888  23.401  34.523  1.00  0.00     0.024 H 
ATOM     49  H   UNL A   1      44.255  24.274  35.898  1.00  0.00     0.024 H 
ENDBRANCH  40  46
ENDBRANCH  34  40
ENDBRANCH  31  34
ENDBRANCH  27  30
ENDBRANCH  24  27
ENDBRANCH   8  23
ENDBRANCH   5   8
ENDBRANCH   1   4
BRANCH   1  50
ATOM     50  C   UNL A   1      36.992  31.391  32.770  1.00  0.00    -0.036 C 
ATOM     51  H   UNL A   1      36.441  31.876  33.550  1.00  0.00     0.028 H 
ATOM     52  H   UNL A   1      36.436  30.603  32.307  1.00  0.00     0.028 H 
BRANCH  50  53
ATOM     53  C   UNL A   1      37.298  32.423  31.680  1.00  0.00    -0.052 C 
ATOM     54  H   UNL A   1      37.508  31.896  30.773  1.00  0.00     0.027 H 
ATOM     55  H   UNL A   1      38.126  32.999  32.035  1.00  0.00     0.027 H 
BRANCH  53  56
ATOM     56  C   UNL A   1      36.166  33.419  31.402  1.00  0.00    -0.052 C 
ATOM     57  H   UNL A   1      36.557  34.206  30.793  1.00  0.00     0.027 H 
ATOM     58  H   UNL A   1      35.821  33.754  32.358  1.00  0.00     0.027 H 
BRANCH  56  59
ATOM     59  C   UNL A   1      34.948  32.826  30.689  1.00  0.00    -0.036 C 
ATOM     60  H   UNL A   1      34.117  33.483  30.847  1.00  0.00     0.028 H 
ATOM     61  H   UNL A   1      34.794  31.853  31.104  1.00  0.00     0.028 H 
BRANCH  59  62
ATOM     62  C   UNL A   1      35.129  32.640  29.189  1.00  0.00     0.018 C 
ATOM     63  H   UNL A   1      36.158  32.434  28.987  1.00  0.00     0.049 H 
ATOM     64  H   UNL A   1      34.812  33.539  28.703  1.00  0.00     0.049 H 
BRANCH  62  65
ATOM     65  N   UNL A   1      34.321  31.545  28.678  1.00  0.00    -0.352 N 
ATOM     66  C   UNL A   1      34.722  30.318  28.222  1.00  0.00     0.251 C 
ATOM     67  H   UNL A   1      33.350  31.710  28.655  1.00  0.00     0.163 HD
ATOM     68  O   UNL A   1      33.934  29.585  27.629  1.00  0.00    -0.269 OA
BRANCH  66  69
ATOM     69  C   UNL A   1      36.119  29.889  28.427  1.00  0.00     0.039 A 
ATOM     70  C   UNL A   1      37.029  30.035  27.379  1.00  0.00    -0.049 A 
ATOM     71  C   UNL A   1      36.532  29.363  29.656  1.00  0.00    -0.049 A 
ATOM     72  C   UNL A   1      38.369  29.712  27.582  1.00  0.00    -0.053 A 
ATOM     73  H   UNL A   1      36.711  30.381  26.459  1.00  0.00     0.063 H 
ATOM     74  C   UNL A   1      37.882  29.118  29.882  1.00  0.00    -0.053 A 
ATOM     75  H   UNL A   1      35.837  29.159  30.391  1.00  0.00     0.063 H 
ATOM     76  C   UNL A   1      38.813  29.289  28.847  1.00  0.00    -0.014 A 
ATOM     77  H   UNL A   1      39.039  29.783  26.800  1.00  0.00     0.063 H 
ATOM     78  H   UNL A   1      38.199  28.808  30.813  1.00  0.00     0.063 H 
BRANCH  76  79
ATOM     79  C   UNL A   1      40.253  29.046  29.107  1.00  0.00     0.031 A 
ATOM     80  C   UNL A   1      40.903  27.770  28.659  1.00  0.00     0.074 A 
ATOM     81  C   UNL A   1      40.958  29.956  29.806  1.00  0.00     0.049 A 
ATOM     82  N   UNL A   1      42.134  27.361  28.839  1.00  0.00    -0.248 NA
ATOM     83  C   UNL A   1      40.050  26.813  27.939  1.00  0.00    -0.034 C 
ATOM     84  C   UNL A   1      40.420  31.207  30.344  1.00  0.00    -0.036 A 
ATOM     85  N   UNL A   1      42.273  29.963  30.197  1.00  0.00    -0.354 N 
ATOM     86  C   UNL A   1      42.200  26.103  28.257  1.00  0.00     0.074 A 
ATOM     87  C   UNL A   1      40.871  25.786  27.781  1.00  0.00    -0.034 C 
ATOM     88  H   UNL A   1      39.068  26.915  27.636  1.00  0.00     0.065 H 
ATOM     89  C   UNL A   1      41.401  31.869  30.977  1.00  0.00    -0.036 A 
ATOM     90  H   UNL A   1      39.445  31.528  30.250  1.00  0.00     0.065 H 
ATOM     91  C   UNL A   1      42.622  31.071  30.928  1.00  0.00     0.049 A 
ATOM     92  H   UNL A   1      42.907  29.242  29.974  1.00  0.00     0.167 HD
ATOM     93  C   UNL A   1      43.279  25.296  28.109  1.00  0.00     0.037 A 
ATOM     94  H   UNL A   1      40.597  24.880  27.372  1.00  0.00     0.065 H 
ATOM     95  H   UNL A   1      41.306  32.793  31.427  1.00  0.00     0.065 H 
ATOM     96  C   UNL A   1      43.792  31.402  31.508  1.00  0.00     0.037 A 
ATOM     97  C   UNL A   1      44.599  25.617  28.589  1.00  0.00     0.049 A 
ATOM     98  C   UNL A   1      44.970  30.481  31.356  1.00  0.00     0.074 A 
ATOM     99  C   UNL A   1      45.771  24.896  28.444  1.00  0.00    -0.036 A 
ATOM    100  N   UNL A   1      44.918  26.752  29.322  1.00  0.00    -0.354 N 
ATOM    101  N   UNL A   1      45.044  29.329  30.733  1.00  0.00    -0.248 NA
ATOM    102  C   UNL A   1      46.228  30.906  31.981  1.00  0.00    -0.034 C 
ATOM    103  C   UNL A   1      46.783  25.562  29.143  1.00  0.00    -0.036 A 
ATOM    104  H   UNL A   1      45.878  24.018  27.914  1.00  0.00     0.065 H 
ATOM    105  C   UNL A   1      46.260  26.733  29.669  1.00  0.00     0.049 A 
ATOM    106  H   UNL A   1      44.284  27.467  29.560  1.00  0.00     0.167 HD
ATOM    107  C   UNL A   1      46.356  28.900  30.877  1.00  0.00     0.074 A 
ATOM    108  C   UNL A   1      47.049  29.928  31.628  1.00  0.00    -0.034 C 
ATOM    109  H   UNL A   1      46.422  31.747  32.548  1.00  0.00     0.065 H 
ATOM    110  H   UNL A   1      47.757  25.237  29.248  1.00  0.00     0.065 H 
ATOM    111  C   UNL A   1      46.933  27.757  30.430  1.00  0.00     0.037 A 
ATOM    112  H   UNL A   1      48.054  29.901  31.858  1.00  0.00     0.065 H 
BRANCH  93 113
ATOM    113  C   UNL A   1      43.066  23.982  27.409  1.00  0.00     0.064 A 
ATOM    114  C   UNL A   1      42.585  22.852  28.091  1.00  0.00     0.173 A 
ATOM    115  C   UNL A   1      43.340  23.849  26.040  1.00  0.00     0.173 A 
ATOM    116  F   UNL A   1      42.315  22.920  29.404  1.00  0.00    -0.203 F 
ATOM    117  C   UNL A   1      42.434  21.630  27.441  1.00  0.00     0.198 A 
ATOM    118  C   UNL A   1      43.151  22.635  25.384  1.00  0.00     0.198 A 
ATOM    119  F   UNL A   1      43.793  24.897  25.335  1.00  0.00    -0.203 F 
ATOM    120  F   UNL A   1      42.041  20.551  28.131  1.00  0.00    -0.200 F 
ATOM    121  C   UNL A   1      42.712  21.524  26.087  1.00  0.00     0.200 A 
ATOM    122  F   UNL A   1      43.405  22.538  24.071  1.00  0.00    -0.200 F 
ATOM    123  F   UNL A   1      42.566  20.347  25.462  1.00  0.00    -0.200 F 
ENDBRANCH  93 113
BRANCH  96 124
ATOM    124  C   UNL A   1      43.894  32.669  32.275  1.00  0.00     0.064 A 
ATOM    125  C   UNL A   1      43.712  32.692  33.665  1.00  0.00     0.173 A 
ATOM    126  C   UNL A   1      44.210  33.880  31.639  1.00  0.00     0.173 A 
ATOM    127  F   UNL A   1      43.392  31.563  34.316  1.00  0.00    -0.203 F 
ATOM    128  C   UNL A   1      43.830  33.877  34.387  1.00  0.00     0.198 A 
ATOM    129  C   UNL A   1      44.358  35.059  32.366  1.00  0.00     0.198 A 
ATOM    130  F   UNL A   1      44.402  33.911  30.313  1.00  0.00    -0.203 F 
ATOM    131  F   UNL A   1      43.616  33.877  35.710  1.00  0.00    -0.200 F 
ATOM    132  C   UNL A   1      44.162  35.058  33.739  1.00  0.00     0.200 A 
ATOM    133  F   UNL A   1      44.697  36.192  31.738  1.00  0.00    -0.200 F 
ATOM    134  F   UNL A   1      44.291  36.195  34.437  1.00  0.00    -0.200 F 
ENDBRANCH  96 124
BRANCH 111 135
ATOM    135  C   UNL A   1      48.391  27.560  30.735  1.00  0.00     0.064 A 
ATOM    136  C   UNL A   1      48.818  26.814  31.844  1.00  0.00     0.173 A 
ATOM    137  C   UNL A   1      49.375  28.091  29.886  1.00  0.00     0.173 A 
ATOM    138  F   UNL A   1      47.919  26.298  32.696  1.00  0.00    -0.203 F 
ATOM    139  C   UNL A   1      50.173  26.631  32.107  1.00  0.00     0.198 A 
ATOM    140  C   UNL A   1      50.728  27.877  30.133  1.00  0.00     0.198 A 
ATOM    141  F   UNL A   1      49.023  28.807  28.807  1.00  0.00    -0.203 F 
ATOM    142  F   UNL A   1      50.556  25.960  33.202  1.00  0.00    -0.200 F 
ATOM    143  C   UNL A   1      51.126  27.154  31.247  1.00  0.00     0.200 A 
ATOM    144  F   UNL A   1      51.647  28.371  29.292  1.00  0.00    -0.200 F 
ATOM    145  F   UNL A   1      52.430  26.970  31.496  1.00  0.00    -0.200 F 
ENDBRANCH 111 135
ENDBRANCH  76  79
ENDBRANCH  66  69
ENDBRANCH  62  65
ENDBRANCH  59  62
ENDBRANCH  56  59
ENDBRANCH  53  56
ENDBRANCH  50  53
ENDBRANCH   1  50
TORSDOF 25
ENDMDL
MODEL 4
REMARK VINA RESULT:      -7.8      4.862     11.598
REMARK SMILES CC(C)C[C@H](NC(=O)CNC(=O)[C@@H]([NH3+])C(C)C)C(=O)NCCCCCCNC(=O)c1ccc(-c2c3nc(c(-c4c(F)c(F)c(F)c(F)c4F)c4ccc([nH]4)c(-c4c(F)c(F)c(F)c(F)c4F)c4nc(c(-c5c(F)c(F)c(F)c(F)c5F)c5ccc2[nH]5)C=C4)C=C3)cc1
REMARK SMILES IDX 21 1 20 4 18 5 19 6 5 8 4 10 2 13 1 15 3 19 6 23 7 24 8 26
REMARK SMILES IDX 9 27 10 30 11 31 12 33 13 34 14 36 15 40 16 42 17 46 22 50
REMARK SMILES IDX 23 53 24 56 25 59 26 62 27 65 28 66 29 68 30 69 31 70 92 71
REMARK SMILES IDX 32 72 91 74 33 76 34 79 35 80 85 81 36 82 90 83 84 84 86 85
REMARK SMILES IDX 37 86 89 87 83 89 82 91 38 93 70 96 50 97 69 98 51 99 54 100
REMARK SMILES IDX 68 101 87 102 52 103 53 105 67 107 88 108 55 111 39 113
REMARK SMILES IDX 40 114 48 115 41 116 42 117 46 118 49 119 43 120 44 121
REMARK SMILES IDX 47 122 45 123 71 124 72 125 80 126 73 127 74 128 78 129
REMARK SMILES IDX 81 130 75 131 76 132 79 133 77 134 56 135 57 136 65 137
REMARK SMILES IDX 58 138 59 139 63 140 66 141 60 142 61 143 64 144 62 145
REMARK H PARENT 21 2 21 3 20 7 5 9 4 11 4 12 2 14 1 16 1 17 1 18 3 20 3 21
REMARK H PARENT 3 22 6 25 9 28 9 29 10 32 13 35 14 37 14 38 14 39 15 41 16 43
REMARK H PARENT 16 44 16 45 17 47 17 48 17 49 22 51 22 52 23 54 23 55 24 57
REMARK H PARENT 24 58 25 60 25 61 26 63 26 64 27 67 31 73 92 75 32 77 91 78
REMARK H PARENT 90 88 84 90 86 92 89 94 83 95 51 104 54 106 87 109 52 110
REMARK H PARENT 88 112
REMARK Flexibility Score: inf
ROOT
ATOM      1  C   UNL A   1      36.369  22.697  24.560  1.00  0.00     0.017 C 
ATOM      2  H   UNL A   1      35.728  23.458  24.166  1.00  0.00     0.049 H 
ATOM      3  H   UNL A   1      37.195  22.525  23.903  1.00  0.00     0.049 H 
ENDROOT
BRANCH   1   4
ATOM      4  N   UNL A   1      35.620  21.467  24.691  1.00  0.00    -0.354 N 
ATOM      5  C   UNL A   1      34.277  21.249  24.666  1.00  0.00     0.242 C 
ATOM      6  O   UNL A   1      33.889  20.077  24.657  1.00  0.00    -0.273 OA
ATOM      7  H   UNL A   1      36.168  20.661  24.817  1.00  0.00     0.163 HD
BRANCH   5   8
ATOM      8  C   UNL A   1      33.278  22.410  24.521  1.00  0.00     0.108 C 
ATOM      9  H   UNL A   1      33.681  23.227  25.082  1.00  0.00     0.063 H 
BRANCH   8  10
ATOM     10  C   UNL A   1      31.915  22.097  25.155  1.00  0.00    -0.021 C 
ATOM     11  H   UNL A   1      31.249  21.780  24.381  1.00  0.00     0.030 H 
ATOM     12  H   UNL A   1      32.088  21.342  25.893  1.00  0.00     0.030 H 
BRANCH  10  13
ATOM     13  C   UNL A   1      31.261  23.292  25.893  1.00  0.00    -0.045 C 
ATOM     14  H   UNL A   1      30.803  23.901  25.142  1.00  0.00     0.030 H 
BRANCH  13  15
ATOM     15  C   UNL A   1      30.168  22.869  26.871  1.00  0.00    -0.063 C 
ATOM     16  H   UNL A   1      30.224  23.473  27.753  1.00  0.00     0.023 H 
ATOM     17  H   UNL A   1      30.303  21.841  27.136  1.00  0.00     0.023 H 
ATOM     18  H   UNL A   1      29.210  22.996  26.413  1.00  0.00     0.023 H 
ENDBRANCH  13  15
BRANCH  13  19
ATOM     19  C   UNL A   1      32.331  24.075  26.656  1.00  0.00    -0.063 C 
ATOM     20  H   UNL A   1      32.580  23.554  27.556  1.00  0.00     0.023 H 
ATOM     21  H   UNL A   1      31.955  25.048  26.899  1.00  0.00     0.023 H 
ATOM     22  H   UNL A   1      33.204  24.173  26.046  1.00  0.00     0.023 H 
ENDBRANCH  13  19
ENDBRANCH  10  13
ENDBRANCH   8  10
BRANCH   8  23
ATOM     23  N   UNL A   1      33.168  22.886  23.141  1.00  0.00    -0.343 N 
ATOM     24  C   UNL A   1      33.370  24.130  22.624  1.00  0.00     0.240 C 
ATOM     25  H   UNL A   1      32.907  22.201  22.484  1.00  0.00     0.164 HD
ATOM     26  O   UNL A   1      33.443  24.206  21.392  1.00  0.00    -0.273 OA
BRANCH  24  27
ATOM     27  C   UNL A   1      33.644  25.364  23.494  1.00  0.00     0.097 C 
ATOM     28  H   UNL A   1      34.697  25.415  23.674  1.00  0.00     0.059 H 
ATOM     29  H   UNL A   1      33.060  25.232  24.382  1.00  0.00     0.059 H 
BRANCH  27  30
ATOM     30  N   UNL A   1      33.226  26.634  22.928  1.00  0.00    -0.342 N 
ATOM     31  C   UNL A   1      33.002  27.836  23.527  1.00  0.00     0.278 C 
ATOM     32  H   UNL A   1      33.082  26.625  21.955  1.00  0.00     0.164 HD
ATOM     33  O   UNL A   1      32.713  28.778  22.780  1.00  0.00    -0.268 OA
BRANCH  31  34
ATOM     34  C   UNL A   1      33.150  28.070  25.056  1.00  0.00     0.166 C 
ATOM     35  H   UNL A   1      33.630  27.210  25.471  1.00  0.00     0.107 H 
BRANCH  34  36
ATOM     36  N   UNL A   1      34.031  29.214  25.366  1.00  0.00    -0.347 N 
ATOM     37  H   UNL A   1      34.960  28.872  25.612  1.00  0.00     0.345 HD
ATOM     38  H   UNL A   1      33.644  29.740  26.149  1.00  0.00     0.345 HD
ATOM     39  H   UNL A   1      34.100  29.823  24.550  1.00  0.00     0.345 HD
ENDBRANCH  34  36
BRANCH  34  40
ATOM     40  C   UNL A   1      31.764  28.199  25.724  1.00  0.00     0.015 C 
ATOM     41  H   UNL A   1      31.411  29.188  25.517  1.00  0.00     0.036 H 
BRANCH  40  42
ATOM     42  C   UNL A   1      30.793  27.157  25.152  1.00  0.00    -0.057 C 
ATOM     43  H   UNL A   1      30.724  27.280  24.091  1.00  0.00     0.024 H 
ATOM     44  H   UNL A   1      29.827  27.290  25.591  1.00  0.00     0.024 H 
ATOM     45  H   UNL A   1      31.153  26.174  25.374  1.00  0.00     0.024 H 
ENDBRANCH  40  42
BRANCH  40  46
ATOM     46  C   UNL A   1      31.842  28.013  27.245  1.00  0.00    -0.057 C 
ATOM     47  H   UNL A   1      32.354  28.845  27.681  1.00  0.00     0.024 H 
ATOM     48  H   UNL A   1      32.373  27.110  27.467  1.00  0.00     0.024 H 
ATOM     49  H   UNL A   1      30.853  27.953  27.649  1.00  0.00     0.024 H 
ENDBRANCH  40  46
ENDBRANCH  34  40
ENDBRANCH  31  34
ENDBRANCH  27  30
ENDBRANCH  24  27
ENDBRANCH   8  23
ENDBRANCH   5   8
ENDBRANCH   1   4
BRANCH   1  50
ATOM     50  C   UNL A   1      36.909  23.152  25.910  1.00  0.00    -0.036 C 
ATOM     51  H   UNL A   1      36.402  22.606  26.678  1.00  0.00     0.028 H 
ATOM     52  H   UNL A   1      36.736  24.206  25.976  1.00  0.00     0.028 H 
BRANCH  50  53
ATOM     53  C   UNL A   1      38.417  22.935  26.076  1.00  0.00    -0.052 C 
ATOM     54  H   UNL A   1      38.674  23.152  27.091  1.00  0.00     0.027 H 
ATOM     55  H   UNL A   1      38.893  23.583  25.371  1.00  0.00     0.027 H 
BRANCH  53  56
ATOM     56  C   UNL A   1      38.900  21.516  25.754  1.00  0.00    -0.052 C 
ATOM     57  H   UNL A   1      38.768  21.349  24.706  1.00  0.00     0.027 H 
ATOM     58  H   UNL A   1      38.320  20.856  26.365  1.00  0.00     0.027 H 
BRANCH  56  59
ATOM     59  C   UNL A   1      40.366  21.241  26.099  1.00  0.00    -0.036 C 
ATOM     60  H   UNL A   1      40.868  20.939  25.204  1.00  0.00     0.028 H 
ATOM     61  H   UNL A   1      40.366  20.483  26.853  1.00  0.00     0.028 H 
BRANCH  59  62
ATOM     62  C   UNL A   1      41.108  22.437  26.680  1.00  0.00     0.018 C 
ATOM     63  H   UNL A   1      41.593  22.138  27.585  1.00  0.00     0.049 H 
ATOM     64  H   UNL A   1      40.394  23.213  26.863  1.00  0.00     0.049 H 
BRANCH  62  65
ATOM     65  N   UNL A   1      42.107  22.954  25.761  1.00  0.00    -0.352 N 
ATOM     66  C   UNL A   1      42.542  24.242  25.594  1.00  0.00     0.251 C 
ATOM     67  H   UNL A   1      42.530  22.285  25.174  1.00  0.00     0.163 HD
ATOM     68  O   UNL A   1      43.241  24.544  24.631  1.00  0.00    -0.269 OA
BRANCH  66  69
ATOM     69  C   UNL A   1      42.144  25.273  26.572  1.00  0.00     0.039 A 
ATOM     70  C   UNL A   1      41.041  25.032  27.393  1.00  0.00    -0.049 A 
ATOM     71  C   UNL A   1      42.870  26.463  26.692  1.00  0.00    -0.049 A 
ATOM     72  C   UNL A   1      40.701  25.959  28.377  1.00  0.00    -0.053 A 
ATOM     73  H   UNL A   1      40.480  24.173  27.271  1.00  0.00     0.063 H 
ATOM     74  C   UNL A   1      42.579  27.347  27.726  1.00  0.00    -0.053 A 
ATOM     75  H   UNL A   1      43.618  26.683  26.016  1.00  0.00     0.063 H 
ATOM     76  C   UNL A   1      41.492  27.103  28.577  1.00  0.00    -0.014 A 
ATOM     77  H   UNL A   1      39.865  25.803  28.962  1.00  0.00     0.063 H 
ATOM     78  H   UNL A   1      43.164  28.185  27.866  1.00  0.00     0.063 H 
BRANCH  76  79
ATOM     79  C   UNL A   1      41.206  28.041  29.690  1.00  0.00     0.031 A 
ATOM     80  C   UNL A   1      41.996  27.974  30.964  1.00  0.00     0.074 A 
ATOM     81  C   UNL A   1      40.187  28.913  29.571  1.00  0.00     0.049 A 
ATOM     82  N   UNL A   1      41.859  28.677  32.061  1.00  0.00    -0.248 NA
ATOM     83  C   UNL A   1      43.063  26.965  31.026  1.00  0.00    -0.034 C 
ATOM     84  C   UNL A   1      39.311  29.031  28.404  1.00  0.00    -0.036 A 
ATOM     85  N   UNL A   1      39.705  29.854  30.446  1.00  0.00    -0.354 N 
ATOM     86  C   UNL A   1      42.819  28.193  32.939  1.00  0.00     0.074 A 
ATOM     87  C   UNL A   1      43.484  27.094  32.275  1.00  0.00    -0.034 C 
ATOM     88  H   UNL A   1      43.397  26.325  30.288  1.00  0.00     0.065 H 
ATOM     89  C   UNL A   1      38.412  30.002  28.627  1.00  0.00    -0.036 A 
ATOM     90  H   UNL A   1      39.375  28.459  27.547  1.00  0.00     0.065 H 
ATOM     91  C   UNL A   1      38.619  30.544  29.966  1.00  0.00     0.049 A 
ATOM     92  H   UNL A   1      40.101  30.019  31.333  1.00  0.00     0.167 HD
ATOM     93  C   UNL A   1      43.134  28.644  34.178  1.00  0.00     0.037 A 
ATOM     94  H   UNL A   1      44.194  26.488  32.715  1.00  0.00     0.065 H 
ATOM     95  H   UNL A   1      37.690  30.315  27.959  1.00  0.00     0.065 H 
ATOM     96  C   UNL A   1      37.866  31.498  30.546  1.00  0.00     0.037 A 
ATOM     97  C   UNL A   1      42.464  29.738  34.833  1.00  0.00     0.049 A 
ATOM     98  C   UNL A   1      38.215  31.965  31.931  1.00  0.00     0.074 A 
ATOM     99  C   UNL A   1      42.741  30.309  36.063  1.00  0.00    -0.036 A 
ATOM    100  N   UNL A   1      41.371  30.419  34.315  1.00  0.00    -0.354 N 
ATOM    101  N   UNL A   1      39.177  31.557  32.722  1.00  0.00    -0.248 NA
ATOM    102  C   UNL A   1      37.378  33.028  32.501  1.00  0.00    -0.034 C 
ATOM    103  C   UNL A   1      41.776  31.290  36.316  1.00  0.00    -0.036 A 
ATOM    104  H   UNL A   1      43.522  30.053  36.686  1.00  0.00     0.065 H 
ATOM    105  C   UNL A   1      40.937  31.378  35.217  1.00  0.00     0.049 A 
ATOM    106  H   UNL A   1      40.963  30.246  33.436  1.00  0.00     0.167 HD
ATOM    107  C   UNL A   1      39.073  32.322  33.876  1.00  0.00     0.074 A 
ATOM    108  C   UNL A   1      37.966  33.236  33.670  1.00  0.00    -0.034 C 
ATOM    109  H   UNL A   1      36.549  33.493  32.096  1.00  0.00     0.065 H 
ATOM    110  H   UNL A   1      41.703  31.855  37.177  1.00  0.00     0.065 H 
ATOM    111  C   UNL A   1      39.824  32.271  35.004  1.00  0.00     0.037 A 
ATOM    112  H   UNL A   1      37.674  33.956  34.349  1.00  0.00     0.065 H 
BRANCH  93 113
ATOM    113  C   UNL A   1      44.247  27.940  34.904  1.00  0.00     0.064 A 
ATOM    114  C   UNL A   1      44.024  26.759  35.631  1.00  0.00     0.173 A 
ATOM    115  C   UNL A   1      45.554  28.447  34.871  1.00  0.00     0.173 A 
ATOM    116  F   UNL A   1      42.790  26.234  35.704  1.00  0.00    -0.203 F 
ATOM    117  C   UNL A   1      45.054  26.141  36.335  1.00  0.00     0.198 A 
ATOM    118  C   UNL A   1      46.591  27.805  35.545  1.00  0.00     0.198 A 
ATOM    119  F   UNL A   1      45.830  29.567  34.186  1.00  0.00    -0.203 F 
ATOM    120  F   UNL A   1      44.799  25.056  37.077  1.00  0.00    -0.200 F 
ATOM    121  C   UNL A   1      46.338  26.662  36.287  1.00  0.00     0.200 A 
ATOM    122  F   UNL A   1      47.836  28.301  35.485  1.00  0.00    -0.200 F 
ATOM    123  F   UNL A   1      47.329  26.067  36.965  1.00  0.00    -0.200 F 
ENDBRANCH  93 113
BRANCH  96 124
ATOM    124  C   UNL A   1      36.714  32.070  29.802  1.00  0.00     0.064 A 
ATOM    125  C   UNL A   1      36.696  33.419  29.421  1.00  0.00     0.173 A 
ATOM    126  C   UNL A   1      35.621  31.272  29.430  1.00  0.00     0.173 A 
ATOM    127  F   UNL A   1      37.710  34.226  29.768  1.00  0.00    -0.203 F 
ATOM    128  C   UNL A   1      35.626  33.950  28.705  1.00  0.00     0.198 A 
ATOM    129  C   UNL A   1      34.565  31.797  28.688  1.00  0.00     0.198 A 
ATOM    130  F   UNL A   1      35.593  29.974  29.764  1.00  0.00    -0.203 F 
ATOM    131  F   UNL A   1      35.618  35.250  28.382  1.00  0.00    -0.200 F 
ATOM    132  C   UNL A   1      34.565  33.137  28.330  1.00  0.00     0.200 A 
ATOM    133  F   UNL A   1      33.554  31.003  28.313  1.00  0.00    -0.200 F 
ATOM    134  F   UNL A   1      33.544  33.645  27.628  1.00  0.00    -0.200 F 
ENDBRANCH  96 124
BRANCH 111 135
ATOM    135  C   UNL A   1      39.480  33.236  36.103  1.00  0.00     0.064 A 
ATOM    136  C   UNL A   1      38.602  32.888  37.141  1.00  0.00     0.173 A 
ATOM    137  C   UNL A   1      40.063  34.512  36.140  1.00  0.00     0.173 A 
ATOM    138  F   UNL A   1      38.004  31.687  37.145  1.00  0.00    -0.203 F 
ATOM    139  C   UNL A   1      38.301  33.790  38.159  1.00  0.00     0.198 A 
ATOM    140  C   UNL A   1      39.786  35.399  37.177  1.00  0.00     0.198 A 
ATOM    141  F   UNL A   1      40.914  34.895  35.176  1.00  0.00    -0.203 F 
ATOM    142  F   UNL A   1      37.419  33.454  39.110  1.00  0.00    -0.200 F 
ATOM    143  C   UNL A   1      38.900  35.040  38.180  1.00  0.00     0.200 A 
ATOM    144  F   UNL A   1      40.378  36.601  37.204  1.00  0.00    -0.200 F 
ATOM    145  F   UNL A   1      38.616  35.904  39.165  1.00  0.00    -0.200 F 
ENDBRANCH 111 135
ENDBRANCH  76  79
ENDBRANCH  66  69
ENDBRANCH  62  65
ENDBRANCH  59  62
ENDBRANCH  56  59
ENDBRANCH  53  56
ENDBRANCH  50  53
ENDBRANCH   1  50
TORSDOF 25
ENDMDL
MODEL 5
REMARK VINA RESULT:      -7.8      3.852     10.523
REMARK SMILES CC(C)C[C@H](NC(=O)CNC(=O)[C@@H]([NH3+])C(C)C)C(=O)NCCCCCCNC(=O)c1ccc(-c2c3nc(c(-c4c(F)c(F)c(F)c(F)c4F)c4ccc([nH]4)c(-c4c(F)c(F)c(F)c(F)c4F)c4nc(c(-c5c(F)c(F)c(F)c(F)c5F)c5ccc2[nH]5)C=C4)C=C3)cc1
REMARK SMILES IDX 21 1 20 4 18 5 19 6 5 8 4 10 2 13 1 15 3 19 6 23 7 24 8 26
REMARK SMILES IDX 9 27 10 30 11 31 12 33 13 34 14 36 15 40 16 42 17 46 22 50
REMARK SMILES IDX 23 53 24 56 25 59 26 62 27 65 28 66 29 68 30 69 31 70 92 71
REMARK SMILES IDX 32 72 91 74 33 76 34 79 35 80 85 81 36 82 90 83 84 84 86 85
REMARK SMILES IDX 37 86 89 87 83 89 82 91 38 93 70 96 50 97 69 98 51 99 54 100
REMARK SMILES IDX 68 101 87 102 52 103 53 105 67 107 88 108 55 111 39 113
REMARK SMILES IDX 40 114 48 115 41 116 42 117 46 118 49 119 43 120 44 121
REMARK SMILES IDX 47 122 45 123 71 124 72 125 80 126 73 127 74 128 78 129
REMARK SMILES IDX 81 130 75 131 76 132 79 133 77 134 56 135 57 136 65 137
REMARK SMILES IDX 58 138 59 139 63 140 66 141 60 142 61 143 64 144 62 145
REMARK H PARENT 21 2 21 3 20 7 5 9 4 11 4 12 2 14 1 16 1 17 1 18 3 20 3 21
REMARK H PARENT 3 22 6 25 9 28 9 29 10 32 13 35 14 37 14 38 14 39 15 41 16 43
REMARK H PARENT 16 44 16 45 17 47 17 48 17 49 22 51 22 52 23 54 23 55 24 57
REMARK H PARENT 24 58 25 60 25 61 26 63 26 64 27 67 31 73 92 75 32 77 91 78
REMARK H PARENT 90 88 84 90 86 92 89 94 83 95 51 104 54 106 87 109 52 110
REMARK H PARENT 88 112
REMARK Flexibility Score: inf
ROOT
ATOM      1  C   UNL A   1      46.935  26.609  30.475  1.00  0.00     0.017 C 
ATOM      2  H   UNL A   1      46.128  26.060  30.913  1.00  0.00     0.049 H 
ATOM      3  H   UNL A   1      46.562  27.396  29.855  1.00  0.00     0.049 H 
ENDROOT
BRANCH   1   4
ATOM      4  N   UNL A   1      47.729  25.716  29.661  1.00  0.00    -0.354 N 
ATOM      5  C   UNL A   1      47.502  25.234  28.409  1.00  0.00     0.242 C 
ATOM      6  O   UNL A   1      48.410  24.592  27.871  1.00  0.00    -0.273 OA
ATOM      7  H   UNL A   1      48.565  25.409  30.077  1.00  0.00     0.163 HD
BRANCH   5   8
ATOM      8  C   UNL A   1      46.218  25.581  27.635  1.00  0.00     0.108 C 
ATOM      9  H   UNL A   1      46.171  24.901  26.810  1.00  0.00     0.063 H 
BRANCH   8  10
ATOM     10  C   UNL A   1      46.264  26.987  27.019  1.00  0.00    -0.021 C 
ATOM     11  H   UNL A   1      45.373  27.506  27.302  1.00  0.00     0.030 H 
ATOM     12  H   UNL A   1      47.154  27.453  27.387  1.00  0.00     0.030 H 
BRANCH  10  13
ATOM     13  C   UNL A   1      46.364  27.006  25.473  1.00  0.00    -0.045 C 
ATOM     14  H   UNL A   1      45.534  27.584  25.121  1.00  0.00     0.030 H 
BRANCH  13  15
ATOM     15  C   UNL A   1      47.637  27.676  24.962  1.00  0.00    -0.063 C 
ATOM     16  H   UNL A   1      48.418  26.947  24.889  1.00  0.00     0.023 H 
ATOM     17  H   UNL A   1      47.934  28.447  25.642  1.00  0.00     0.023 H 
ATOM     18  H   UNL A   1      47.455  28.102  23.998  1.00  0.00     0.023 H 
ENDBRANCH  13  15
BRANCH  13  19
ATOM     19  C   UNL A   1      46.306  25.577  24.933  1.00  0.00    -0.063 C 
ATOM     20  H   UNL A   1      45.838  25.578  23.971  1.00  0.00     0.023 H 
ATOM     21  H   UNL A   1      45.739  24.966  25.605  1.00  0.00     0.023 H 
ATOM     22  H   UNL A   1      47.298  25.187  24.847  1.00  0.00     0.023 H 
ENDBRANCH  13  19
ENDBRANCH  10  13
ENDBRANCH   8  10
BRANCH   8  23
ATOM     23  N   UNL A   1      45.007  25.343  28.422  1.00  0.00    -0.343 N 
ATOM     24  C   UNL A   1      44.266  24.209  28.569  1.00  0.00     0.240 C 
ATOM     25  H   UNL A   1      44.677  26.122  28.922  1.00  0.00     0.164 HD
ATOM     26  O   UNL A   1      43.429  24.216  29.480  1.00  0.00    -0.273 OA
BRANCH  24  27
ATOM     27  C   UNL A   1      44.529  22.927  27.767  1.00  0.00     0.097 C 
ATOM     28  H   UNL A   1      44.042  22.118  28.269  1.00  0.00     0.059 H 
ATOM     29  H   UNL A   1      45.594  22.825  27.717  1.00  0.00     0.059 H 
BRANCH  27  30
ATOM     30  N   UNL A   1      44.066  22.943  26.391  1.00  0.00    -0.342 N 
ATOM     31  C   UNL A   1      43.284  22.058  25.713  1.00  0.00     0.278 C 
ATOM     32  H   UNL A   1      44.365  23.718  25.864  1.00  0.00     0.164 HD
ATOM     33  O   UNL A   1      42.990  22.362  24.551  1.00  0.00    -0.268 OA
BRANCH  31  34
ATOM     34  C   UNL A   1      42.719  20.757  26.345  1.00  0.00     0.166 C 
ATOM     35  H   UNL A   1      43.203  20.618  27.289  1.00  0.00     0.107 H 
BRANCH  34  36
ATOM     36  N   UNL A   1      41.275  20.859  26.644  1.00  0.00    -0.347 N 
ATOM     37  H   UNL A   1      40.861  19.927  26.644  1.00  0.00     0.345 HD
ATOM     38  H   UNL A   1      40.821  21.433  25.935  1.00  0.00     0.345 HD
ATOM     39  H   UNL A   1      41.147  21.287  27.561  1.00  0.00     0.345 HD
ENDBRANCH  34  36
BRANCH  34  40
ATOM     40  C   UNL A   1      43.052  19.533  25.464  1.00  0.00     0.015 C 
ATOM     41  H   UNL A   1      42.515  19.658  24.546  1.00  0.00     0.036 H 
BRANCH  40  42
ATOM     42  C   UNL A   1      44.561  19.462  25.193  1.00  0.00    -0.057 C 
ATOM     43  H   UNL A   1      45.073  20.133  25.851  1.00  0.00     0.024 H 
ATOM     44  H   UNL A   1      44.755  19.739  24.178  1.00  0.00     0.024 H 
ATOM     45  H   UNL A   1      44.907  18.464  25.363  1.00  0.00     0.024 H 
ENDBRANCH  40  42
BRANCH  40  46
ATOM     46  C   UNL A   1      42.608  18.219  26.118  1.00  0.00    -0.057 C 
ATOM     47  H   UNL A   1      43.312  17.943  26.876  1.00  0.00     0.024 H 
ATOM     48  H   UNL A   1      42.562  17.449  25.376  1.00  0.00     0.024 H 
ATOM     49  H   UNL A   1      41.642  18.347  26.560  1.00  0.00     0.024 H 
ENDBRANCH  40  46
ENDBRANCH  34  40
ENDBRANCH  31  34
ENDBRANCH  27  30
ENDBRANCH  24  27
ENDBRANCH   8  23
ENDBRANCH   5   8
ENDBRANCH   1   4
BRANCH   1  50
ATOM     50  C   UNL A   1      47.776  27.225  31.586  1.00  0.00    -0.036 C 
ATOM     51  H   UNL A   1      47.213  28.016  32.037  1.00  0.00     0.028 H 
ATOM     52  H   UNL A   1      48.682  27.574  31.136  1.00  0.00     0.028 H 
BRANCH  50  53
ATOM     53  C   UNL A   1      48.176  26.230  32.682  1.00  0.00    -0.052 C 
ATOM     54  H   UNL A   1      48.450  26.788  33.553  1.00  0.00     0.027 H 
ATOM     55  H   UNL A   1      48.980  25.650  32.282  1.00  0.00     0.027 H 
BRANCH  53  56
ATOM     56  C   UNL A   1      47.079  25.235  33.077  1.00  0.00    -0.052 C 
ATOM     57  H   UNL A   1      46.691  24.795  32.183  1.00  0.00     0.027 H 
ATOM     58  H   UNL A   1      46.349  25.795  33.624  1.00  0.00     0.027 H 
BRANCH  56  59
ATOM     59  C   UNL A   1      47.536  24.106  34.004  1.00  0.00    -0.036 C 
ATOM     60  H   UNL A   1      48.574  24.252  34.220  1.00  0.00     0.028 H 
ATOM     61  H   UNL A   1      47.344  23.190  33.488  1.00  0.00     0.028 H 
BRANCH  59  62
ATOM     62  C   UNL A   1      46.781  24.034  35.323  1.00  0.00     0.018 C 
ATOM     63  H   UNL A   1      46.758  23.018  35.655  1.00  0.00     0.049 H 
ATOM     64  H   UNL A   1      45.791  24.409  35.159  1.00  0.00     0.049 H 
BRANCH  62  65
ATOM     65  N   UNL A   1      47.405  24.849  36.351  1.00  0.00    -0.352 N 
ATOM     66  C   UNL A   1      47.190  26.167  36.656  1.00  0.00     0.251 C 
ATOM     67  H   UNL A   1      48.078  24.390  36.905  1.00  0.00     0.163 HD
ATOM     68  O   UNL A   1      47.949  26.762  37.416  1.00  0.00    -0.269 OA
BRANCH  66  69
ATOM     69  C   UNL A   1      46.049  26.876  36.045  1.00  0.00     0.039 A 
ATOM     70  C   UNL A   1      46.295  28.034  35.307  1.00  0.00    -0.049 A 
ATOM     71  C   UNL A   1      44.746  26.386  36.183  1.00  0.00    -0.049 A 
ATOM     72  C   UNL A   1      45.240  28.670  34.655  1.00  0.00    -0.053 A 
ATOM     73  H   UNL A   1      47.251  28.418  35.244  1.00  0.00     0.063 H 
ATOM     74  C   UNL A   1      43.709  26.974  35.467  1.00  0.00    -0.053 A 
ATOM     75  H   UNL A   1      44.556  25.592  36.814  1.00  0.00     0.063 H 
ATOM     76  C   UNL A   1      43.946  28.122  34.697  1.00  0.00    -0.014 A 
ATOM     77  H   UNL A   1      45.409  29.548  34.137  1.00  0.00     0.063 H 
ATOM     78  H   UNL A   1      42.763  26.565  35.503  1.00  0.00     0.063 H 
BRANCH  76  79
ATOM     79  C   UNL A   1      42.837  28.726  33.919  1.00  0.00     0.031 A 
ATOM     80  C   UNL A   1      41.856  29.648  34.582  1.00  0.00     0.074 A 
ATOM     81  C   UNL A   1      42.680  28.389  32.625  1.00  0.00     0.049 A 
ATOM     82  N   UNL A   1      40.798  30.232  34.078  1.00  0.00    -0.248 NA
ATOM     83  C   UNL A   1      42.077  29.931  36.008  1.00  0.00    -0.034 C 
ATOM     84  C   UNL A   1      43.535  27.457  31.888  1.00  0.00    -0.036 A 
ATOM     85  N   UNL A   1      41.740  28.778  31.704  1.00  0.00    -0.354 N 
ATOM     86  C   UNL A   1      40.229  30.946  35.123  1.00  0.00     0.074 A 
ATOM     87  C   UNL A   1      41.017  30.668  36.304  1.00  0.00    -0.034 C 
ATOM     88  H   UNL A   1      42.855  29.633  36.618  1.00  0.00     0.065 H 
ATOM     89  C   UNL A   1      43.093  27.361  30.625  1.00  0.00    -0.036 A 
ATOM     90  H   UNL A   1      44.348  26.955  32.276  1.00  0.00     0.065 H 
ATOM     91  C   UNL A   1      41.900  28.189  30.474  1.00  0.00     0.049 A 
ATOM     92  H   UNL A   1      41.020  29.418  31.907  1.00  0.00     0.167 HD
ATOM     93  C   UNL A   1      39.161  31.779  35.094  1.00  0.00     0.037 A 
ATOM     94  H   UNL A   1      40.786  31.000  37.253  1.00  0.00     0.065 H 
ATOM     95  H   UNL A   1      43.526  26.794  29.879  1.00  0.00     0.065 H 
ATOM     96  C   UNL A   1      41.160  28.293  29.354  1.00  0.00     0.037 A 
ATOM     97  C   UNL A   1      38.379  32.048  33.915  1.00  0.00     0.049 A 
ATOM     98  C   UNL A   1      39.962  29.201  29.350  1.00  0.00     0.074 A 
ATOM     99  C   UNL A   1      37.313  32.917  33.764  1.00  0.00    -0.036 A 
ATOM    100  N   UNL A   1      38.572  31.438  32.682  1.00  0.00    -0.354 N 
ATOM    101  N   UNL A   1      39.479  29.937  30.322  1.00  0.00    -0.248 NA
ATOM    102  C   UNL A   1      39.211  29.300  28.093  1.00  0.00    -0.034 C 
ATOM    103  C   UNL A   1      36.821  32.784  32.460  1.00  0.00    -0.036 A 
ATOM    104  H   UNL A   1      36.942  33.551  34.488  1.00  0.00     0.065 H 
ATOM    105  C   UNL A   1      37.621  31.882  31.777  1.00  0.00     0.049 A 
ATOM    106  H   UNL A   1      39.282  30.785  32.481  1.00  0.00     0.167 HD
ATOM    107  C   UNL A   1      38.379  30.597  29.793  1.00  0.00     0.074 A 
ATOM    108  C   UNL A   1      38.280  30.191  28.404  1.00  0.00    -0.034 C 
ATOM    109  H   UNL A   1      39.367  28.806  27.200  1.00  0.00     0.065 H 
ATOM    110  H   UNL A   1      36.001  33.277  32.072  1.00  0.00     0.065 H 
ATOM    111  C   UNL A   1      37.526  31.458  30.401  1.00  0.00     0.037 A 
ATOM    112  H   UNL A   1      37.575  30.551  27.743  1.00  0.00     0.065 H 
BRANCH  93 113
ATOM    113  C   UNL A   1      38.774  32.448  36.384  1.00  0.00     0.064 A 
ATOM    114  C   UNL A   1      39.151  33.770  36.673  1.00  0.00     0.173 A 
ATOM    115  C   UNL A   1      38.012  31.765  37.343  1.00  0.00     0.173 A 
ATOM    116  F   UNL A   1      39.888  34.468  35.795  1.00  0.00    -0.203 F 
ATOM    117  C   UNL A   1      38.823  34.363  37.889  1.00  0.00     0.198 A 
ATOM    118  C   UNL A   1      37.653  32.374  38.543  1.00  0.00     0.198 A 
ATOM    119  F   UNL A   1      37.615  30.502  37.120  1.00  0.00    -0.203 F 
ATOM    120  F   UNL A   1      39.257  35.600  38.168  1.00  0.00    -0.200 F 
ATOM    121  C   UNL A   1      38.070  33.666  38.821  1.00  0.00     0.200 A 
ATOM    122  F   UNL A   1      36.911  31.704  39.437  1.00  0.00    -0.200 F 
ATOM    123  F   UNL A   1      37.755  34.237  39.992  1.00  0.00    -0.200 F 
ENDBRANCH  93 113
BRANCH  96 124
ATOM    124  C   UNL A   1      41.546  27.516  28.149  1.00  0.00     0.064 A 
ATOM    125  C   UNL A   1      41.074  26.212  27.945  1.00  0.00     0.173 A 
ATOM    126  C   UNL A   1      42.369  28.074  27.159  1.00  0.00     0.173 A 
ATOM    127  F   UNL A   1      40.298  25.629  28.872  1.00  0.00    -0.203 F 
ATOM    128  C   UNL A   1      41.419  25.492  26.804  1.00  0.00     0.198 A 
ATOM    129  C   UNL A   1      42.689  27.364  26.003  1.00  0.00     0.198 A 
ATOM    130  F   UNL A   1      42.841  29.320  27.301  1.00  0.00    -0.203 F 
ATOM    131  F   UNL A   1      40.982  24.234  26.650  1.00  0.00    -0.200 F 
ATOM    132  C   UNL A   1      42.218  26.071  25.829  1.00  0.00     0.200 A 
ATOM    133  F   UNL A   1      43.445  27.935  25.056  1.00  0.00    -0.200 F 
ATOM    134  F   UNL A   1      42.536  25.383  24.724  1.00  0.00    -0.200 F 
ENDBRANCH  96 124
BRANCH 111 135
ATOM    135  C   UNL A   1      36.414  32.028  29.567  1.00  0.00     0.064 A 
ATOM    136  C   UNL A   1      35.346  31.234  29.121  1.00  0.00     0.173 A 
ATOM    137  C   UNL A   1      36.396  33.393  29.240  1.00  0.00     0.173 A 
ATOM    138  F   UNL A   1      35.323  29.921  29.392  1.00  0.00    -0.203 F 
ATOM    139  C   UNL A   1      34.317  31.780  28.357  1.00  0.00     0.198 A 
ATOM    140  C   UNL A   1      35.349  33.942  28.505  1.00  0.00     0.198 A 
ATOM    141  F   UNL A   1      37.390  34.199  29.645  1.00  0.00    -0.203 F 
ATOM    142  F   UNL A   1      33.336  30.991  27.899  1.00  0.00    -0.200 F 
ATOM    143  C   UNL A   1      34.315  33.134  28.058  1.00  0.00     0.200 A 
ATOM    144  F   UNL A   1      35.340  35.253  28.230  1.00  0.00    -0.200 F 
ATOM    145  F   UNL A   1      33.320  33.659  27.331  1.00  0.00    -0.200 F 
ENDBRANCH 111 135
ENDBRANCH  76  79
ENDBRANCH  66  69
ENDBRANCH  62  65
ENDBRANCH  59  62
ENDBRANCH  56  59
ENDBRANCH  53  56
ENDBRANCH  50  53
ENDBRANCH   1  50
TORSDOF 25
ENDMDL
MODEL 6
REMARK VINA RESULT:      -7.7      3.697     10.357
REMARK SMILES CC(C)C[C@H](NC(=O)CNC(=O)[C@@H]([NH3+])C(C)C)C(=O)NCCCCCCNC(=O)c1ccc(-c2c3nc(c(-c4c(F)c(F)c(F)c(F)c4F)c4ccc([nH]4)c(-c4c(F)c(F)c(F)c(F)c4F)c4nc(c(-c5c(F)c(F)c(F)c(F)c5F)c5ccc2[nH]5)C=C4)C=C3)cc1
REMARK SMILES IDX 21 1 20 4 18 5 19 6 5 8 4 10 2 13 1 15 3 19 6 23 7 24 8 26
REMARK SMILES IDX 9 27 10 30 11 31 12 33 13 34 14 36 15 40 16 42 17 46 22 50
REMARK SMILES IDX 23 53 24 56 25 59 26 62 27 65 28 66 29 68 30 69 31 70 92 71
REMARK SMILES IDX 32 72 91 74 33 76 34 79 35 80 85 81 36 82 90 83 84 84 86 85
REMARK SMILES IDX 37 86 89 87 83 89 82 91 38 93 70 96 50 97 69 98 51 99 54 100
REMARK SMILES IDX 68 101 87 102 52 103 53 105 67 107 88 108 55 111 39 113
REMARK SMILES IDX 40 114 48 115 41 116 42 117 46 118 49 119 43 120 44 121
REMARK SMILES IDX 47 122 45 123 71 124 72 125 80 126 73 127 74 128 78 129
REMARK SMILES IDX 81 130 75 131 76 132 79 133 77 134 56 135 57 136 65 137
REMARK SMILES IDX 58 138 59 139 63 140 66 141 60 142 61 143 64 144 62 145
REMARK H PARENT 21 2 21 3 20 7 5 9 4 11 4 12 2 14 1 16 1 17 1 18 3 20 3 21
REMARK H PARENT 3 22 6 25 9 28 9 29 10 32 13 35 14 37 14 38 14 39 15 41 16 43
REMARK H PARENT 16 44 16 45 17 47 17 48 17 49 22 51 22 52 23 54 23 55 24 57
REMARK H PARENT 24 58 25 60 25 61 26 63 26 64 27 67 31 73 92 75 32 77 91 78
REMARK H PARENT 90 88 84 90 86 92 89 94 83 95 51 104 54 106 87 109 52 110
REMARK H PARENT 88 112
REMARK Flexibility Score: inf
ROOT
ATOM      1  C   UNL A   1      45.952  24.917  27.582  1.00  0.00     0.017 C 
ATOM      2  H   UNL A   1      45.694  24.951  26.545  1.00  0.00     0.049 H 
ATOM      3  H   UNL A   1      45.837  25.882  28.030  1.00  0.00     0.049 H 
ENDROOT
BRANCH   1   4
ATOM      4  N   UNL A   1      47.331  24.507  27.716  1.00  0.00    -0.354 N 
ATOM      5  C   UNL A   1      48.454  24.997  27.126  1.00  0.00     0.242 C 
ATOM      6  O   UNL A   1      49.542  24.561  27.517  1.00  0.00    -0.273 OA
ATOM      7  H   UNL A   1      47.482  23.754  28.331  1.00  0.00     0.163 HD
BRANCH   5   8
ATOM      8  C   UNL A   1      48.389  26.144  26.103  1.00  0.00     0.108 C 
ATOM      9  H   UNL A   1      47.373  26.193  25.769  1.00  0.00     0.063 H 
BRANCH   8  10
ATOM     10  C   UNL A   1      49.228  25.864  24.848  1.00  0.00    -0.021 C 
ATOM     11  H   UNL A   1      49.547  24.844  24.878  1.00  0.00     0.030 H 
ATOM     12  H   UNL A   1      48.604  26.082  24.007  1.00  0.00     0.030 H 
BRANCH  10  13
ATOM     13  C   UNL A   1      50.486  26.758  24.705  1.00  0.00    -0.045 C 
ATOM     14  H   UNL A   1      50.377  27.553  25.412  1.00  0.00     0.030 H 
BRANCH  13  15
ATOM     15  C   UNL A   1      51.784  26.026  25.035  1.00  0.00    -0.063 C 
ATOM     16  H   UNL A   1      51.788  25.070  24.552  1.00  0.00     0.023 H 
ATOM     17  H   UNL A   1      51.858  25.889  26.094  1.00  0.00     0.023 H 
ATOM     18  H   UNL A   1      52.617  26.602  24.691  1.00  0.00     0.023 H 
ENDBRANCH  13  15
BRANCH  13  19
ATOM     19  C   UNL A   1      50.574  27.301  23.278  1.00  0.00    -0.063 C 
ATOM     20  H   UNL A   1      50.456  28.364  23.294  1.00  0.00     0.023 H 
ATOM     21  H   UNL A   1      49.798  26.865  22.682  1.00  0.00     0.023 H 
ATOM     22  H   UNL A   1      51.527  27.054  22.860  1.00  0.00     0.023 H 
ENDBRANCH  13  19
ENDBRANCH  10  13
ENDBRANCH   8  10
BRANCH   8  23
ATOM     23  N   UNL A   1      48.678  27.447  26.702  1.00  0.00    -0.343 N 
ATOM     24  C   UNL A   1      48.017  28.633  26.586  1.00  0.00     0.240 C 
ATOM     25  H   UNL A   1      49.474  27.472  27.280  1.00  0.00     0.164 HD
ATOM     26  O   UNL A   1      48.335  29.519  27.388  1.00  0.00    -0.273 OA
BRANCH  24  27
ATOM     27  C   UNL A   1      46.837  28.843  25.627  1.00  0.00     0.097 C 
ATOM     28  H   UNL A   1      46.858  28.058  24.901  1.00  0.00     0.059 H 
ATOM     29  H   UNL A   1      46.969  29.820  25.210  1.00  0.00     0.059 H 
BRANCH  27  30
ATOM     30  N   UNL A   1      45.522  28.847  26.242  1.00  0.00    -0.342 N 
ATOM     31  C   UNL A   1      44.821  29.861  26.819  1.00  0.00     0.278 C 
ATOM     32  H   UNL A   1      45.064  27.977  26.242  1.00  0.00     0.164 HD
ATOM     33  O   UNL A   1      43.680  29.589  27.209  1.00  0.00    -0.268 OA
BRANCH  31  34
ATOM     34  C   UNL A   1      45.363  31.311  26.945  1.00  0.00     0.166 C 
ATOM     35  H   UNL A   1      46.426  31.252  27.056  1.00  0.00     0.107 H 
BRANCH  34  36
ATOM     36  N   UNL A   1      45.129  32.107  25.723  1.00  0.00    -0.347 N 
ATOM     37  H   UNL A   1      44.130  32.138  25.523  1.00  0.00     0.345 HD
ATOM     38  H   UNL A   1      45.620  31.679  24.939  1.00  0.00     0.345 HD
ATOM     39  H   UNL A   1      45.477  33.056  25.863  1.00  0.00     0.345 HD
ENDBRANCH  34  36
BRANCH  34  40
ATOM     40  C   UNL A   1      44.799  31.997  28.209  1.00  0.00     0.015 C 
ATOM     41  H   UNL A   1      44.105  31.311  28.649  1.00  0.00     0.036 H 
BRANCH  40  42
ATOM     42  C   UNL A   1      45.931  32.316  29.196  1.00  0.00    -0.057 C 
ATOM     43  H   UNL A   1      45.512  32.624  30.131  1.00  0.00     0.024 H 
ATOM     44  H   UNL A   1      46.538  33.102  28.800  1.00  0.00     0.024 H 
ATOM     45  H   UNL A   1      46.531  31.442  29.345  1.00  0.00     0.024 H 
ENDBRANCH  40  42
BRANCH  40  46
ATOM     46  C   UNL A   1      44.060  33.298  27.874  1.00  0.00    -0.057 C 
ATOM     47  H   UNL A   1      44.352  34.062  28.563  1.00  0.00     0.024 H 
ATOM     48  H   UNL A   1      43.004  33.137  27.946  1.00  0.00     0.024 H 
ATOM     49  H   UNL A   1      44.306  33.603  26.878  1.00  0.00     0.024 H 
ENDBRANCH  40  46
ENDBRANCH  34  40
ENDBRANCH  31  34
ENDBRANCH  27  30
ENDBRANCH  24  27
ENDBRANCH   8  23
ENDBRANCH   5   8
ENDBRANCH   1   4
BRANCH   1  50
ATOM     50  C   UNL A   1      45.022  23.940  28.292  1.00  0.00    -0.036 C 
ATOM     51  H   UNL A   1      45.002  24.188  29.333  1.00  0.00     0.028 H 
ATOM     52  H   UNL A   1      45.406  22.957  28.113  1.00  0.00     0.028 H 
BRANCH  50  53
ATOM     53  C   UNL A   1      43.584  23.962  27.763  1.00  0.00    -0.052 C 
ATOM     54  H   UNL A   1      43.581  23.516  26.790  1.00  0.00     0.027 H 
ATOM     55  H   UNL A   1      43.280  24.988  27.759  1.00  0.00     0.027 H 
BRANCH  53  56
ATOM     56  C   UNL A   1      42.568  23.214  28.634  1.00  0.00    -0.052 C 
ATOM     57  H   UNL A   1      41.908  23.935  29.069  1.00  0.00     0.027 H 
ATOM     58  H   UNL A   1      43.138  22.669  29.358  1.00  0.00     0.027 H 
BRANCH  56  59
ATOM     59  C   UNL A   1      41.719  22.180  27.890  1.00  0.00    -0.036 C 
ATOM     60  H   UNL A   1      40.739  22.182  28.318  1.00  0.00     0.028 H 
ATOM     61  H   UNL A   1      42.218  21.240  27.997  1.00  0.00     0.028 H 
BRANCH  59  62
ATOM     62  C   UNL A   1      41.586  22.437  26.395  1.00  0.00     0.018 C 
ATOM     63  H   UNL A   1      42.156  21.704  25.865  1.00  0.00     0.049 H 
ATOM     64  H   UNL A   1      41.947  23.425  26.196  1.00  0.00     0.049 H 
BRANCH  62  65
ATOM     65  N   UNL A   1      40.204  22.366  25.954  1.00  0.00    -0.352 N 
ATOM     66  C   UNL A   1      39.158  23.199  26.254  1.00  0.00     0.251 C 
ATOM     67  H   UNL A   1      39.987  21.613  25.357  1.00  0.00     0.163 HD
ATOM     68  O   UNL A   1      38.007  22.882  25.968  1.00  0.00    -0.269 OA
BRANCH  66  69
ATOM     69  C   UNL A   1      39.424  24.475  26.947  1.00  0.00     0.039 A 
ATOM     70  C   UNL A   1      38.982  24.631  28.261  1.00  0.00    -0.049 A 
ATOM     71  C   UNL A   1      40.124  25.503  26.308  1.00  0.00    -0.049 A 
ATOM     72  C   UNL A   1      39.296  25.797  28.958  1.00  0.00    -0.053 A 
ATOM     73  H   UNL A   1      38.426  23.888  28.715  1.00  0.00     0.063 H 
ATOM     74  C   UNL A   1      40.505  26.630  27.029  1.00  0.00    -0.053 A 
ATOM     75  H   UNL A   1      40.357  25.425  25.305  1.00  0.00     0.063 H 
ATOM     76  C   UNL A   1      40.094  26.787  28.360  1.00  0.00    -0.014 A 
ATOM     77  H   UNL A   1      38.940  25.933  29.918  1.00  0.00     0.063 H 
ATOM     78  H   UNL A   1      41.091  27.352  26.583  1.00  0.00     0.063 H 
BRANCH  76  79
ATOM     79  C   UNL A   1      40.526  27.982  29.126  1.00  0.00     0.031 A 
ATOM     80  C   UNL A   1      41.892  28.036  29.746  1.00  0.00     0.074 A 
ATOM     81  C   UNL A   1      39.657  28.993  29.314  1.00  0.00     0.049 A 
ATOM     82  N   UNL A   1      42.427  28.972  30.488  1.00  0.00    -0.248 NA
ATOM     83  C   UNL A   1      42.762  26.871  29.526  1.00  0.00    -0.034 C 
ATOM     84  C   UNL A   1      38.283  29.027  28.810  1.00  0.00    -0.036 A 
ATOM     85  N   UNL A   1      39.793  30.178  29.992  1.00  0.00    -0.354 N 
ATOM     86  C   UNL A   1      43.691  28.509  30.824  1.00  0.00     0.074 A 
ATOM     87  C   UNL A   1      43.818  27.181  30.264  1.00  0.00    -0.034 C 
ATOM     88  H   UNL A   1      42.594  26.033  28.948  1.00  0.00     0.065 H 
ATOM     89  C   UNL A   1      37.710  30.183  29.179  1.00  0.00    -0.036 A 
ATOM     90  H   UNL A   1      37.828  28.283  28.259  1.00  0.00     0.065 H 
ATOM     91  C   UNL A   1      38.658  30.950  29.980  1.00  0.00     0.049 A 
ATOM     92  H   UNL A   1      40.626  30.449  30.443  1.00  0.00     0.167 HD
ATOM     93  C   UNL A   1      44.668  29.145  31.515  1.00  0.00     0.037 A 
ATOM     94  H   UNL A   1      44.624  26.556  30.417  1.00  0.00     0.065 H 
ATOM     95  H   UNL A   1      36.752  30.482  28.935  1.00  0.00     0.065 H 
ATOM     96  C   UNL A   1      38.405  32.138  30.562  1.00  0.00     0.037 A 
ATOM     97  C   UNL A   1      44.533  30.466  32.073  1.00  0.00     0.049 A 
ATOM     98  C   UNL A   1      39.493  32.815  31.348  1.00  0.00     0.074 A 
ATOM     99  C   UNL A   1      45.478  31.223  32.742  1.00  0.00    -0.036 A 
ATOM    100  N   UNL A   1      43.370  31.223  32.038  1.00  0.00    -0.354 N 
ATOM    101  N   UNL A   1      40.714  32.405  31.591  1.00  0.00    -0.248 NA
ATOM    102  C   UNL A   1      39.171  34.122  31.934  1.00  0.00    -0.034 C 
ATOM    103  C   UNL A   1      44.869  32.409  33.167  1.00  0.00    -0.036 A 
ATOM    104  H   UNL A   1      46.462  30.958  32.902  1.00  0.00     0.065 H 
ATOM    105  C   UNL A   1      43.562  32.423  32.706  1.00  0.00     0.049 A 
ATOM    106  H   UNL A   1      42.531  30.949  31.601  1.00  0.00     0.167 HD
ATOM    107  C   UNL A   1      41.312  33.406  32.344  1.00  0.00     0.074 A 
ATOM    108  C   UNL A   1      40.323  34.456  32.497  1.00  0.00    -0.034 C 
ATOM    109  H   UNL A   1      38.280  34.644  31.913  1.00  0.00     0.065 H 
ATOM    110  H   UNL A   1      45.318  33.150  33.728  1.00  0.00     0.065 H 
ATOM    111  C   UNL A   1      42.563  33.452  32.863  1.00  0.00     0.037 A 
ATOM    112  H   UNL A   1      40.496  35.349  32.983  1.00  0.00     0.065 H 
BRANCH  93 113
ATOM    113  C   UNL A   1      45.964  28.408  31.713  1.00  0.00     0.064 A 
ATOM    114  C   UNL A   1      46.213  27.651  32.870  1.00  0.00     0.173 A 
ATOM    115  C   UNL A   1      46.968  28.451  30.735  1.00  0.00     0.173 A 
ATOM    116  F   UNL A   1      45.292  27.582  33.843  1.00  0.00    -0.203 F 
ATOM    117  C   UNL A   1      47.434  27.009  33.060  1.00  0.00     0.198 A 
ATOM    118  C   UNL A   1      48.173  27.776  30.911  1.00  0.00     0.198 A 
ATOM    119  F   UNL A   1      46.783  29.151  29.604  1.00  0.00    -0.203 F 
ATOM    120  F   UNL A   1      47.673  26.353  34.204  1.00  0.00    -0.200 F 
ATOM    121  C   UNL A   1      48.411  27.067  32.079  1.00  0.00     0.200 A 
ATOM    122  F   UNL A   1      49.111  27.820  29.953  1.00  0.00    -0.200 F 
ATOM    123  F   UNL A   1      49.586  26.449  32.262  1.00  0.00    -0.200 F 
ENDBRANCH  93 113
BRANCH  96 124
ATOM    124  C   UNL A   1      37.062  32.754  30.410  1.00  0.00     0.064 A 
ATOM    125  C   UNL A   1      36.723  33.476  29.257  1.00  0.00     0.173 A 
ATOM    126  C   UNL A   1      36.079  32.606  31.400  1.00  0.00     0.173 A 
ATOM    127  F   UNL A   1      37.634  33.659  28.290  1.00  0.00    -0.203 F 
ATOM    128  C   UNL A   1      35.456  34.035  29.105  1.00  0.00     0.198 A 
ATOM    129  C   UNL A   1      34.802  33.140  31.234  1.00  0.00     0.198 A 
ATOM    130  F   UNL A   1      36.350  31.918  32.518  1.00  0.00    -0.203 F 
ATOM    131  F   UNL A   1      35.168  34.749  28.009  1.00  0.00    -0.200 F 
ATOM    132  C   UNL A   1      34.493  33.858  30.089  1.00  0.00     0.200 A 
ATOM    133  F   UNL A   1      33.872  32.950  32.178  1.00  0.00    -0.200 F 
ATOM    134  F   UNL A   1      33.270  34.383  29.935  1.00  0.00    -0.200 F 
ENDBRANCH  96 124
BRANCH 111 135
ATOM    135  C   UNL A   1      42.940  34.681  33.640  1.00  0.00     0.064 A 
ATOM    136  C   UNL A   1      42.871  34.717  35.042  1.00  0.00     0.173 A 
ATOM    137  C   UNL A   1      43.412  35.826  32.979  1.00  0.00     0.173 A 
ATOM    138  F   UNL A   1      42.412  33.655  35.722  1.00  0.00    -0.203 F 
ATOM    139  C   UNL A   1      43.235  35.861  35.749  1.00  0.00     0.198 A 
ATOM    140  C   UNL A   1      43.806  36.955  33.691  1.00  0.00     0.198 A 
ATOM    141  F   UNL A   1      43.504  35.845  31.641  1.00  0.00    -0.203 F 
ATOM    142  F   UNL A   1      43.110  35.888  37.082  1.00  0.00    -0.200 F 
ATOM    143  C   UNL A   1      43.710  36.974  35.074  1.00  0.00     0.200 A 
ATOM    144  F   UNL A   1      44.280  38.025  33.038  1.00  0.00    -0.200 F 
ATOM    145  F   UNL A   1      44.068  38.071  35.756  1.00  0.00    -0.200 F 
ENDBRANCH 111 135
ENDBRANCH  76  79
ENDBRANCH  66  69
ENDBRANCH  62  65
ENDBRANCH  59  62
ENDBRANCH  56  59
ENDBRANCH  53  56
ENDBRANCH  50  53
ENDBRANCH   1  50
TORSDOF 25
ENDMDL
MODEL 7
REMARK VINA RESULT:      -7.7      4.769     11.040
REMARK SMILES CC(C)C[C@H](NC(=O)CNC(=O)[C@@H]([NH3+])C(C)C)C(=O)NCCCCCCNC(=O)c1ccc(-c2c3nc(c(-c4c(F)c(F)c(F)c(F)c4F)c4ccc([nH]4)c(-c4c(F)c(F)c(F)c(F)c4F)c4nc(c(-c5c(F)c(F)c(F)c(F)c5F)c5ccc2[nH]5)C=C4)C=C3)cc1
REMARK SMILES IDX 21 1 20 4 18 5 19 6 5 8 4 10 2 13 1 15 3 19 6 23 7 24 8 26
REMARK SMILES IDX 9 27 10 30 11 31 12 33 13 34 14 36 15 40 16 42 17 46 22 50
REMARK SMILES IDX 23 53 24 56 25 59 26 62 27 65 28 66 29 68 30 69 31 70 92 71
REMARK SMILES IDX 32 72 91 74 33 76 34 79 35 80 85 81 36 82 90 83 84 84 86 85
REMARK SMILES IDX 37 86 89 87 83 89 82 91 38 93 70 96 50 97 69 98 51 99 54 100
REMARK SMILES IDX 68 101 87 102 52 103 53 105 67 107 88 108 55 111 39 113
REMARK SMILES IDX 40 114 48 115 41 116 42 117 46 118 49 119 43 120 44 121
REMARK SMILES IDX 47 122 45 123 71 124 72 125 80 126 73 127 74 128 78 129
REMARK SMILES IDX 81 130 75 131 76 132 79 133 77 134 56 135 57 136 65 137
REMARK SMILES IDX 58 138 59 139 63 140 66 141 60 142 61 143 64 144 62 145
REMARK H PARENT 21 2 21 3 20 7 5 9 4 11 4 12 2 14 1 16 1 17 1 18 3 20 3 21
REMARK H PARENT 3 22 6 25 9 28 9 29 10 32 13 35 14 37 14 38 14 39 15 41 16 43
REMARK H PARENT 16 44 16 45 17 47 17 48 17 49 22 51 22 52 23 54 23 55 24 57
REMARK H PARENT 24 58 25 60 25 61 26 63 26 64 27 67 31 73 92 75 32 77 91 78
REMARK H PARENT 90 88 84 90 86 92 89 94 83 95 51 104 54 106 87 109 52 110
REMARK H PARENT 88 112
REMARK Flexibility Score: inf
ROOT
ATOM      1  C   UNL A   1      33.769  26.202  24.908  1.00  0.00     0.017 C 
ATOM      2  H   UNL A   1      32.715  26.120  25.075  1.00  0.00     0.049 H 
ATOM      3  H   UNL A   1      34.191  26.957  25.538  1.00  0.00     0.049 H 
ENDROOT
BRANCH   1   4
ATOM      4  N   UNL A   1      34.003  26.569  23.529  1.00  0.00    -0.354 N 
ATOM      5  C   UNL A   1      33.784  27.746  22.884  1.00  0.00     0.242 C 
ATOM      6  O   UNL A   1      34.204  27.850  21.727  1.00  0.00    -0.273 OA
ATOM      7  H   UNL A   1      34.381  25.854  22.970  1.00  0.00     0.163 HD
BRANCH   5   8
ATOM      8  C   UNL A   1      33.157  28.952  23.604  1.00  0.00     0.108 C 
ATOM      9  H   UNL A   1      33.916  29.705  23.649  1.00  0.00     0.063 H 
BRANCH   8  10
ATOM     10  C   UNL A   1      32.787  28.642  25.062  1.00  0.00    -0.021 C 
ATOM     11  H   UNL A   1      31.722  28.575  25.131  1.00  0.00     0.030 H 
ATOM     12  H   UNL A   1      33.281  27.726  25.313  1.00  0.00     0.030 H 
BRANCH  10  13
ATOM     13  C   UNL A   1      33.272  29.698  26.086  1.00  0.00    -0.045 C 
ATOM     14  H   UNL A   1      33.807  30.439  25.529  1.00  0.00     0.030 H 
BRANCH  13  15
ATOM     15  C   UNL A   1      32.127  30.405  26.808  1.00  0.00    -0.063 C 
ATOM     16  H   UNL A   1      32.247  30.290  27.865  1.00  0.00     0.023 H 
ATOM     17  H   UNL A   1      31.195  29.973  26.507  1.00  0.00     0.023 H 
ATOM     18  H   UNL A   1      32.135  31.445  26.558  1.00  0.00     0.023 H 
ENDBRANCH  13  15
BRANCH  13  19
ATOM     19  C   UNL A   1      34.176  29.034  27.124  1.00  0.00    -0.063 C 
ATOM     20  H   UNL A   1      35.069  29.612  27.241  1.00  0.00     0.023 H 
ATOM     21  H   UNL A   1      34.430  28.047  26.797  1.00  0.00     0.023 H 
ATOM     22  H   UNL A   1      33.663  28.978  28.061  1.00  0.00     0.023 H 
ENDBRANCH  13  19
ENDBRANCH  10  13
ENDBRANCH   8  10
BRANCH   8  23
ATOM     23  N   UNL A   1      32.051  29.543  22.849  1.00  0.00    -0.343 N 
ATOM     24  C   UNL A   1      30.908  28.971  22.376  1.00  0.00     0.240 C 
ATOM     25  H   UNL A   1      32.147  30.502  22.654  1.00  0.00     0.164 HD
ATOM     26  O   UNL A   1      30.031  29.747  21.981  1.00  0.00    -0.273 OA
BRANCH  24  27
ATOM     27  C   UNL A   1      30.633  27.463  22.452  1.00  0.00     0.097 C 
ATOM     28  H   UNL A   1      31.448  27.004  22.971  1.00  0.00     0.059 H 
ATOM     29  H   UNL A   1      30.526  27.133  21.439  1.00  0.00     0.059 H 
BRANCH  27  30
ATOM     30  N   UNL A   1      29.404  27.084  23.126  1.00  0.00    -0.342 N 
ATOM     31  C   UNL A   1      29.206  26.328  24.241  1.00  0.00     0.278 C 
ATOM     32  H   UNL A   1      28.582  27.429  22.710  1.00  0.00     0.164 HD
ATOM     33  O   UNL A   1      28.038  26.222  24.633  1.00  0.00    -0.268 OA
BRANCH  31  34
ATOM     34  C   UNL A   1      30.361  25.669  25.043  1.00  0.00     0.166 C 
ATOM     35  H   UNL A   1      31.278  26.105  24.709  1.00  0.00     0.107 H 
BRANCH  34  36
ATOM     36  N   UNL A   1      30.279  25.960  26.489  1.00  0.00    -0.347 N 
ATOM     37  H   UNL A   1      29.311  26.162  26.742  1.00  0.00     0.345 HD
ATOM     38  H   UNL A   1      30.862  26.767  26.707  1.00  0.00     0.345 HD
ATOM     39  H   UNL A   1      30.606  25.152  27.018  1.00  0.00     0.345 HD
ENDBRANCH  34  36
BRANCH  34  40
ATOM     40  C   UNL A   1      30.431  24.154  24.753  1.00  0.00     0.015 C 
ATOM     41  H   UNL A   1      29.421  23.804  24.685  1.00  0.00     0.036 H 
BRANCH  40  42
ATOM     42  C   UNL A   1      31.174  23.894  23.435  1.00  0.00    -0.057 C 
ATOM     43  H   UNL A   1      30.887  24.630  22.713  1.00  0.00     0.024 H 
ATOM     44  H   UNL A   1      30.924  22.920  23.070  1.00  0.00     0.024 H 
ATOM     45  H   UNL A   1      32.229  23.952  23.603  1.00  0.00     0.024 H 
ENDBRANCH  40  42
BRANCH  40  46
ATOM     46  C   UNL A   1      31.141  23.387  25.875  1.00  0.00    -0.057 C 
ATOM     47  H   UNL A   1      31.963  22.837  25.467  1.00  0.00     0.024 H 
ATOM     48  H   UNL A   1      30.452  22.710  26.337  1.00  0.00     0.024 H 
ATOM     49  H   UNL A   1      31.505  24.079  26.607  1.00  0.00     0.024 H 
ENDBRANCH  40  46
ENDBRANCH  34  40
ENDBRANCH  31  34
ENDBRANCH  27  30
ENDBRANCH  24  27
ENDBRANCH   8  23
ENDBRANCH   5   8
ENDBRANCH   1   4
BRANCH   1  50
ATOM     50  C   UNL A   1      34.429  24.870  25.238  1.00  0.00    -0.036 C 
ATOM     51  H   UNL A   1      33.747  24.290  25.824  1.00  0.00     0.028 H 
ATOM     52  H   UNL A   1      35.334  25.091  25.765  1.00  0.00     0.028 H 
BRANCH  50  53
ATOM     53  C   UNL A   1      34.821  24.052  24.002  1.00  0.00    -0.052 C 
ATOM     54  H   UNL A   1      35.785  24.382  23.677  1.00  0.00     0.027 H 
ATOM     55  H   UNL A   1      34.052  24.217  23.277  1.00  0.00     0.027 H 
BRANCH  53  56
ATOM     56  C   UNL A   1      34.885  22.538  24.228  1.00  0.00    -0.052 C 
ATOM     57  H   UNL A   1      34.391  22.058  23.410  1.00  0.00     0.027 H 
ATOM     58  H   UNL A   1      34.415  22.355  25.172  1.00  0.00     0.027 H 
BRANCH  56  59
ATOM     59  C   UNL A   1      36.300  21.962  24.334  1.00  0.00    -0.036 C 
ATOM     60  H   UNL A   1      36.924  22.482  23.638  1.00  0.00     0.028 H 
ATOM     61  H   UNL A   1      36.221  20.917  24.122  1.00  0.00     0.028 H 
BRANCH  59  62
ATOM     62  C   UNL A   1      36.923  22.083  25.717  1.00  0.00     0.018 C 
ATOM     63  H   UNL A   1      36.161  21.948  26.455  1.00  0.00     0.049 H 
ATOM     64  H   UNL A   1      37.369  23.053  25.795  1.00  0.00     0.049 H 
BRANCH  62  65
ATOM     65  N   UNL A   1      37.965  21.092  25.931  1.00  0.00    -0.352 N 
ATOM     66  C   UNL A   1      39.278  21.280  26.270  1.00  0.00     0.251 C 
ATOM     67  H   UNL A   1      37.687  20.154  25.814  1.00  0.00     0.163 HD
ATOM     68  O   UNL A   1      40.077  20.350  26.208  1.00  0.00    -0.269 OA
BRANCH  66  69
ATOM     69  C   UNL A   1      39.734  22.620  26.689  1.00  0.00     0.039 A 
ATOM     70  C   UNL A   1      40.746  22.718  27.644  1.00  0.00    -0.049 A 
ATOM     71  C   UNL A   1      39.177  23.773  26.126  1.00  0.00    -0.049 A 
ATOM     72  C   UNL A   1      41.245  23.972  27.991  1.00  0.00    -0.053 A 
ATOM     73  H   UNL A   1      41.123  21.867  28.092  1.00  0.00     0.063 H 
ATOM     74  C   UNL A   1      39.730  25.017  26.413  1.00  0.00    -0.053 A 
ATOM     75  H   UNL A   1      38.360  23.701  25.500  1.00  0.00     0.063 H 
ATOM     76  C   UNL A   1      40.768  25.127  27.348  1.00  0.00    -0.014 A 
ATOM     77  H   UNL A   1      41.968  24.053  28.724  1.00  0.00     0.063 H 
ATOM     78  H   UNL A   1      39.375  25.860  25.936  1.00  0.00     0.063 H 
BRANCH  76  79
ATOM     79  C   UNL A   1      41.366  26.457  27.629  1.00  0.00     0.031 A 
ATOM     80  C   UNL A   1      42.775  26.761  27.213  1.00  0.00     0.074 A 
ATOM     81  C   UNL A   1      40.652  27.367  28.317  1.00  0.00     0.049 A 
ATOM     82  N   UNL A   1      43.481  27.845  27.413  1.00  0.00    -0.248 NA
ATOM     83  C   UNL A   1      43.497  25.695  26.502  1.00  0.00    -0.034 C 
ATOM     84  C   UNL A   1      39.294  27.164  28.825  1.00  0.00    -0.036 A 
ATOM     85  N   UNL A   1      40.973  28.638  28.723  1.00  0.00    -0.354 N 
ATOM     86  C   UNL A   1      44.727  27.591  26.857  1.00  0.00     0.074 A 
ATOM     87  C   UNL A   1      44.703  26.228  26.373  1.00  0.00    -0.034 C 
ATOM     88  H   UNL A   1      43.154  24.774  26.187  1.00  0.00     0.065 H 
ATOM     89  C   UNL A   1      38.891  28.277  29.456  1.00  0.00    -0.036 A 
ATOM     90  H   UNL A   1      38.735  26.303  28.714  1.00  0.00     0.065 H 
ATOM     91  C   UNL A   1      39.975  29.255  29.436  1.00  0.00     0.049 A 
ATOM     92  H   UNL A   1      41.836  29.067  28.521  1.00  0.00     0.167 HD
ATOM     93  C   UNL A   1      45.786  28.428  26.737  1.00  0.00     0.037 A 
ATOM     94  H   UNL A   1      45.518  25.733  25.978  1.00  0.00     0.065 H 
ATOM     95  H   UNL A   1      37.964  28.420  29.887  1.00  0.00     0.065 H 
ATOM     96  C   UNL A   1      39.942  30.467  30.022  1.00  0.00     0.037 A 
ATOM     97  C   UNL A   1      45.802  29.783  27.225  1.00  0.00     0.049 A 
ATOM     98  C   UNL A   1      41.137  31.370  29.901  1.00  0.00     0.074 A 
ATOM     99  C   UNL A   1      46.801  30.733  27.106  1.00  0.00    -0.036 A 
ATOM    100  N   UNL A   1      44.770  30.378  27.939  1.00  0.00    -0.354 N 
ATOM    101  N   UNL A   1      42.282  31.151  29.301  1.00  0.00    -0.248 NA
ATOM    102  C   UNL A   1      41.033  32.692  30.532  1.00  0.00    -0.034 C 
ATOM    103  C   UNL A   1      46.401  31.878  27.804  1.00  0.00    -0.036 A 
ATOM    104  H   UNL A   1      47.689  30.615  26.594  1.00  0.00     0.065 H 
ATOM    105  C   UNL A   1      45.125  31.669  28.301  1.00  0.00     0.049 A 
ATOM    106  H   UNL A   1      43.912  29.947  28.157  1.00  0.00     0.167 HD
ATOM    107  C   UNL A   1      43.029  32.309  29.468  1.00  0.00     0.074 A 
ATOM    108  C   UNL A   1      42.197  33.238  30.206  1.00  0.00    -0.034 C 
ATOM    109  H   UNL A   1      40.258  33.092  31.084  1.00  0.00     0.065 H 
ATOM    110  H   UNL A   1      46.963  32.736  27.925  1.00  0.00     0.065 H 
ATOM    111  C   UNL A   1      44.291  32.577  29.050  1.00  0.00     0.037 A 
ATOM    112  H   UNL A   1      42.475  34.201  30.447  1.00  0.00     0.065 H 
BRANCH  93 113
ATOM    113  C   UNL A   1      47.016  27.890  26.060  1.00  0.00     0.064 A 
ATOM    114  C   UNL A   1      47.113  27.809  24.661  1.00  0.00     0.173 A 
ATOM    115  C   UNL A   1      48.114  27.455  26.815  1.00  0.00     0.173 A 
ATOM    116  F   UNL A   1      46.088  28.203  23.889  1.00  0.00    -0.203 F 
ATOM    117  C   UNL A   1      48.241  27.269  24.048  1.00  0.00     0.198 A 
ATOM    118  C   UNL A   1      49.256  26.950  26.198  1.00  0.00     0.198 A 
ATOM    119  F   UNL A   1      48.083  27.516  28.155  1.00  0.00    -0.203 F 
ATOM    120  F   UNL A   1      48.278  27.138  22.715  1.00  0.00    -0.200 F 
ATOM    121  C   UNL A   1      49.313  26.844  24.816  1.00  0.00     0.200 A 
ATOM    122  F   UNL A   1      50.300  26.555  26.942  1.00  0.00    -0.200 F 
ATOM    123  F   UNL A   1      50.398  26.324  24.226  1.00  0.00    -0.200 F 
ENDBRANCH  93 113
BRANCH  96 124
ATOM    124  C   UNL A   1      38.726  30.885  30.766  1.00  0.00     0.064 A 
ATOM    125  C   UNL A   1      37.618  31.424  30.099  1.00  0.00     0.173 A 
ATOM    126  C   UNL A   1      38.636  30.725  32.157  1.00  0.00     0.173 A 
ATOM    127  F   UNL A   1      37.663  31.613  28.771  1.00  0.00    -0.203 F 
ATOM    128  C   UNL A   1      36.470  31.796  30.794  1.00  0.00     0.198 A 
ATOM    129  C   UNL A   1      37.476  31.069  32.849  1.00  0.00     0.198 A 
ATOM    130  F   UNL A   1      39.665  30.207  32.842  1.00  0.00    -0.203 F 
ATOM    131  F   UNL A   1      35.438  32.341  30.137  1.00  0.00    -0.200 F 
ATOM    132  C   UNL A   1      36.396  31.610  32.167  1.00  0.00     0.200 A 
ATOM    133  F   UNL A   1      37.403  30.869  34.171  1.00  0.00    -0.200 F 
ATOM    134  F   UNL A   1      35.285  31.953  32.834  1.00  0.00    -0.200 F 
ENDBRANCH  96 124
BRANCH 111 135
ATOM    135  C   UNL A   1      44.848  33.935  29.374  1.00  0.00     0.064 A 
ATOM    136  C   UNL A   1      45.592  34.166  30.541  1.00  0.00     0.173 A 
ATOM    137  C   UNL A   1      44.667  35.009  28.489  1.00  0.00     0.173 A 
ATOM    138  F   UNL A   1      45.781  33.177  31.428  1.00  0.00    -0.203 F 
ATOM    139  C   UNL A   1      46.111  35.428  30.822  1.00  0.00     0.198 A 
ATOM    140  C   UNL A   1      45.216  36.260  28.757  1.00  0.00     0.198 A 
ATOM    141  F   UNL A   1      43.968  34.842  27.356  1.00  0.00    -0.203 F 
ATOM    142  F   UNL A   1      46.774  35.636  31.967  1.00  0.00    -0.200 F 
ATOM    143  C   UNL A   1      45.930  36.470  29.926  1.00  0.00     0.200 A 
ATOM    144  F   UNL A   1      45.054  37.262  27.882  1.00  0.00    -0.200 F 
ATOM    145  F   UNL A   1      46.438  37.681  30.194  1.00  0.00    -0.200 F 
ENDBRANCH 111 135
ENDBRANCH  76  79
ENDBRANCH  66  69
ENDBRANCH  62  65
ENDBRANCH  59  62
ENDBRANCH  56  59
ENDBRANCH  53  56
ENDBRANCH  50  53
ENDBRANCH   1  50
TORSDOF 25
ENDMDL
MODEL 8
REMARK VINA RESULT:      -7.6      4.974     11.812
REMARK SMILES CC(C)C[C@H](NC(=O)CNC(=O)[C@@H]([NH3+])C(C)C)C(=O)NCCCCCCNC(=O)c1ccc(-c2c3nc(c(-c4c(F)c(F)c(F)c(F)c4F)c4ccc([nH]4)c(-c4c(F)c(F)c(F)c(F)c4F)c4nc(c(-c5c(F)c(F)c(F)c(F)c5F)c5ccc2[nH]5)C=C4)C=C3)cc1
REMARK SMILES IDX 21 1 20 4 18 5 19 6 5 8 4 10 2 13 1 15 3 19 6 23 7 24 8 26
REMARK SMILES IDX 9 27 10 30 11 31 12 33 13 34 14 36 15 40 16 42 17 46 22 50
REMARK SMILES IDX 23 53 24 56 25 59 26 62 27 65 28 66 29 68 30 69 31 70 92 71
REMARK SMILES IDX 32 72 91 74 33 76 34 79 35 80 85 81 36 82 90 83 84 84 86 85
REMARK SMILES IDX 37 86 89 87 83 89 82 91 38 93 70 96 50 97 69 98 51 99 54 100
REMARK SMILES IDX 68 101 87 102 52 103 53 105 67 107 88 108 55 111 39 113
REMARK SMILES IDX 40 114 48 115 41 116 42 117 46 118 49 119 43 120 44 121
REMARK SMILES IDX 47 122 45 123 71 124 72 125 80 126 73 127 74 128 78 129
REMARK SMILES IDX 81 130 75 131 76 132 79 133 77 134 56 135 57 136 65 137
REMARK SMILES IDX 58 138 59 139 63 140 66 141 60 142 61 143 64 144 62 145
REMARK H PARENT 21 2 21 3 20 7 5 9 4 11 4 12 2 14 1 16 1 17 1 18 3 20 3 21
REMARK H PARENT 3 22 6 25 9 28 9 29 10 32 13 35 14 37 14 38 14 39 15 41 16 43
REMARK H PARENT 16 44 16 45 17 47 17 48 17 49 22 51 22 52 23 54 23 55 24 57
REMARK H PARENT 24 58 25 60 25 61 26 63 26 64 27 67 31 73 92 75 32 77 91 78
REMARK H PARENT 90 88 84 90 86 92 89 94 83 95 51 104 54 106 87 109 52 110
REMARK H PARENT 88 112
REMARK Flexibility Score: inf
ROOT
ATOM      1  C   UNL A   1      31.748  22.724  23.272  1.00  0.00     0.017 C 
ATOM      2  H   UNL A   1      30.931  22.149  22.892  1.00  0.00     0.049 H 
ATOM      3  H   UNL A   1      31.408  23.413  24.017  1.00  0.00     0.049 H 
ENDROOT
BRANCH   1   4
ATOM      4  N   UNL A   1      32.345  23.474  22.189  1.00  0.00    -0.354 N 
ATOM      5  C   UNL A   1      32.707  24.783  22.122  1.00  0.00     0.242 C 
ATOM      6  O   UNL A   1      33.333  25.152  21.123  1.00  0.00    -0.273 OA
ATOM      7  H   UNL A   1      32.515  22.954  21.371  1.00  0.00     0.163 HD
BRANCH   5   8
ATOM      8  C   UNL A   1      32.468  25.744  23.300  1.00  0.00     0.108 C 
ATOM      9  H   UNL A   1      32.589  26.733  22.911  1.00  0.00     0.063 H 
BRANCH   8  10
ATOM     10  C   UNL A   1      33.524  25.596  24.405  1.00  0.00    -0.021 C 
ATOM     11  H   UNL A   1      33.134  24.941  25.155  1.00  0.00     0.030 H 
ATOM     12  H   UNL A   1      34.406  25.215  23.935  1.00  0.00     0.030 H 
BRANCH  10  13
ATOM     13  C   UNL A   1      33.928  26.926  25.088  1.00  0.00    -0.045 C 
ATOM     14  H   UNL A   1      34.968  26.844  25.325  1.00  0.00     0.030 H 
BRANCH  13  15
ATOM     15  C   UNL A   1      33.760  28.143  24.181  1.00  0.00    -0.063 C 
ATOM     16  H   UNL A   1      32.742  28.207  23.856  1.00  0.00     0.023 H 
ATOM     17  H   UNL A   1      34.399  28.044  23.329  1.00  0.00     0.023 H 
ATOM     18  H   UNL A   1      34.018  29.029  24.721  1.00  0.00     0.023 H 
ENDBRANCH  13  15
BRANCH  13  19
ATOM     19  C   UNL A   1      33.092  27.132  26.352  1.00  0.00    -0.063 C 
ATOM     20  H   UNL A   1      33.365  28.059  26.812  1.00  0.00     0.023 H 
ATOM     21  H   UNL A   1      33.274  26.328  27.035  1.00  0.00     0.023 H 
ATOM     22  H   UNL A   1      32.054  27.154  26.095  1.00  0.00     0.023 H 
ENDBRANCH  13  19
ENDBRANCH  10  13
ENDBRANCH   8  10
BRANCH   8  23
ATOM     23  N   UNL A   1      31.097  25.677  23.808  1.00  0.00    -0.343 N 
ATOM     24  C   UNL A   1      30.031  26.490  23.565  1.00  0.00     0.240 C 
ATOM     25  H   UNL A   1      30.917  24.929  24.421  1.00  0.00     0.164 HD
ATOM     26  O   UNL A   1      28.928  26.070  23.933  1.00  0.00    -0.273 OA
BRANCH  24  27
ATOM     27  C   UNL A   1      30.136  27.788  22.752  1.00  0.00     0.097 C 
ATOM     28  H   UNL A   1      29.284  27.844  22.109  1.00  0.00     0.059 H 
ATOM     29  H   UNL A   1      31.069  27.732  22.229  1.00  0.00     0.059 H 
BRANCH  27  30
ATOM     30  N   UNL A   1      30.190  29.012  23.531  1.00  0.00    -0.342 N 
ATOM     31  C   UNL A   1      29.571  30.209  23.338  1.00  0.00     0.278 C 
ATOM     32  H   UNL A   1      30.767  28.969  24.327  1.00  0.00     0.164 HD
ATOM     33  O   UNL A   1      29.750  31.067  24.209  1.00  0.00    -0.268 OA
BRANCH  31  34
ATOM     34  C   UNL A   1      28.634  30.502  22.135  1.00  0.00     0.166 C 
ATOM     35  H   UNL A   1      28.968  29.908  21.311  1.00  0.00     0.107 H 
BRANCH  34  36
ATOM     36  N   UNL A   1      27.240  30.086  22.395  1.00  0.00    -0.347 N 
ATOM     37  H   UNL A   1      26.973  29.359  21.732  1.00  0.00     0.345 HD
ATOM     38  H   UNL A   1      26.620  30.888  22.288  1.00  0.00     0.345 HD
ATOM     39  H   UNL A   1      27.165  29.723  23.345  1.00  0.00     0.345 HD
ENDBRANCH  34  36
BRANCH  34  40
ATOM     40  C   UNL A   1      28.735  31.984  21.714  1.00  0.00     0.015 C 
ATOM     41  H   UNL A   1      29.776  32.199  21.585  1.00  0.00     0.036 H 
BRANCH  40  42
ATOM     42  C   UNL A   1      27.976  32.221  20.401  1.00  0.00    -0.057 C 
ATOM     43  H   UNL A   1      27.165  31.526  20.327  1.00  0.00     0.024 H 
ATOM     44  H   UNL A   1      28.641  32.082  19.574  1.00  0.00     0.024 H 
ATOM     45  H   UNL A   1      27.592  33.220  20.385  1.00  0.00     0.024 H 
ENDBRANCH  40  42
BRANCH  40  46
ATOM     46  C   UNL A   1      28.167  32.925  22.784  1.00  0.00    -0.057 C 
ATOM     47  H   UNL A   1      28.174  33.929  22.416  1.00  0.00     0.024 H 
ATOM     48  H   UNL A   1      28.768  32.864  23.668  1.00  0.00     0.024 H 
ATOM     49  H   UNL A   1      27.162  32.637  23.016  1.00  0.00     0.024 H 
ENDBRANCH  40  46
ENDBRANCH  34  40
ENDBRANCH  31  34
ENDBRANCH  27  30
ENDBRANCH  24  27
ENDBRANCH   8  23
ENDBRANCH   5   8
ENDBRANCH   1   4
BRANCH   1  50
ATOM     50  C   UNL A   1      32.764  21.784  23.908  1.00  0.00    -0.036 C 
ATOM     51  H   UNL A   1      32.512  20.779  23.636  1.00  0.00     0.028 H 
ATOM     52  H   UNL A   1      32.718  21.944  24.965  1.00  0.00     0.028 H 
BRANCH  50  53
ATOM     53  C   UNL A   1      34.209  22.053  23.476  1.00  0.00    -0.052 C 
ATOM     54  H   UNL A   1      34.243  23.014  23.008  1.00  0.00     0.027 H 
ATOM     55  H   UNL A   1      34.481  21.253  22.820  1.00  0.00     0.027 H 
BRANCH  53  56
ATOM     56  C   UNL A   1      35.233  22.043  24.618  1.00  0.00    -0.052 C 
ATOM     57  H   UNL A   1      35.705  21.084  24.633  1.00  0.00     0.027 H 
ATOM     58  H   UNL A   1      34.686  22.260  25.512  1.00  0.00     0.027 H 
BRANCH  56  59
ATOM     59  C   UNL A   1      36.325  23.110  24.513  1.00  0.00    -0.036 C 
ATOM     60  H   UNL A   1      35.889  23.995  24.098  1.00  0.00     0.028 H 
ATOM     61  H   UNL A   1      37.097  22.698  23.898  1.00  0.00     0.028 H 
BRANCH  59  62
ATOM     62  C   UNL A   1      36.973  23.477  25.841  1.00  0.00     0.018 C 
ATOM     63  H   UNL A   1      36.226  23.462  26.607  1.00  0.00     0.049 H 
ATOM     64  H   UNL A   1      37.404  24.451  25.741  1.00  0.00     0.049 H 
BRANCH  62  65
ATOM     65  N   UNL A   1      38.032  22.550  26.202  1.00  0.00    -0.352 N 
ATOM     66  C   UNL A   1      39.294  22.819  26.663  1.00  0.00     0.251 C 
ATOM     67  H   UNL A   1      37.814  21.595  26.098  1.00  0.00     0.163 HD
ATOM     68  O   UNL A   1      40.139  21.930  26.723  1.00  0.00    -0.269 OA
BRANCH  66  69
ATOM     69  C   UNL A   1      39.639  24.196  27.068  1.00  0.00     0.039 A 
ATOM     70  C   UNL A   1      39.447  24.574  28.398  1.00  0.00    -0.049 A 
ATOM     71  C   UNL A   1      40.167  25.102  26.143  1.00  0.00    -0.049 A 
ATOM     72  C   UNL A   1      39.844  25.843  28.815  1.00  0.00    -0.053 A 
ATOM     73  H   UNL A   1      39.014  23.918  29.068  1.00  0.00     0.063 H 
ATOM     74  C   UNL A   1      40.636  26.337  26.578  1.00  0.00    -0.053 A 
ATOM     75  H   UNL A   1      40.210  24.855  25.142  1.00  0.00     0.063 H 
ATOM     76  C   UNL A   1      40.478  26.719  27.918  1.00  0.00    -0.014 A 
ATOM     77  H   UNL A   1      39.671  26.141  29.789  1.00  0.00     0.063 H 
ATOM     78  H   UNL A   1      41.101  26.974  25.913  1.00  0.00     0.063 H 
BRANCH  76  79
ATOM     79  C   UNL A   1      41.003  28.029  28.375  1.00  0.00     0.031 A 
ATOM     80  C   UNL A   1      42.482  28.280  28.430  1.00  0.00     0.074 A 
ATOM     81  C   UNL A   1      40.141  28.971  28.802  1.00  0.00     0.049 A 
ATOM     82  N   UNL A   1      43.126  29.341  28.846  1.00  0.00    -0.248 NA
ATOM     83  C   UNL A   1      43.353  27.183  27.985  1.00  0.00    -0.034 C 
ATOM     84  C   UNL A   1      38.685  28.821  28.851  1.00  0.00    -0.036 A 
ATOM     85  N   UNL A   1      40.362  30.235  29.290  1.00  0.00    -0.354 N 
ATOM     86  C   UNL A   1      44.474  29.038  28.714  1.00  0.00     0.074 A 
ATOM     87  C   UNL A   1      44.556  27.671  28.247  1.00  0.00    -0.034 C 
ATOM     88  H   UNL A   1      43.095  26.271  27.576  1.00  0.00     0.065 H 
ATOM     89  C   UNL A   1      38.144  29.954  29.322  1.00  0.00    -0.036 A 
ATOM     90  H   UNL A   1      38.160  27.979  28.567  1.00  0.00     0.065 H 
ATOM     91  C   UNL A   1      39.212  30.893  29.649  1.00  0.00     0.049 A 
ATOM     92  H   UNL A   1      41.260  30.631  29.373  1.00  0.00     0.167 HD
ATOM     93  C   UNL A   1      45.546  29.836  28.938  1.00  0.00     0.037 A 
ATOM     94  H   UNL A   1      45.436  27.145  28.131  1.00  0.00     0.065 H 
ATOM     95  H   UNL A   1      37.133  30.134  29.436  1.00  0.00     0.065 H 
ATOM     96  C   UNL A   1      39.039  32.112  30.195  1.00  0.00     0.037 A 
ATOM     97  C   UNL A   1      45.455  31.195  29.407  1.00  0.00     0.049 A 
ATOM     98  C   UNL A   1      40.242  32.972  30.462  1.00  0.00     0.074 A 
ATOM     99  C   UNL A   1      46.474  32.108  29.614  1.00  0.00    -0.036 A 
ATOM    100  N   UNL A   1      44.273  31.833  29.757  1.00  0.00    -0.354 N 
ATOM    101  N   UNL A   1      41.509  32.706  30.257  1.00  0.00    -0.248 NA
ATOM    102  C   UNL A   1      39.991  34.303  31.028  1.00  0.00    -0.034 C 
ATOM    103  C   UNL A   1      45.915  33.274  30.149  1.00  0.00    -0.036 A 
ATOM    104  H   UNL A   1      47.474  31.954  29.411  1.00  0.00     0.065 H 
ATOM    105  C   UNL A   1      44.540  33.115  30.214  1.00  0.00     0.049 A 
ATOM    106  H   UNL A   1      43.375  31.434  29.690  1.00  0.00     0.167 HD
ATOM    107  C   UNL A   1      42.207  33.839  30.654  1.00  0.00     0.074 A 
ATOM    108  C   UNL A   1      41.217  34.804  31.090  1.00  0.00    -0.034 C 
ATOM    109  H   UNL A   1      39.096  34.735  31.306  1.00  0.00     0.065 H 
ATOM    110  H   UNL A   1      46.439  34.113  30.444  1.00  0.00     0.065 H 
ATOM    111  C   UNL A   1      43.545  34.059  30.660  1.00  0.00     0.037 A 
ATOM    112  H   UNL A   1      41.439  35.760  31.409  1.00  0.00     0.065 H 
BRANCH  93 113
ATOM    113  C   UNL A   1      46.907  29.249  28.688  1.00  0.00     0.064 A 
ATOM    114  C   UNL A   1      47.687  28.721  29.730  1.00  0.00     0.173 A 
ATOM    115  C   UNL A   1      47.439  29.206  27.391  1.00  0.00     0.173 A 
ATOM    116  F   UNL A   1      47.231  28.744  30.992  1.00  0.00    -0.203 F 
ATOM    117  C   UNL A   1      48.964  28.220  29.491  1.00  0.00     0.198 A 
ATOM    118  C   UNL A   1      48.701  28.669  27.150  1.00  0.00     0.198 A 
ATOM    119  F   UNL A   1      46.737  29.688  26.354  1.00  0.00    -0.203 F 
ATOM    120  F   UNL A   1      49.714  27.788  30.514  1.00  0.00    -0.200 F 
ATOM    121  C   UNL A   1      49.468  28.190  28.201  1.00  0.00     0.200 A 
ATOM    122  F   UNL A   1      49.181  28.625  25.898  1.00  0.00    -0.200 F 
ATOM    123  F   UNL A   1      50.697  27.707  27.971  1.00  0.00    -0.200 F 
ENDBRANCH  93 113
BRANCH  96 124
ATOM    124  C   UNL A   1      37.666  32.580  30.514  1.00  0.00     0.064 A 
ATOM    125  C   UNL A   1      36.882  33.235  29.554  1.00  0.00     0.173 A 
ATOM    126  C   UNL A   1      37.097  32.354  31.777  1.00  0.00     0.173 A 
ATOM    127  F   UNL A   1      37.388  33.489  28.338  1.00  0.00    -0.203 F 
ATOM    128  C   UNL A   1      35.586  33.654  29.847  1.00  0.00     0.198 A 
ATOM    129  C   UNL A   1      35.790  32.747  32.060  1.00  0.00     0.198 A 
ATOM    130  F   UNL A   1      37.802  31.725  32.728  1.00  0.00    -0.203 F 
ATOM    131  F   UNL A   1      34.871  34.308  28.922  1.00  0.00    -0.200 F 
ATOM    132  C   UNL A   1      35.038  33.402  31.096  1.00  0.00     0.200 A 
ATOM    133  F   UNL A   1      35.259  32.484  33.261  1.00  0.00    -0.200 F 
ATOM    134  F   UNL A   1      33.786  33.792  31.373  1.00  0.00    -0.200 F 
ENDBRANCH  96 124
BRANCH 111 135
ATOM    135  C   UNL A   1      44.019  35.400  31.145  1.00  0.00     0.064 A 
ATOM    136  C   UNL A   1      43.981  36.536  30.323  1.00  0.00     0.173 A 
ATOM    137  C   UNL A   1      44.482  35.559  32.460  1.00  0.00     0.173 A 
ATOM    138  F   UNL A   1      43.563  36.436  29.052  1.00  0.00    -0.203 F 
ATOM    139  C   UNL A   1      44.414  37.775  30.791  1.00  0.00     0.198 A 
ATOM    140  C   UNL A   1      44.882  36.805  32.936  1.00  0.00     0.198 A 
ATOM    141  F   UNL A   1      44.533  34.506  33.292  1.00  0.00    -0.203 F 
ATOM    142  F   UNL A   1      44.418  38.834  29.971  1.00  0.00    -0.200 F 
ATOM    143  C   UNL A   1      44.855  37.909  32.098  1.00  0.00     0.200 A 
ATOM    144  F   UNL A   1      45.292  36.936  34.204  1.00  0.00    -0.200 F 
ATOM    145  F   UNL A   1      45.263  39.103  32.550  1.00  0.00    -0.200 F 
ENDBRANCH 111 135
ENDBRANCH  76  79
ENDBRANCH  66  69
ENDBRANCH  62  65
ENDBRANCH  59  62
ENDBRANCH  56  59
ENDBRANCH  53  56
ENDBRANCH  50  53
ENDBRANCH   1  50
TORSDOF 25
ENDMDL
MODEL 9
REMARK VINA RESULT:      -7.6      4.730      9.757
REMARK SMILES CC(C)C[C@H](NC(=O)CNC(=O)[C@@H]([NH3+])C(C)C)C(=O)NCCCCCCNC(=O)c1ccc(-c2c3nc(c(-c4c(F)c(F)c(F)c(F)c4F)c4ccc([nH]4)c(-c4c(F)c(F)c(F)c(F)c4F)c4nc(c(-c5c(F)c(F)c(F)c(F)c5F)c5ccc2[nH]5)C=C4)C=C3)cc1
REMARK SMILES IDX 21 1 20 4 18 5 19 6 5 8 4 10 2 13 1 15 3 19 6 23 7 24 8 26
REMARK SMILES IDX 9 27 10 30 11 31 12 33 13 34 14 36 15 40 16 42 17 46 22 50
REMARK SMILES IDX 23 53 24 56 25 59 26 62 27 65 28 66 29 68 30 69 31 70 92 71
REMARK SMILES IDX 32 72 91 74 33 76 34 79 35 80 85 81 36 82 90 83 84 84 86 85
REMARK SMILES IDX 37 86 89 87 83 89 82 91 38 93 70 96 50 97 69 98 51 99 54 100
REMARK SMILES IDX 68 101 87 102 52 103 53 105 67 107 88 108 55 111 39 113
REMARK SMILES IDX 40 114 48 115 41 116 42 117 46 118 49 119 43 120 44 121
REMARK SMILES IDX 47 122 45 123 71 124 72 125 80 126 73 127 74 128 78 129
REMARK SMILES IDX 81 130 75 131 76 132 79 133 77 134 56 135 57 136 65 137
REMARK SMILES IDX 58 138 59 139 63 140 66 141 60 142 61 143 64 144 62 145
REMARK H PARENT 21 2 21 3 20 7 5 9 4 11 4 12 2 14 1 16 1 17 1 18 3 20 3 21
REMARK H PARENT 3 22 6 25 9 28 9 29 10 32 13 35 14 37 14 38 14 39 15 41 16 43
REMARK H PARENT 16 44 16 45 17 47 17 48 17 49 22 51 22 52 23 54 23 55 24 57
REMARK H PARENT 24 58 25 60 25 61 26 63 26 64 27 67 31 73 92 75 32 77 91 78
REMARK H PARENT 90 88 84 90 86 92 89 94 83 95 51 104 54 106 87 109 52 110
REMARK H PARENT 88 112
REMARK Flexibility Score: inf
ROOT
ATOM      1  C   UNL A   1      34.024  25.924  24.957  1.00  0.00     0.017 C 
ATOM      2  H   UNL A   1      33.028  25.684  25.266  1.00  0.00     0.049 H 
ATOM      3  H   UNL A   1      34.427  26.707  25.564  1.00  0.00     0.049 H 
ENDROOT
BRANCH   1   4
ATOM      4  N   UNL A   1      33.999  26.372  23.583  1.00  0.00    -0.354 N 
ATOM      5  C   UNL A   1      33.712  27.595  23.063  1.00  0.00     0.242 C 
ATOM      6  O   UNL A   1      33.901  27.761  21.853  1.00  0.00    -0.273 OA
ATOM      7  H   UNL A   1      34.226  25.682  22.919  1.00  0.00     0.163 HD
BRANCH   5   8
ATOM      8  C   UNL A   1      33.295  28.772  23.962  1.00  0.00     0.108 C 
ATOM      9  H   UNL A   1      33.953  29.582  23.723  1.00  0.00     0.063 H 
BRANCH   8  10
ATOM     10  C   UNL A   1      33.514  28.481  25.454  1.00  0.00    -0.021 C 
ATOM     11  H   UNL A   1      33.264  27.457  25.635  1.00  0.00     0.030 H 
ATOM     12  H   UNL A   1      34.539  28.705  25.661  1.00  0.00     0.030 H 
BRANCH  10  13
ATOM     13  C   UNL A   1      32.669  29.360  26.410  1.00  0.00    -0.045 C 
ATOM     14  H   UNL A   1      32.058  29.984  25.790  1.00  0.00     0.030 H 
BRANCH  13  15
ATOM     15  C   UNL A   1      31.736  28.549  27.305  1.00  0.00    -0.063 C 
ATOM     16  H   UNL A   1      32.305  27.824  27.850  1.00  0.00     0.023 H 
ATOM     17  H   UNL A   1      31.008  28.047  26.701  1.00  0.00     0.023 H 
ATOM     18  H   UNL A   1      31.240  29.203  27.991  1.00  0.00     0.023 H 
ENDBRANCH  13  15
BRANCH  13  19
ATOM     19  C   UNL A   1      33.594  30.200  27.291  1.00  0.00    -0.063 C 
ATOM     20  H   UNL A   1      33.089  30.449  28.201  1.00  0.00     0.023 H 
ATOM     21  H   UNL A   1      33.861  31.098  26.774  1.00  0.00     0.023 H 
ATOM     22  H   UNL A   1      34.478  29.641  27.515  1.00  0.00     0.023 H 
ENDBRANCH  13  19
ENDBRANCH  10  13
ENDBRANCH   8  10
BRANCH   8  23
ATOM     23  N   UNL A   1      31.944  29.252  23.667  1.00  0.00    -0.343 N 
ATOM     24  C   UNL A   1      30.763  28.574  23.627  1.00  0.00     0.240 C 
ATOM     25  H   UNL A   1      31.878  30.213  23.468  1.00  0.00     0.164 HD
ATOM     26  O   UNL A   1      29.737  29.264  23.588  1.00  0.00    -0.273 OA
BRANCH  24  27
ATOM     27  C   UNL A   1      30.667  27.049  23.769  1.00  0.00     0.097 C 
ATOM     28  H   UNL A   1      31.651  26.671  23.946  1.00  0.00     0.059 H 
ATOM     29  H   UNL A   1      30.227  26.697  22.859  1.00  0.00     0.059 H 
BRANCH  27  30
ATOM     30  N   UNL A   1      29.807  26.572  24.837  1.00  0.00    -0.342 N 
ATOM     31  C   UNL A   1      29.971  25.540  25.709  1.00  0.00     0.278 C 
ATOM     32  H   UNL A   1      28.969  27.077  24.948  1.00  0.00     0.164 HD
ATOM     33  O   UNL A   1      29.095  25.402  26.569  1.00  0.00    -0.268 OA
BRANCH  31  34
ATOM     34  C   UNL A   1      31.208  24.601  25.698  1.00  0.00     0.166 C 
ATOM     35  H   UNL A   1      32.006  25.121  25.210  1.00  0.00     0.107 H 
BRANCH  34  36
ATOM     36  N   UNL A   1      31.697  24.299  27.059  1.00  0.00    -0.347 N 
ATOM     37  H   UNL A   1      31.197  23.491  27.429  1.00  0.00     0.345 HD
ATOM     38  H   UNL A   1      31.538  25.104  27.664  1.00  0.00     0.345 HD
ATOM     39  H   UNL A   1      32.696  24.093  27.024  1.00  0.00     0.345 HD
ENDBRANCH  34  36
BRANCH  34  40
ATOM     40  C   UNL A   1      30.916  23.323  24.882  1.00  0.00     0.015 C 
ATOM     41  H   UNL A   1      29.866  23.134  24.968  1.00  0.00     0.036 H 
BRANCH  40  42
ATOM     42  C   UNL A   1      31.301  23.526  23.410  1.00  0.00    -0.057 C 
ATOM     43  H   UNL A   1      31.600  22.590  22.987  1.00  0.00     0.024 H 
ATOM     44  H   UNL A   1      32.111  24.222  23.346  1.00  0.00     0.024 H 
ATOM     45  H   UNL A   1      30.459  23.908  22.871  1.00  0.00     0.024 H 
ENDBRANCH  40  42
BRANCH  40  46
ATOM     46  C   UNL A   1      31.680  22.109  25.425  1.00  0.00    -0.057 C 
ATOM     47  H   UNL A   1      32.683  22.396  25.663  1.00  0.00     0.024 H 
ATOM     48  H   UNL A   1      31.697  21.336  24.684  1.00  0.00     0.024 H 
ATOM     49  H   UNL A   1      31.195  21.746  26.307  1.00  0.00     0.024 H 
ENDBRANCH  40  46
ENDBRANCH  34  40
ENDBRANCH  31  34
ENDBRANCH  27  30
ENDBRANCH  24  27
ENDBRANCH   8  23
ENDBRANCH   5   8
ENDBRANCH   1   4
BRANCH   1  50
ATOM     50  C   UNL A   1      34.902  24.688  25.112  1.00  0.00    -0.036 C 
ATOM     51  H   UNL A   1      34.491  24.076  25.888  1.00  0.00     0.028 H 
ATOM     52  H   UNL A   1      35.888  25.034  25.344  1.00  0.00     0.028 H 
BRANCH  50  53
ATOM     53  C   UNL A   1      35.012  23.845  23.837  1.00  0.00    -0.052 C 
ATOM     54  H   UNL A   1      35.847  24.204  23.272  1.00  0.00     0.027 H 
ATOM     55  H   UNL A   1      34.079  23.951  23.325  1.00  0.00     0.027 H 
BRANCH  53  56
ATOM     56  C   UNL A   1      35.207  22.343  24.075  1.00  0.00    -0.052 C 
ATOM     57  H   UNL A   1      34.755  21.816  23.262  1.00  0.00     0.027 H 
ATOM     58  H   UNL A   1      34.755  22.129  25.022  1.00  0.00     0.027 H 
BRANCH  56  59
ATOM     59  C   UNL A   1      36.665  21.892  24.183  1.00  0.00    -0.036 C 
ATOM     60  H   UNL A   1      37.247  22.480  23.504  1.00  0.00     0.028 H 
ATOM     61  H   UNL A   1      36.681  20.849  23.950  1.00  0.00     0.028 H 
BRANCH  59  62
ATOM     62  C   UNL A   1      37.265  22.039  25.574  1.00  0.00     0.018 C 
ATOM     63  H   UNL A   1      36.479  21.997  26.297  1.00  0.00     0.049 H 
ATOM     64  H   UNL A   1      37.779  22.977  25.616  1.00  0.00     0.049 H 
BRANCH  62  65
ATOM     65  N   UNL A   1      38.226  20.988  25.864  1.00  0.00    -0.352 N 
ATOM     66  C   UNL A   1      39.521  21.098  26.295  1.00  0.00     0.251 C 
ATOM     67  H   UNL A   1      37.901  20.068  25.730  1.00  0.00     0.163 HD
ATOM     68  O   UNL A   1      40.264  20.120  26.293  1.00  0.00    -0.269 OA
BRANCH  66  69
ATOM     69  C   UNL A   1      40.027  22.410  26.743  1.00  0.00     0.039 A 
ATOM     70  C   UNL A   1      41.015  22.450  27.728  1.00  0.00    -0.049 A 
ATOM     71  C   UNL A   1      39.542  23.594  26.178  1.00  0.00    -0.049 A 
ATOM     72  C   UNL A   1      41.562  23.675  28.104  1.00  0.00    -0.053 A 
ATOM     73  H   UNL A   1      41.339  21.577  28.175  1.00  0.00     0.063 H 
ATOM     74  C   UNL A   1      40.144  24.807  26.495  1.00  0.00    -0.053 A 
ATOM     75  H   UNL A   1      38.740  23.567  25.528  1.00  0.00     0.063 H 
ATOM     76  C   UNL A   1      41.159  24.858  27.461  1.00  0.00    -0.014 A 
ATOM     77  H   UNL A   1      42.267  23.714  28.857  1.00  0.00     0.063 H 
ATOM     78  H   UNL A   1      39.842  25.671  26.019  1.00  0.00     0.063 H 
BRANCH  76  79
ATOM     79  C   UNL A   1      41.810  26.155  27.774  1.00  0.00     0.031 A 
ATOM     80  C   UNL A   1      41.047  27.240  28.475  1.00  0.00     0.074 A 
ATOM     81  C   UNL A   1      43.074  26.372  27.366  1.00  0.00     0.049 A 
ATOM     82  N   UNL A   1      41.431  28.451  28.789  1.00  0.00    -0.248 NA
ATOM     83  C   UNL A   1      39.658  26.934  28.849  1.00  0.00    -0.034 C 
ATOM     84  C   UNL A   1      43.896  25.414  26.624  1.00  0.00    -0.036 A 
ATOM     85  N   UNL A   1      43.884  27.471  27.502  1.00  0.00    -0.354 N 
ATOM     86  C   UNL A   1      40.334  29.050  29.393  1.00  0.00     0.074 A 
ATOM     87  C   UNL A   1      39.249  28.094  29.340  1.00  0.00    -0.034 C 
ATOM     88  H   UNL A   1      39.139  26.047  28.754  1.00  0.00     0.065 H 
ATOM     89  C   UNL A   1      45.099  25.959  26.388  1.00  0.00    -0.036 A 
ATOM     90  H   UNL A   1      43.599  24.470  26.331  1.00  0.00     0.065 H 
ATOM     91  C   UNL A   1      45.119  27.318  26.922  1.00  0.00     0.049 A 
ATOM     92  H   UNL A   1      43.606  28.291  27.971  1.00  0.00     0.167 HD
ATOM     93  C   UNL A   1      40.247  30.276  29.964  1.00  0.00     0.037 A 
ATOM     94  H   UNL A   1      38.283  28.289  29.644  1.00  0.00     0.065 H 
ATOM     95  H   UNL A   1      45.885  25.493  25.907  1.00  0.00     0.065 H 
ATOM     96  C   UNL A   1      46.148  28.181  26.818  1.00  0.00     0.037 A 
ATOM     97  C   UNL A   1      41.332  31.223  30.009  1.00  0.00     0.049 A 
ATOM     98  C   UNL A   1      46.023  29.546  27.434  1.00  0.00     0.074 A 
ATOM     99  C   UNL A   1      41.367  32.468  30.611  1.00  0.00    -0.036 A 
ATOM    100  N   UNL A   1      42.572  31.032  29.416  1.00  0.00    -0.354 N 
ATOM    101  N   UNL A   1      45.008  30.073  28.075  1.00  0.00    -0.248 NA
ATOM    102  C   UNL A   1      47.186  30.433  27.318  1.00  0.00    -0.034 C 
ATOM    103  C   UNL A   1      42.604  33.057  30.326  1.00  0.00    -0.036 A 
ATOM    104  H   UNL A   1      40.610  32.891  31.170  1.00  0.00     0.065 H 
ATOM    105  C   UNL A   1      43.367  32.153  29.604  1.00  0.00     0.049 A 
ATOM    106  H   UNL A   1      42.848  30.220  28.932  1.00  0.00     0.167 HD
ATOM    107  C   UNL A   1      45.413  31.346  28.453  1.00  0.00     0.074 A 
ATOM    108  C   UNL A   1      46.777  31.502  27.988  1.00  0.00    -0.034 C 
ATOM    109  H   UNL A   1      48.087  30.269  26.841  1.00  0.00     0.065 H 
ATOM    110  H   UNL A   1      42.899  34.005  30.608  1.00  0.00     0.065 H 
ATOM    111  C   UNL A   1      44.719  32.300  29.121  1.00  0.00     0.037 A 
ATOM    112  H   UNL A   1      47.356  32.339  28.157  1.00  0.00     0.065 H 
BRANCH  93 113
ATOM    113  C   UNL A   1      38.928  30.660  30.573  1.00  0.00     0.064 A 
ATOM    114  C   UNL A   1      37.869  31.151  29.791  1.00  0.00     0.173 A 
ATOM    115  C   UNL A   1      38.713  30.534  31.953  1.00  0.00     0.173 A 
ATOM    116  F   UNL A   1      38.021  31.302  28.466  1.00  0.00    -0.203 F 
ATOM    117  C   UNL A   1      36.666  31.545  30.373  1.00  0.00     0.198 A 
ATOM    118  C   UNL A   1      37.496  30.892  32.527  1.00  0.00     0.198 A 
ATOM    119  F   UNL A   1      39.685  30.063  32.749  1.00  0.00    -0.203 F 
ATOM    120  F   UNL A   1      35.699  32.075  29.613  1.00  0.00    -0.200 F 
ATOM    121  C   UNL A   1      36.479  31.410  31.739  1.00  0.00     0.200 A 
ATOM    122  F   UNL A   1      37.310  30.746  33.847  1.00  0.00    -0.200 F 
ATOM    123  F   UNL A   1      35.322  31.789  32.299  1.00  0.00    -0.200 F 
ENDBRANCH  93 113
BRANCH  96 124
ATOM    124  C   UNL A   1      47.383  27.763  26.106  1.00  0.00     0.064 A 
ATOM    125  C   UNL A   1      48.505  27.306  26.810  1.00  0.00     0.173 A 
ATOM    126  C   UNL A   1      47.454  27.781  24.705  1.00  0.00     0.173 A 
ATOM    127  F   UNL A   1      48.492  27.286  28.151  1.00  0.00    -0.203 F 
ATOM    128  C   UNL A   1      49.655  26.893  26.140  1.00  0.00     0.198 A 
ATOM    129  C   UNL A   1      48.593  27.340  24.035  1.00  0.00     0.198 A 
ATOM    130  F   UNL A   1      46.404  28.202  23.985  1.00  0.00    -0.203 F 
ATOM    131  F   UNL A   1      50.727  26.493  26.838  1.00  0.00    -0.200 F 
ATOM    132  C   UNL A   1      49.695  26.902  24.753  1.00  0.00     0.200 A 
ATOM    133  F   UNL A   1      48.619  27.332  22.696  1.00  0.00    -0.200 F 
ATOM    134  F   UNL A   1      50.796  26.489  24.110  1.00  0.00    -0.200 F 
ENDBRANCH  96 124
BRANCH 111 135
ATOM    135  C   UNL A   1      45.425  33.597  29.398  1.00  0.00     0.064 A 
ATOM    136  C   UNL A   1      46.188  33.786  30.561  1.00  0.00     0.173 A 
ATOM    137  C   UNL A   1      45.369  34.651  28.474  1.00  0.00     0.173 A 
ATOM    138  F   UNL A   1      46.261  32.817  31.485  1.00  0.00    -0.203 F 
ATOM    139  C   UNL A   1      46.845  34.991  30.799  1.00  0.00     0.198 A 
ATOM    140  C   UNL A   1      46.055  35.841  28.699  1.00  0.00     0.198 A 
ATOM    141  F   UNL A   1      44.659  34.522  27.342  1.00  0.00    -0.203 F 
ATOM    142  F   UNL A   1      47.524  35.166  31.940  1.00  0.00    -0.200 F 
ATOM    143  C   UNL A   1      46.786  36.012  29.864  1.00  0.00     0.200 A 
ATOM    144  F   UNL A   1      46.009  36.821  27.786  1.00  0.00    -0.200 F 
ATOM    145  F   UNL A   1      47.426  37.168  30.090  1.00  0.00    -0.200 F 
ENDBRANCH 111 135
ENDBRANCH  76  79
ENDBRANCH  66  69
ENDBRANCH  62  65
ENDBRANCH  59  62
ENDBRANCH  56  59
ENDBRANCH  53  56
ENDBRANCH  50  53
ENDBRANCH   1  50
TORSDOF 25
ENDMDL
MODEL 10
REMARK VINA RESULT:      -7.6      6.112     13.260
REMARK SMILES CC(C)C[C@H](NC(=O)CNC(=O)[C@@H]([NH3+])C(C)C)C(=O)NCCCCCCNC(=O)c1ccc(-c2c3nc(c(-c4c(F)c(F)c(F)c(F)c4F)c4ccc([nH]4)c(-c4c(F)c(F)c(F)c(F)c4F)c4nc(c(-c5c(F)c(F)c(F)c(F)c5F)c5ccc2[nH]5)C=C4)C=C3)cc1
REMARK SMILES IDX 21 1 20 4 18 5 19 6 5 8 4 10 2 13 1 15 3 19 6 23 7 24 8 26
REMARK SMILES IDX 9 27 10 30 11 31 12 33 13 34 14 36 15 40 16 42 17 46 22 50
REMARK SMILES IDX 23 53 24 56 25 59 26 62 27 65 28 66 29 68 30 69 31 70 92 71
REMARK SMILES IDX 32 72 91 74 33 76 34 79 35 80 85 81 36 82 90 83 84 84 86 85
REMARK SMILES IDX 37 86 89 87 83 89 82 91 38 93 70 96 50 97 69 98 51 99 54 100
REMARK SMILES IDX 68 101 87 102 52 103 53 105 67 107 88 108 55 111 39 113
REMARK SMILES IDX 40 114 48 115 41 116 42 117 46 118 49 119 43 120 44 121
REMARK SMILES IDX 47 122 45 123 71 124 72 125 80 126 73 127 74 128 78 129
REMARK SMILES IDX 81 130 75 131 76 132 79 133 77 134 56 135 57 136 65 137
REMARK SMILES IDX 58 138 59 139 63 140 66 141 60 142 61 143 64 144 62 145
REMARK H PARENT 21 2 21 3 20 7 5 9 4 11 4 12 2 14 1 16 1 17 1 18 3 20 3 21
REMARK H PARENT 3 22 6 25 9 28 9 29 10 32 13 35 14 37 14 38 14 39 15 41 16 43
REMARK H PARENT 16 44 16 45 17 47 17 48 17 49 22 51 22 52 23 54 23 55 24 57
REMARK H PARENT 24 58 25 60 25 61 26 63 26 64 27 67 31 73 92 75 32 77 91 78
REMARK H PARENT 90 88 84 90 86 92 89 94 83 95 51 104 54 106 87 109 52 110
REMARK H PARENT 88 112
REMARK Flexibility Score: inf
ROOT
ATOM      1  C   UNL A   1      46.762  20.478  37.442  1.00  0.00     0.017 C 
ATOM      2  H   UNL A   1      47.009  20.821  38.425  1.00  0.00     0.049 H 
ATOM      3  H   UNL A   1      46.165  21.203  36.931  1.00  0.00     0.049 H 
ENDROOT
BRANCH   1   4
ATOM      4  N   UNL A   1      46.008  19.249  37.545  1.00  0.00    -0.354 N 
ATOM      5  C   UNL A   1      45.830  18.413  38.602  1.00  0.00     0.242 C 
ATOM      6  O   UNL A   1      45.017  17.492  38.472  1.00  0.00    -0.273 OA
ATOM      7  H   UNL A   1      45.551  18.974  36.718  1.00  0.00     0.163 HD
BRANCH   5   8
ATOM      8  C   UNL A   1      46.512  18.674  39.957  1.00  0.00     0.108 C 
ATOM      9  H   UNL A   1      47.153  19.520  39.813  1.00  0.00     0.063 H 
BRANCH   8  10
ATOM     10  C   UNL A   1      47.430  17.521  40.387  1.00  0.00    -0.021 C 
ATOM     11  H   UNL A   1      46.997  17.049  41.243  1.00  0.00     0.030 H 
ATOM     12  H   UNL A   1      47.513  16.866  39.545  1.00  0.00     0.030 H 
BRANCH  10  13
ATOM     13  C   UNL A   1      48.873  17.951  40.752  1.00  0.00    -0.045 C 
ATOM     14  H   UNL A   1      49.480  17.073  40.682  1.00  0.00     0.030 H 
BRANCH  13  15
ATOM     15  C   UNL A   1      49.452  18.987  39.791  1.00  0.00    -0.063 C 
ATOM     16  H   UNL A   1      49.729  18.508  38.875  1.00  0.00     0.023 H 
ATOM     17  H   UNL A   1      50.316  19.439  40.231  1.00  0.00     0.023 H 
ATOM     18  H   UNL A   1      48.718  19.740  39.592  1.00  0.00     0.023 H 
ENDBRANCH  13  15
BRANCH  13  19
ATOM     19  C   UNL A   1      48.898  18.523  42.170  1.00  0.00    -0.063 C 
ATOM     20  H   UNL A   1      49.846  18.984  42.352  1.00  0.00     0.023 H 
ATOM     21  H   UNL A   1      48.744  17.733  42.875  1.00  0.00     0.023 H 
ATOM     22  H   UNL A   1      48.122  19.252  42.275  1.00  0.00     0.023 H 
ENDBRANCH  13  19
ENDBRANCH  10  13
ENDBRANCH   8  10
BRANCH   8  23
ATOM     23  N   UNL A   1      45.561  19.063  40.998  1.00  0.00    -0.343 N 
ATOM     24  C   UNL A   1      44.866  18.295  41.883  1.00  0.00     0.240 C 
ATOM     25  H   UNL A   1      45.397  20.031  41.072  1.00  0.00     0.164 HD
ATOM     26  O   UNL A   1      44.313  18.894  42.813  1.00  0.00    -0.273 OA
BRANCH  24  27
ATOM     27  C   UNL A   1      44.871  16.760  41.843  1.00  0.00     0.097 C 
ATOM     28  H   UNL A   1      44.616  16.404  42.818  1.00  0.00     0.059 H 
ATOM     29  H   UNL A   1      45.853  16.478  41.523  1.00  0.00     0.059 H 
BRANCH  27  30
ATOM     30  N   UNL A   1      43.955  16.156  40.892  1.00  0.00    -0.342 N 
ATOM     31  C   UNL A   1      42.811  15.446  41.097  1.00  0.00     0.278 C 
ATOM     32  H   UNL A   1      44.200  16.278  39.947  1.00  0.00     0.164 HD
ATOM     33  O   UNL A   1      42.188  15.103  40.087  1.00  0.00    -0.268 OA
BRANCH  31  34
ATOM     34  C   UNL A   1      42.251  15.118  42.508  1.00  0.00     0.166 C 
ATOM     35  H   UNL A   1      42.735  15.766  43.208  1.00  0.00     0.107 H 
BRANCH  34  36
ATOM     36  N   UNL A   1      40.807  15.410  42.621  1.00  0.00    -0.347 N 
ATOM     37  H   UNL A   1      40.289  14.536  42.715  1.00  0.00     0.345 HD
ATOM     38  H   UNL A   1      40.493  15.903  41.786  1.00  0.00     0.345 HD
ATOM     39  H   UNL A   1      40.640  15.992  43.442  1.00  0.00     0.345 HD
ENDBRANCH  34  36
BRANCH  34  40
ATOM     40  C   UNL A   1      42.589  13.665  42.905  1.00  0.00     0.015 C 
ATOM     41  H   UNL A   1      43.577  13.468  42.544  1.00  0.00     0.036 H 
BRANCH  40  42
ATOM     42  C   UNL A   1      42.536  13.499  44.430  1.00  0.00    -0.057 C 
ATOM     43  H   UNL A   1      42.689  14.450  44.897  1.00  0.00     0.024 H 
ATOM     44  H   UNL A   1      43.301  12.820  44.742  1.00  0.00     0.024 H 
ATOM     45  H   UNL A   1      41.579  13.112  44.714  1.00  0.00     0.024 H 
ENDBRANCH  40  42
BRANCH  40  46
ATOM     46  C   UNL A   1      41.623  12.658  42.269  1.00  0.00    -0.057 C 
ATOM     47  H   UNL A   1      41.782  12.630  41.211  1.00  0.00     0.024 H 
ATOM     48  H   UNL A   1      40.614  12.954  42.470  1.00  0.00     0.024 H 
ATOM     49  H   UNL A   1      41.797  11.685  42.681  1.00  0.00     0.024 H 
ENDBRANCH  40  46
ENDBRANCH  34  40
ENDBRANCH  31  34
ENDBRANCH  27  30
ENDBRANCH  24  27
ENDBRANCH   8  23
ENDBRANCH   5   8
ENDBRANCH   1   4
BRANCH   1  50
ATOM     50  C   UNL A   1      48.048  20.265  36.653  1.00  0.00    -0.036 C 
ATOM     51  H   UNL A   1      48.005  19.300  36.192  1.00  0.00     0.028 H 
ATOM     52  H   UNL A   1      48.858  20.350  37.347  1.00  0.00     0.028 H 
BRANCH  50  53
ATOM     53  C   UNL A   1      48.282  21.314  35.561  1.00  0.00    -0.052 C 
ATOM     54  H   UNL A   1      47.353  21.809  35.370  1.00  0.00     0.027 H 
ATOM     55  H   UNL A   1      48.660  20.784  34.712  1.00  0.00     0.027 H 
BRANCH  53  56
ATOM     56  C   UNL A   1      49.328  22.379  35.907  1.00  0.00    -0.052 C 
ATOM     57  H   UNL A   1      50.258  21.884  36.093  1.00  0.00     0.027 H 
ATOM     58  H   UNL A   1      48.950  22.904  36.760  1.00  0.00     0.027 H 
BRANCH  56  59
ATOM     59  C   UNL A   1      49.558  23.433  34.821  1.00  0.00    -0.036 C 
ATOM     60  H   UNL A   1      49.377  22.977  33.870  1.00  0.00     0.028 H 
ATOM     61  H   UNL A   1      50.566  23.774  34.934  1.00  0.00     0.028 H 
BRANCH  59  62
ATOM     62  C   UNL A   1      48.665  24.660  34.939  1.00  0.00     0.018 C 
ATOM     63  H   UNL A   1      47.748  24.473  34.422  1.00  0.00     0.049 H 
ATOM     64  H   UNL A   1      49.187  25.492  34.512  1.00  0.00     0.049 H 
BRANCH  62  65
ATOM     65  N   UNL A   1      48.366  24.981  36.325  1.00  0.00    -0.352 N 
ATOM     66  C   UNL A   1      47.396  25.807  36.829  1.00  0.00     0.251 C 
ATOM     67  H   UNL A   1      48.942  24.546  36.995  1.00  0.00     0.163 HD
ATOM     68  O   UNL A   1      47.409  26.133  38.013  1.00  0.00    -0.269 OA
BRANCH  66  69
ATOM     69  C   UNL A   1      46.344  26.322  35.931  1.00  0.00     0.039 A 
ATOM     70  C   UNL A   1      45.159  25.598  35.798  1.00  0.00    -0.049 A 
ATOM     71  C   UNL A   1      46.521  27.525  35.239  1.00  0.00    -0.049 A 
ATOM     72  C   UNL A   1      44.124  26.111  35.019  1.00  0.00    -0.053 A 
ATOM     73  H   UNL A   1      45.049  24.688  36.275  1.00  0.00     0.063 H 
ATOM     74  C   UNL A   1      45.459  28.074  34.528  1.00  0.00    -0.053 A 
ATOM     75  H   UNL A   1      47.436  28.002  35.257  1.00  0.00     0.063 H 
ATOM     76  C   UNL A   1      44.251  27.371  34.411  1.00  0.00    -0.014 A 
ATOM     77  H   UNL A   1      43.258  25.563  34.888  1.00  0.00     0.063 H 
ATOM     78  H   UNL A   1      45.561  28.999  34.085  1.00  0.00     0.063 H 
BRANCH  76  79
ATOM     79  C   UNL A   1      43.118  27.978  33.670  1.00  0.00     0.031 A 
ATOM     80  C   UNL A   1      42.927  27.697  32.208  1.00  0.00     0.074 A 
ATOM     81  C   UNL A   1      42.298  28.835  34.307  1.00  0.00     0.049 A 
ATOM     82  N   UNL A   1      42.027  28.173  31.385  1.00  0.00    -0.248 NA
ATOM     83  C   UNL A   1      43.893  26.783  31.581  1.00  0.00    -0.034 C 
ATOM     84  C   UNL A   1      42.419  29.231  35.711  1.00  0.00    -0.036 A 
ATOM     85  N   UNL A   1      41.210  29.539  33.855  1.00  0.00    -0.354 N 
ATOM     86  C   UNL A   1      42.319  27.618  30.147  1.00  0.00     0.074 A 
ATOM     87  C   UNL A   1      43.519  26.826  30.311  1.00  0.00    -0.034 C 
ATOM     88  H   UNL A   1      44.660  26.247  32.016  1.00  0.00     0.065 H 
ATOM     89  C   UNL A   1      41.434  30.090  36.011  1.00  0.00    -0.036 A 
ATOM     90  H   UNL A   1      43.145  28.900  36.366  1.00  0.00     0.065 H 
ATOM     91  C   UNL A   1      40.639  30.341  34.812  1.00  0.00     0.049 A 
ATOM     92  H   UNL A   1      40.872  29.475  32.933  1.00  0.00     0.167 HD
ATOM     93  C   UNL A   1      41.633  27.737  28.984  1.00  0.00     0.037 A 
ATOM     94  H   UNL A   1      44.019  26.357  29.541  1.00  0.00     0.065 H 
ATOM     95  H   UNL A   1      41.265  30.508  36.940  1.00  0.00     0.065 H 
ATOM     96  C   UNL A   1      39.600  31.193  34.730  1.00  0.00     0.037 A 
ATOM     97  C   UNL A   1      40.441  28.530  28.829  1.00  0.00     0.049 A 
ATOM     98  C   UNL A   1      38.869  31.332  33.425  1.00  0.00     0.074 A 
ATOM     99  C   UNL A   1      39.638  28.674  27.711  1.00  0.00    -0.036 A 
ATOM    100  N   UNL A   1      39.886  29.326  29.822  1.00  0.00    -0.354 N 
ATOM    101  N   UNL A   1      39.104  30.739  32.279  1.00  0.00    -0.248 NA
ATOM    102  C   UNL A   1      37.725  32.251  33.402  1.00  0.00    -0.034 C 
ATOM    103  C   UNL A   1      38.638  29.606  28.008  1.00  0.00    -0.036 A 
ATOM    104  H   UNL A   1      39.759  28.182  26.812  1.00  0.00     0.065 H 
ATOM    105  C   UNL A   1      38.774  29.993  29.331  1.00  0.00     0.049 A 
ATOM    106  H   UNL A   1      40.231  29.404  30.741  1.00  0.00     0.167 HD
ATOM    107  C   UNL A   1      38.130  31.200  31.403  1.00  0.00     0.074 A 
ATOM    108  C   UNL A   1      37.287  32.106  32.159  1.00  0.00    -0.034 C 
ATOM    109  H   UNL A   1      37.357  32.853  34.156  1.00  0.00     0.065 H 
ATOM    110  H   UNL A   1      37.917  29.946  27.351  1.00  0.00     0.065 H 
ATOM    111  C   UNL A   1      37.953  30.904  30.092  1.00  0.00     0.037 A 
ATOM    112  H   UNL A   1      36.453  32.577  31.777  1.00  0.00     0.065 H 
BRANCH  93 113
ATOM    113  C   UNL A   1      42.169  26.998  27.789  1.00  0.00     0.064 A 
ATOM    114  C   UNL A   1      43.082  27.592  26.903  1.00  0.00     0.173 A 
ATOM    115  C   UNL A   1      41.772  25.679  27.527  1.00  0.00     0.173 A 
ATOM    116  F   UNL A   1      43.490  28.856  27.100  1.00  0.00    -0.203 F 
ATOM    117  C   UNL A   1      43.538  26.913  25.776  1.00  0.00     0.198 A 
ATOM    118  C   UNL A   1      42.259  24.988  26.420  1.00  0.00     0.198 A 
ATOM    119  F   UNL A   1      40.909  25.056  28.344  1.00  0.00    -0.203 F 
ATOM    120  F   UNL A   1      44.352  27.528  24.909  1.00  0.00    -0.200 F 
ATOM    121  C   UNL A   1      43.130  25.610  25.538  1.00  0.00     0.200 A 
ATOM    122  F   UNL A   1      41.876  23.721  26.201  1.00  0.00    -0.200 F 
ATOM    123  F   UNL A   1      43.568  24.956  24.454  1.00  0.00    -0.200 F 
ENDBRANCH  93 113
BRANCH  96 124
ATOM    124  C   UNL A   1      39.196  31.970  35.930  1.00  0.00     0.064 A 
ATOM    125  C   UNL A   1      39.690  33.261  36.158  1.00  0.00     0.173 A 
ATOM    126  C   UNL A   1      38.281  31.448  36.858  1.00  0.00     0.173 A 
ATOM    127  F   UNL A   1      40.580  33.796  35.308  1.00  0.00    -0.203 F 
ATOM    128  C   UNL A   1      39.294  33.998  37.272  1.00  0.00     0.198 A 
ATOM    129  C   UNL A   1      37.862  32.198  37.956  1.00  0.00     0.198 A 
ATOM    130  F   UNL A   1      37.772  30.221  36.683  1.00  0.00    -0.203 F 
ATOM    131  F   UNL A   1      39.808  35.217  37.484  1.00  0.00    -0.200 F 
ATOM    132  C   UNL A   1      38.373  33.470  38.165  1.00  0.00     0.200 A 
ATOM    133  F   UNL A   1      36.958  31.690  38.804  1.00  0.00    -0.200 F 
ATOM    134  F   UNL A   1      37.980  34.185  39.228  1.00  0.00    -0.200 F 
ENDBRANCH  96 124
BRANCH 111 135
ATOM    135  C   UNL A   1      36.797  31.558  29.390  1.00  0.00     0.064 A 
ATOM    136  C   UNL A   1      36.803  32.926  29.078  1.00  0.00     0.173 A 
ATOM    137  C   UNL A   1      35.685  30.801  28.990  1.00  0.00     0.173 A 
ATOM    138  F   UNL A   1      37.834  33.699  29.452  1.00  0.00    -0.203 F 
ATOM    139  C   UNL A   1      35.728  33.516  28.417  1.00  0.00     0.198 A 
ATOM    140  C   UNL A   1      34.627  31.387  28.300  1.00  0.00     0.198 A 
ATOM    141  F   UNL A   1      35.629  29.487  29.257  1.00  0.00    -0.203 F 
ATOM    142  F   UNL A   1      35.734  34.834  28.178  1.00  0.00    -0.200 F 
ATOM    143  C   UNL A   1      34.647  32.744  28.021  1.00  0.00     0.200 A 
ATOM    144  F   UNL A   1      33.590  30.636  27.904  1.00  0.00    -0.200 F 
ATOM    145  F   UNL A   1      33.617  33.312  27.378  1.00  0.00    -0.200 F 
ENDBRANCH 111 135
ENDBRANCH  76  79
ENDBRANCH  66  69
ENDBRANCH  62  65
ENDBRANCH  59  62
ENDBRANCH  56  59
ENDBRANCH  53  56
ENDBRANCH  50  53
ENDBRANCH   1  50
TORSDOF 25
ENDMDL
