MODEL 1
REMARK VINA RESULT:     -12.8      0.000      0.000
REMARK SMILES CC1(C)Cc2c(-c3ccccc3)c(-c3ccc(Cl)cc3)c(CC(=O)NCCCCCCNC(=O)c3ccc(-c4c5nc(c(-c6c(F)c(F)c(F)c(F)c6F)c6ccc([nH]6)c(-c6c(F)c(F)c(F)c(F)c6F)c6nc(c(-c7c(F)c(F)c(F)c(F)c7F)c7ccc4[nH]7)C=C6)C=C5)cc3)n2C1
REMARK SMILES IDX 28 1 27 4 26 7 25 10 23 11 24 12 22 14 21 17 2 18 4 19 99 20
REMARK SMILES IDX 5 21 98 24 6 27 13 28 1 29 3 33 7 37 8 38 12 39 9 40 11 42
REMARK SMILES IDX 10 44 14 48 15 49 20 50 16 51 19 53 17 55 18 58 29 59 30 62
REMARK SMILES IDX 31 65 32 68 33 69 34 71 35 72 36 73 97 74 37 75 96 77 38 79
REMARK SMILES IDX 39 82 40 83 90 84 41 85 95 86 89 87 91 88 42 89 94 90 88 92
REMARK SMILES IDX 87 94 43 96 75 99 55 100 74 101 56 102 59 103 73 104 92 105
REMARK SMILES IDX 57 106 58 108 72 110 93 111 60 114 44 116 45 117 53 118
REMARK SMILES IDX 46 119 47 120 51 121 54 122 48 123 49 124 52 125 50 126
REMARK SMILES IDX 76 127 77 128 85 129 78 130 79 131 83 132 86 133 80 134
REMARK SMILES IDX 81 135 84 136 82 137 61 138 62 139 70 140 63 141 64 142
REMARK SMILES IDX 68 143 71 144 65 145 66 146 69 147 67 148
REMARK H PARENT 28 2 28 3 27 5 27 6 26 8 26 9 25 13 22 15 22 16 4 22 4 23
REMARK H PARENT 99 25 99 26 1 30 1 31 1 32 3 34 3 35 3 36 8 41 12 43 9 45
REMARK H PARENT 11 46 10 47 15 52 20 54 16 56 19 57 29 60 29 61 30 63 30 64
REMARK H PARENT 31 66 31 67 32 70 36 76 97 78 37 80 96 81 95 91 89 93 91 95
REMARK H PARENT 94 97 88 98 56 107 59 109 92 112 57 113 93 115
REMARK Flexibility Score: inf
ROOT
ATOM      1  C   UNL A   1      39.676  21.897  26.133  1.00  0.00    -0.052 C 
ATOM      2  H   UNL A   1      39.519  22.759  26.747  1.00  0.00     0.027 H 
ATOM      3  H   UNL A   1      40.234  22.096  25.243  1.00  0.00     0.027 H 
ENDROOT
BRANCH   1   4
ATOM      4  C   UNL A   1      38.306  21.398  25.666  1.00  0.00    -0.036 C 
ATOM      5  H   UNL A   1      38.439  20.872  24.743  1.00  0.00     0.028 H 
ATOM      6  H   UNL A   1      37.926  20.778  26.450  1.00  0.00     0.028 H 
BRANCH   4   7
ATOM      7  C   UNL A   1      37.271  22.498  25.443  1.00  0.00     0.017 C 
ATOM      8  H   UNL A   1      37.740  23.447  25.602  1.00  0.00     0.049 H 
ATOM      9  H   UNL A   1      36.906  22.400  24.441  1.00  0.00     0.049 H 
BRANCH   7  10
ATOM     10  N   UNL A   1      36.140  22.388  26.332  1.00  0.00    -0.356 N 
ATOM     11  C   UNL A   1      35.104  23.260  26.520  1.00  0.00     0.225 C 
ATOM     12  O   UNL A   1      34.200  22.911  27.284  1.00  0.00    -0.275 OA
ATOM     13  H   UNL A   1      36.109  21.570  26.879  1.00  0.00     0.163 HD
BRANCH  11  14
ATOM     14  C   UNL A   1      35.028  24.570  25.749  1.00  0.00     0.068 C 
ATOM     15  H   UNL A   1      35.185  25.374  26.438  1.00  0.00     0.043 H 
ATOM     16  H   UNL A   1      35.777  24.521  24.987  1.00  0.00     0.043 H 
BRANCH  14  17
ATOM     17  C   UNL A   1      33.718  24.800  25.050  1.00  0.00     0.036 A 
ATOM     18  C   UNL A   1      32.507  22.252  22.652  1.00  0.00    -0.012 C 
ATOM     19  C   UNL A   1      31.306  23.215  22.925  1.00  0.00    -0.005 C 
ATOM     20  C   UNL A   1      33.462  22.484  23.861  1.00  0.00     0.028 C 
ATOM     21  C   UNL A   1      31.927  24.252  23.781  1.00  0.00     0.027 A 
ATOM     22  H   UNL A   1      30.513  22.711  23.438  1.00  0.00     0.034 H 
ATOM     23  H   UNL A   1      30.856  23.603  22.035  1.00  0.00     0.034 H 
ATOM     24  N   UNL A   1      33.122  23.837  24.288  1.00  0.00    -0.346 N 
ATOM     25  H   UNL A   1      34.486  22.421  23.560  1.00  0.00     0.050 H 
ATOM     26  H   UNL A   1      33.347  21.754  24.636  1.00  0.00     0.050 H 
ATOM     27  C   UNL A   1      31.697  25.527  24.221  1.00  0.00     0.011 A 
ATOM     28  C   UNL A   1      32.826  25.878  25.048  1.00  0.00     0.011 A 
BRANCH  18  29
ATOM     29  C   UNL A   1      32.058  20.792  22.572  1.00  0.00    -0.058 C 
ATOM     30  H   UNL A   1      32.184  20.327  23.527  1.00  0.00     0.024 H 
ATOM     31  H   UNL A   1      32.649  20.278  21.843  1.00  0.00     0.024 H 
ATOM     32  H   UNL A   1      31.027  20.752  22.289  1.00  0.00     0.024 H 
ENDBRANCH  18  29
BRANCH  18  33
ATOM     33  C   UNL A   1      33.188  22.636  21.325  1.00  0.00    -0.058 C 
ATOM     34  H   UNL A   1      33.288  23.700  21.270  1.00  0.00     0.024 H 
ATOM     35  H   UNL A   1      32.594  22.291  20.506  1.00  0.00     0.024 H 
ATOM     36  H   UNL A   1      34.157  22.184  21.278  1.00  0.00     0.024 H 
ENDBRANCH  18  33
BRANCH  27  37
ATOM     37  C   UNL A   1      30.538  26.322  23.869  1.00  0.00    -0.016 A 
ATOM     38  C   UNL A   1      29.261  25.958  24.307  1.00  0.00    -0.054 A 
ATOM     39  C   UNL A   1      30.709  27.505  23.140  1.00  0.00    -0.054 A 
ATOM     40  C   UNL A   1      28.169  26.779  24.026  1.00  0.00    -0.062 A 
ATOM     41  H   UNL A   1      29.127  25.082  24.837  1.00  0.00     0.063 H 
ATOM     42  C   UNL A   1      29.617  28.325  22.861  1.00  0.00    -0.062 A 
ATOM     43  H   UNL A   1      31.649  27.772  22.807  1.00  0.00     0.063 H 
ATOM     44  C   UNL A   1      28.349  27.962  23.309  1.00  0.00    -0.062 A 
ATOM     45  H   UNL A   1      27.226  26.510  24.349  1.00  0.00     0.062 H 
ATOM     46  H   UNL A   1      29.747  29.197  22.325  1.00  0.00     0.062 H 
ATOM     47  H   UNL A   1      27.539  28.572  23.109  1.00  0.00     0.062 H 
ENDBRANCH  27  37
BRANCH  28  48
ATOM     48  C   UNL A   1      32.987  27.131  25.776  1.00  0.00    -0.016 A 
ATOM     49  C   UNL A   1      32.030  27.499  26.733  1.00  0.00    -0.053 A 
ATOM     50  C   UNL A   1      33.980  28.051  25.422  1.00  0.00    -0.053 A 
ATOM     51  C   UNL A   1      32.062  28.767  27.320  1.00  0.00    -0.043 A 
ATOM     52  H   UNL A   1      31.296  26.827  27.006  1.00  0.00     0.063 H 
ATOM     53  C   UNL A   1      34.027  29.311  26.023  1.00  0.00    -0.043 A 
ATOM     54  H   UNL A   1      34.682  27.797  24.710  1.00  0.00     0.063 H 
ATOM     55  C   UNL A   1      33.061  29.668  26.962  1.00  0.00     0.041 A 
ATOM     56  H   UNL A   1      31.349  29.035  28.016  1.00  0.00     0.064 H 
ATOM     57  H   UNL A   1      34.776  29.976  25.773  1.00  0.00     0.064 H 
ATOM     58  Cl  UNL A   1      33.085  31.243  27.654  1.00  0.00    -0.084 Cl
ENDBRANCH  28  48
ENDBRANCH  14  17
ENDBRANCH  11  14
ENDBRANCH   7  10
ENDBRANCH   4   7
ENDBRANCH   1   4
BRANCH   1  59
ATOM     59  C   UNL A   1      40.510  20.889  26.938  1.00  0.00    -0.052 C 
ATOM     60  H   UNL A   1      39.867  20.443  27.666  1.00  0.00     0.027 H 
ATOM     61  H   UNL A   1      41.320  21.455  27.348  1.00  0.00     0.027 H 
BRANCH  59  62
ATOM     62  C   UNL A   1      41.168  19.754  26.138  1.00  0.00    -0.036 C 
ATOM     63  H   UNL A   1      41.274  20.073  25.122  1.00  0.00     0.028 H 
ATOM     64  H   UNL A   1      40.535  18.897  26.235  1.00  0.00     0.028 H 
BRANCH  62  65
ATOM     65  C   UNL A   1      42.539  19.350  26.658  1.00  0.00     0.018 C 
ATOM     66  H   UNL A   1      42.454  18.404  27.151  1.00  0.00     0.049 H 
ATOM     67  H   UNL A   1      42.872  20.112  27.331  1.00  0.00     0.049 H 
BRANCH  65  68
ATOM     68  N   UNL A   1      43.523  19.235  25.590  1.00  0.00    -0.352 N 
ATOM     69  C   UNL A   1      44.091  20.242  24.836  1.00  0.00     0.251 C 
ATOM     70  H   UNL A   1      43.822  18.321  25.377  1.00  0.00     0.163 HD
ATOM     71  O   UNL A   1      44.624  20.001  23.766  1.00  0.00    -0.269 OA
BRANCH  69  72
ATOM     72  C   UNL A   1      44.026  21.626  25.339  1.00  0.00     0.039 A 
ATOM     73  C   UNL A   1      43.100  22.527  24.807  1.00  0.00    -0.049 A 
ATOM     74  C   UNL A   1      44.894  22.018  26.358  1.00  0.00    -0.049 A 
ATOM     75  C   UNL A   1      43.002  23.798  25.365  1.00  0.00    -0.053 A 
ATOM     76  H   UNL A   1      42.499  22.252  24.014  1.00  0.00     0.063 H 
ATOM     77  C   UNL A   1      44.713  23.226  26.989  1.00  0.00    -0.053 A 
ATOM     78  H   UNL A   1      45.673  21.400  26.638  1.00  0.00     0.063 H 
ATOM     79  C   UNL A   1      43.795  24.136  26.474  1.00  0.00    -0.014 A 
ATOM     80  H   UNL A   1      42.348  24.489  24.964  1.00  0.00     0.063 H 
ATOM     81  H   UNL A   1      45.253  23.457  27.837  1.00  0.00     0.063 H 
BRANCH  79  82
ATOM     82  C   UNL A   1      43.583  25.409  27.157  1.00  0.00     0.031 A 
ATOM     83  C   UNL A   1      44.563  26.479  26.818  1.00  0.00     0.074 A 
ATOM     84  C   UNL A   1      42.492  25.692  27.899  1.00  0.00     0.049 A 
ATOM     85  N   UNL A   1      45.418  27.048  27.603  1.00  0.00    -0.248 NA
ATOM     86  C   UNL A   1      44.676  26.900  25.412  1.00  0.00    -0.034 C 
ATOM     87  C   UNL A   1      41.277  24.893  28.089  1.00  0.00    -0.036 A 
ATOM     88  N   UNL A   1      42.210  26.834  28.586  1.00  0.00    -0.354 N 
ATOM     89  C   UNL A   1      46.075  28.013  26.840  1.00  0.00     0.074 A 
ATOM     90  C   UNL A   1      45.677  27.781  25.476  1.00  0.00    -0.034 C 
ATOM     91  H   UNL A   1      44.126  26.594  24.594  1.00  0.00     0.065 H 
ATOM     92  C   UNL A   1      40.314  25.659  28.646  1.00  0.00    -0.036 A 
ATOM     93  H   UNL A   1      41.174  23.897  27.835  1.00  0.00     0.065 H 
ATOM     94  C   UNL A   1      40.894  26.937  29.014  1.00  0.00     0.049 A 
ATOM     95  H   UNL A   1      42.884  27.528  28.764  1.00  0.00     0.167 HD
ATOM     96  C   UNL A   1      46.736  29.047  27.434  1.00  0.00     0.037 A 
ATOM     97  H   UNL A   1      46.108  28.236  24.655  1.00  0.00     0.065 H 
ATOM     98  H   UNL A   1      39.330  25.383  28.785  1.00  0.00     0.065 H 
ATOM     99  C   UNL A   1      40.319  28.006  29.614  1.00  0.00     0.037 A 
ATOM    100  C   UNL A   1      46.999  28.758  28.821  1.00  0.00     0.049 A 
ATOM    101  C   UNL A   1      41.410  28.838  30.178  1.00  0.00     0.074 A 
ATOM    102  C   UNL A   1      47.713  27.785  29.494  1.00  0.00    -0.036 A 
ATOM    103  N   UNL A   1      46.186  29.335  29.766  1.00  0.00    -0.354 N 
ATOM    104  N   UNL A   1      42.159  28.474  31.179  1.00  0.00    -0.248 NA
ATOM    105  C   UNL A   1      41.950  29.900  29.344  1.00  0.00    -0.034 C 
ATOM    106  C   UNL A   1      46.936  27.495  30.656  1.00  0.00    -0.036 A 
ATOM    107  H   UNL A   1      48.612  27.360  29.217  1.00  0.00     0.065 H 
ATOM    108  C   UNL A   1      45.833  28.352  30.653  1.00  0.00     0.049 A 
ATOM    109  H   UNL A   1      45.908  30.278  29.799  1.00  0.00     0.167 HD
ATOM    110  C   UNL A   1      43.425  28.931  30.851  1.00  0.00     0.074 A 
ATOM    111  C   UNL A   1      43.215  29.890  29.769  1.00  0.00    -0.034 C 
ATOM    112  H   UNL A   1      41.489  30.490  28.633  1.00  0.00     0.065 H 
ATOM    113  H   UNL A   1      47.149  26.782  31.369  1.00  0.00     0.065 H 
ATOM    114  C   UNL A   1      44.542  28.281  31.293  1.00  0.00     0.037 A 
ATOM    115  H   UNL A   1      43.959  30.490  29.378  1.00  0.00     0.065 H 
BRANCH  96 116
ATOM    116  C   UNL A   1      46.825  30.455  26.884  1.00  0.00     0.064 A 
ATOM    117  C   UNL A   1      48.064  31.130  26.936  1.00  0.00     0.173 A 
ATOM    118  C   UNL A   1      45.707  31.271  26.610  1.00  0.00     0.173 A 
ATOM    119  F   UNL A   1      49.201  30.460  27.182  1.00  0.00    -0.203 F 
ATOM    120  C   UNL A   1      48.157  32.522  26.842  1.00  0.00     0.198 A 
ATOM    121  C   UNL A   1      45.810  32.655  26.465  1.00  0.00     0.198 A 
ATOM    122  F   UNL A   1      44.459  30.792  26.579  1.00  0.00    -0.203 F 
ATOM    123  F   UNL A   1      49.336  33.124  27.045  1.00  0.00    -0.200 F 
ATOM    124  C   UNL A   1      47.027  33.284  26.621  1.00  0.00     0.200 A 
ATOM    125  F   UNL A   1      44.701  33.379  26.258  1.00  0.00    -0.200 F 
ATOM    126  F   UNL A   1      47.099  34.621  26.603  1.00  0.00    -0.200 F 
ENDBRANCH  96 116
BRANCH  99 127
ATOM    127  C   UNL A   1      38.926  28.496  29.512  1.00  0.00     0.064 A 
ATOM    128  C   UNL A   1      38.131  28.658  30.657  1.00  0.00     0.173 A 
ATOM    129  C   UNL A   1      38.454  29.092  28.327  1.00  0.00     0.173 A 
ATOM    130  F   UNL A   1      38.532  28.155  31.834  1.00  0.00    -0.203 F 
ATOM    131  C   UNL A   1      36.949  29.404  30.630  1.00  0.00     0.198 A 
ATOM    132  C   UNL A   1      37.272  29.836  28.302  1.00  0.00     0.198 A 
ATOM    133  F   UNL A   1      39.178  29.050  27.200  1.00  0.00    -0.203 F 
ATOM    134  F   UNL A   1      36.252  29.597  31.758  1.00  0.00    -0.200 F 
ATOM    135  C   UNL A   1      36.528  30.004  29.455  1.00  0.00     0.200 A 
ATOM    136  F   UNL A   1      36.895  30.449  27.173  1.00  0.00    -0.200 F 
ATOM    137  F   UNL A   1      35.435  30.778  29.441  1.00  0.00    -0.200 F 
ENDBRANCH  99 127
BRANCH 114 138
ATOM    138  C   UNL A   1      44.371  27.242  32.366  1.00  0.00     0.064 A 
ATOM    139  C   UNL A   1      44.180  25.871  32.118  1.00  0.00     0.173 A 
ATOM    140  C   UNL A   1      44.549  27.636  33.699  1.00  0.00     0.173 A 
ATOM    141  F   UNL A   1      44.102  25.398  30.868  1.00  0.00    -0.203 F 
ATOM    142  C   UNL A   1      44.123  24.949  33.161  1.00  0.00     0.198 A 
ATOM    143  C   UNL A   1      44.532  26.707  34.736  1.00  0.00     0.198 A 
ATOM    144  F   UNL A   1      44.789  28.923  33.994  1.00  0.00    -0.203 F 
ATOM    145  F   UNL A   1      43.924  23.648  32.899  1.00  0.00    -0.200 F 
ATOM    146  C   UNL A   1      44.307  25.367  34.469  1.00  0.00     0.200 A 
ATOM    147  F   UNL A   1      44.759  27.110  35.993  1.00  0.00    -0.200 F 
ATOM    148  F   UNL A   1      44.294  24.474  35.470  1.00  0.00    -0.200 F 
ENDBRANCH 114 138
ENDBRANCH  79  82
ENDBRANCH  69  72
ENDBRANCH  65  68
ENDBRANCH  62  65
ENDBRANCH  59  62
ENDBRANCH   1  59
TORSDOF 18
ENDMDL
MODEL 2
REMARK VINA RESULT:     -12.3      2.410      3.239
REMARK SMILES CC1(C)Cc2c(-c3ccccc3)c(-c3ccc(Cl)cc3)c(CC(=O)NCCCCCCNC(=O)c3ccc(-c4c5nc(c(-c6c(F)c(F)c(F)c(F)c6F)c6ccc([nH]6)c(-c6c(F)c(F)c(F)c(F)c6F)c6nc(c(-c7c(F)c(F)c(F)c(F)c7F)c7ccc4[nH]7)C=C6)C=C5)cc3)n2C1
REMARK SMILES IDX 28 1 27 4 26 7 25 10 23 11 24 12 22 14 21 17 2 18 4 19 99 20
REMARK SMILES IDX 5 21 98 24 6 27 13 28 1 29 3 33 7 37 8 38 12 39 9 40 11 42
REMARK SMILES IDX 10 44 14 48 15 49 20 50 16 51 19 53 17 55 18 58 29 59 30 62
REMARK SMILES IDX 31 65 32 68 33 69 34 71 35 72 36 73 97 74 37 75 96 77 38 79
REMARK SMILES IDX 39 82 40 83 90 84 41 85 95 86 89 87 91 88 42 89 94 90 88 92
REMARK SMILES IDX 87 94 43 96 75 99 55 100 74 101 56 102 59 103 73 104 92 105
REMARK SMILES IDX 57 106 58 108 72 110 93 111 60 114 44 116 45 117 53 118
REMARK SMILES IDX 46 119 47 120 51 121 54 122 48 123 49 124 52 125 50 126
REMARK SMILES IDX 76 127 77 128 85 129 78 130 79 131 83 132 86 133 80 134
REMARK SMILES IDX 81 135 84 136 82 137 61 138 62 139 70 140 63 141 64 142
REMARK SMILES IDX 68 143 71 144 65 145 66 146 69 147 67 148
REMARK H PARENT 28 2 28 3 27 5 27 6 26 8 26 9 25 13 22 15 22 16 4 22 4 23
REMARK H PARENT 99 25 99 26 1 30 1 31 1 32 3 34 3 35 3 36 8 41 12 43 9 45
REMARK H PARENT 11 46 10 47 15 52 20 54 16 56 19 57 29 60 29 61 30 63 30 64
REMARK H PARENT 31 66 31 67 32 70 36 76 97 78 37 80 96 81 95 91 89 93 91 95
REMARK H PARENT 94 97 88 98 56 107 59 109 92 112 57 113 93 115
REMARK Flexibility Score: inf
ROOT
ATOM      1  C   UNL A   1      39.279  23.099  26.916  1.00  0.00    -0.052 C 
ATOM      2  H   UNL A   1      38.923  22.991  27.919  1.00  0.00     0.027 H 
ATOM      3  H   UNL A   1      40.141  23.726  26.828  1.00  0.00     0.027 H 
ENDROOT
BRANCH   1   4
ATOM      4  C   UNL A   1      38.180  23.780  26.097  1.00  0.00    -0.036 C 
ATOM      5  H   UNL A   1      37.671  24.474  26.733  1.00  0.00     0.028 H 
ATOM      6  H   UNL A   1      38.667  24.251  25.268  1.00  0.00     0.028 H 
BRANCH   4   7
ATOM      7  C   UNL A   1      37.144  22.826  25.506  1.00  0.00     0.017 C 
ATOM      8  H   UNL A   1      36.817  23.216  24.564  1.00  0.00     0.049 H 
ATOM      9  H   UNL A   1      37.611  21.869  25.398  1.00  0.00     0.049 H 
BRANCH   7  10
ATOM     10  N   UNL A   1      35.993  22.656  26.360  1.00  0.00    -0.356 N 
ATOM     11  C   UNL A   1      34.935  23.498  26.556  1.00  0.00     0.225 C 
ATOM     12  O   UNL A   1      34.019  23.099  27.281  1.00  0.00    -0.275 OA
ATOM     13  H   UNL A   1      35.967  21.816  26.873  1.00  0.00     0.163 HD
BRANCH  11  14
ATOM     14  C   UNL A   1      34.850  24.837  25.837  1.00  0.00     0.068 C 
ATOM     15  H   UNL A   1      34.950  25.615  26.566  1.00  0.00     0.043 H 
ATOM     16  H   UNL A   1      35.634  24.845  25.110  1.00  0.00     0.043 H 
BRANCH  14  17
ATOM     17  C   UNL A   1      33.566  25.056  25.089  1.00  0.00     0.036 A 
ATOM     18  C   UNL A   1      32.444  22.477  22.682  1.00  0.00    -0.012 C 
ATOM     19  C   UNL A   1      31.233  23.441  22.900  1.00  0.00    -0.005 C 
ATOM     20  C   UNL A   1      33.354  22.725  23.921  1.00  0.00     0.028 C 
ATOM     21  C   UNL A   1      31.822  24.491  23.764  1.00  0.00     0.027 A 
ATOM     22  H   UNL A   1      30.423  22.943  23.391  1.00  0.00     0.034 H 
ATOM     23  H   UNL A   1      30.814  23.818  21.989  1.00  0.00     0.034 H 
ATOM     24  N   UNL A   1      32.998  24.083  24.319  1.00  0.00    -0.346 N 
ATOM     25  H   UNL A   1      34.389  22.660  23.658  1.00  0.00     0.050 H 
ATOM     26  H   UNL A   1      33.213  22.005  24.701  1.00  0.00     0.050 H 
ATOM     27  C   UNL A   1      31.575  25.770  24.179  1.00  0.00     0.011 A 
ATOM     28  C   UNL A   1      32.673  26.133  25.042  1.00  0.00     0.011 A 
BRANCH  18  29
ATOM     29  C   UNL A   1      32.000  21.016  22.604  1.00  0.00    -0.058 C 
ATOM     30  H   UNL A   1      31.062  20.901  23.106  1.00  0.00     0.024 H 
ATOM     31  H   UNL A   1      32.734  20.394  23.072  1.00  0.00     0.024 H 
ATOM     32  H   UNL A   1      31.892  20.731  21.578  1.00  0.00     0.024 H 
ENDBRANCH  18  29
BRANCH  18  33
ATOM     33  C   UNL A   1      33.171  22.845  21.375  1.00  0.00    -0.058 C 
ATOM     34  H   UNL A   1      32.606  22.490  20.540  1.00  0.00     0.024 H 
ATOM     35  H   UNL A   1      34.142  22.396  21.368  1.00  0.00     0.024 H 
ATOM     36  H   UNL A   1      33.271  23.909  21.311  1.00  0.00     0.024 H 
ENDBRANCH  18  33
BRANCH  27  37
ATOM     37  C   UNL A   1      30.428  26.559  23.776  1.00  0.00    -0.016 A 
ATOM     38  C   UNL A   1      29.137  26.199  24.174  1.00  0.00    -0.054 A 
ATOM     39  C   UNL A   1      30.624  27.733  23.039  1.00  0.00    -0.054 A 
ATOM     40  C   UNL A   1      28.055  27.015  23.843  1.00  0.00    -0.062 A 
ATOM     41  H   UNL A   1      28.985  25.330  24.710  1.00  0.00     0.063 H 
ATOM     42  C   UNL A   1      29.542  28.548  22.711  1.00  0.00    -0.062 A 
ATOM     43  H   UNL A   1      31.575  27.997  22.736  1.00  0.00     0.063 H 
ATOM     44  C   UNL A   1      28.259  28.189  23.118  1.00  0.00    -0.062 A 
ATOM     45  H   UNL A   1      27.101  26.749  24.136  1.00  0.00     0.062 H 
ATOM     46  H   UNL A   1      29.691  29.413  22.168  1.00  0.00     0.062 H 
ATOM     47  H   UNL A   1      27.456  28.795  22.881  1.00  0.00     0.062 H 
ENDBRANCH  27  37
BRANCH  28  48
ATOM     48  C   UNL A   1      32.807  27.395  25.760  1.00  0.00    -0.016 A 
ATOM     49  C   UNL A   1      31.832  27.759  26.700  1.00  0.00    -0.053 A 
ATOM     50  C   UNL A   1      33.791  28.325  25.410  1.00  0.00    -0.053 A 
ATOM     51  C   UNL A   1      31.838  29.034  27.275  1.00  0.00    -0.043 A 
ATOM     52  H   UNL A   1      31.103  27.080  26.970  1.00  0.00     0.063 H 
ATOM     53  C   UNL A   1      33.813  29.592  25.999  1.00  0.00    -0.043 A 
ATOM     54  H   UNL A   1      34.507  28.074  24.710  1.00  0.00     0.063 H 
ATOM     55  C   UNL A   1      32.829  29.945  26.921  1.00  0.00     0.041 A 
ATOM     56  H   UNL A   1      31.112  29.298  27.958  1.00  0.00     0.064 H 
ATOM     57  H   UNL A   1      34.556  30.265  25.753  1.00  0.00     0.064 H 
ATOM     58  Cl  UNL A   1      32.821  31.527  27.598  1.00  0.00    -0.084 Cl
ENDBRANCH  28  48
ENDBRANCH  14  17
ENDBRANCH  11  14
ENDBRANCH   7  10
ENDBRANCH   4   7
ENDBRANCH   1   4
BRANCH   1  59
ATOM     59  C   UNL A   1      39.716  21.712  26.418  1.00  0.00    -0.052 C 
ATOM     60  H   UNL A   1      40.016  21.813  25.396  1.00  0.00     0.027 H 
ATOM     61  H   UNL A   1      38.869  21.077  26.571  1.00  0.00     0.027 H 
BRANCH  59  62
ATOM     62  C   UNL A   1      40.871  21.045  27.180  1.00  0.00    -0.036 C 
ATOM     63  H   UNL A   1      41.262  20.254  26.575  1.00  0.00     0.028 H 
ATOM     64  H   UNL A   1      40.470  20.693  28.107  1.00  0.00     0.028 H 
BRANCH  62  65
ATOM     65  C   UNL A   1      42.009  21.993  27.524  1.00  0.00     0.018 C 
ATOM     66  H   UNL A   1      42.661  21.508  28.221  1.00  0.00     0.049 H 
ATOM     67  H   UNL A   1      41.583  22.881  27.940  1.00  0.00     0.049 H 
BRANCH  65  68
ATOM     68  N   UNL A   1      42.782  22.376  26.349  1.00  0.00    -0.352 N 
ATOM     69  C   UNL A   1      42.885  23.619  25.760  1.00  0.00     0.251 C 
ATOM     70  H   UNL A   1      43.297  21.655  25.920  1.00  0.00     0.163 HD
ATOM     71  O   UNL A   1      43.272  23.739  24.609  1.00  0.00    -0.269 OA
BRANCH  69  72
ATOM     72  C   UNL A   1      42.500  24.808  26.542  1.00  0.00     0.039 A 
ATOM     73  C   UNL A   1      43.108  25.069  27.772  1.00  0.00    -0.049 A 
ATOM     74  C   UNL A   1      41.531  25.670  26.031  1.00  0.00    -0.049 A 
ATOM     75  C   UNL A   1      42.790  26.245  28.443  1.00  0.00    -0.053 A 
ATOM     76  H   UNL A   1      43.782  24.399  28.176  1.00  0.00     0.063 H 
ATOM     77  C   UNL A   1      41.309  26.888  26.630  1.00  0.00    -0.053 A 
ATOM     78  H   UNL A   1      40.979  25.394  25.203  1.00  0.00     0.063 H 
ATOM     79  C   UNL A   1      41.907  27.166  27.855  1.00  0.00    -0.014 A 
ATOM     80  H   UNL A   1      43.202  26.441  29.369  1.00  0.00     0.063 H 
ATOM     81  H   UNL A   1      40.706  27.590  26.175  1.00  0.00     0.063 H 
BRANCH  79  82
ATOM     82  C   UNL A   1      41.693  28.469  28.481  1.00  0.00     0.031 A 
ATOM     83  C   UNL A   1      42.740  29.489  28.190  1.00  0.00     0.074 A 
ATOM     84  C   UNL A   1      40.561  28.817  29.125  1.00  0.00     0.049 A 
ATOM     85  N   UNL A   1      43.553  30.051  29.023  1.00  0.00    -0.248 NA
ATOM     86  C   UNL A   1      42.981  29.858  26.786  1.00  0.00    -0.034 C 
ATOM     87  C   UNL A   1      39.302  28.072  29.240  1.00  0.00    -0.036 A 
ATOM     88  N   UNL A   1      40.272  29.991  29.752  1.00  0.00    -0.354 N 
ATOM     89  C   UNL A   1      44.307  30.963  28.287  1.00  0.00     0.074 A 
ATOM     90  C   UNL A   1      44.008  30.702  26.903  1.00  0.00    -0.034 C 
ATOM     91  H   UNL A   1      42.485  29.547  25.936  1.00  0.00     0.065 H 
ATOM     92  C   UNL A   1      38.330  28.892  29.694  1.00  0.00    -0.036 A 
ATOM     93  H   UNL A   1      39.179  27.073  29.008  1.00  0.00     0.065 H 
ATOM     94  C   UNL A   1      38.931  30.158  30.070  1.00  0.00     0.049 A 
ATOM     95  H   UNL A   1      40.957  30.665  29.963  1.00  0.00     0.167 HD
ATOM     96  C   UNL A   1      44.960  31.990  28.901  1.00  0.00     0.037 A 
ATOM     97  H   UNL A   1      44.521  31.113  26.106  1.00  0.00     0.065 H 
ATOM     98  H   UNL A   1      37.328  28.659  29.763  1.00  0.00     0.065 H 
ATOM     99  C   UNL A   1      38.354  31.268  30.590  1.00  0.00     0.037 A 
ATOM    100  C   UNL A   1      45.102  31.737  30.313  1.00  0.00     0.049 A 
ATOM    101  C   UNL A   1      39.430  32.076  31.214  1.00  0.00     0.074 A 
ATOM    102  C   UNL A   1      45.720  30.761  31.069  1.00  0.00    -0.036 A 
ATOM    103  N   UNL A   1      44.240  32.376  31.172  1.00  0.00    -0.354 N 
ATOM    104  N   UNL A   1      40.083  31.717  32.283  1.00  0.00    -0.248 NA
ATOM    105  C   UNL A   1      40.077  33.088  30.395  1.00  0.00    -0.034 C 
ATOM    106  C   UNL A   1      44.842  30.539  32.173  1.00  0.00    -0.036 A 
ATOM    107  H   UNL A   1      46.619  30.293  30.878  1.00  0.00     0.065 H 
ATOM    108  C   UNL A   1      43.779  31.437  32.057  1.00  0.00     0.049 A 
ATOM    109  H   UNL A   1      44.000  33.330  31.155  1.00  0.00     0.167 HD
ATOM    110  C   UNL A   1      41.389  32.114  32.044  1.00  0.00     0.074 A 
ATOM    111  C   UNL A   1      41.304  33.044  30.920  1.00  0.00    -0.034 C 
ATOM    112  H   UNL A   1      39.698  33.672  29.632  1.00  0.00     0.065 H 
ATOM    113  H   UNL A   1      44.970  29.843  32.923  1.00  0.00     0.065 H 
ATOM    114  C   UNL A   1      42.440  31.436  32.593  1.00  0.00     0.037 A 
ATOM    115  H   UNL A   1      42.100  33.602  30.573  1.00  0.00     0.065 H 
BRANCH  96 116
ATOM    116  C   UNL A   1      45.150  33.376  28.318  1.00  0.00     0.064 A 
ATOM    117  C   UNL A   1      46.458  33.894  28.203  1.00  0.00     0.173 A 
ATOM    118  C   UNL A   1      44.114  34.322  28.170  1.00  0.00     0.173 A 
ATOM    119  F   UNL A   1      47.527  33.090  28.319  1.00  0.00    -0.203 F 
ATOM    120  C   UNL A   1      46.707  35.263  28.073  1.00  0.00     0.198 A 
ATOM    121  C   UNL A   1      44.365  35.682  27.988  1.00  0.00     0.198 A 
ATOM    122  F   UNL A   1      42.823  33.999  28.303  1.00  0.00    -0.203 F 
ATOM    123  F   UNL A   1      47.966  35.717  28.116  1.00  0.00    -0.200 F 
ATOM    124  C   UNL A   1      45.659  36.158  27.979  1.00  0.00     0.200 A 
ATOM    125  F   UNL A   1      43.334  36.535  27.907  1.00  0.00    -0.200 F 
ATOM    126  F   UNL A   1      45.890  37.476  27.928  1.00  0.00    -0.200 F 
ENDBRANCH  96 116
BRANCH  99 127
ATOM    127  C   UNL A   1      36.996  31.807  30.362  1.00  0.00     0.064 A 
ATOM    128  C   UNL A   1      36.039  31.815  31.389  1.00  0.00     0.173 A 
ATOM    129  C   UNL A   1      36.708  32.590  29.228  1.00  0.00     0.173 A 
ATOM    130  F   UNL A   1      36.257  31.127  32.519  1.00  0.00    -0.203 F 
ATOM    131  C   UNL A   1      34.878  32.590  31.305  1.00  0.00     0.198 A 
ATOM    132  C   UNL A   1      35.548  33.362  29.145  1.00  0.00     0.198 A 
ATOM    133  F   UNL A   1      37.592  32.701  28.227  1.00  0.00    -0.203 F 
ATOM    134  F   UNL A   1      34.022  32.627  32.335  1.00  0.00    -0.200 F 
ATOM    135  C   UNL A   1      34.641  33.374  30.189  1.00  0.00     0.200 A 
ATOM    136  F   UNL A   1      35.346  34.152  28.082  1.00  0.00    -0.200 F 
ATOM    137  F   UNL A   1      33.566  34.171  30.135  1.00  0.00    -0.200 F 
ENDBRANCH  99 127
BRANCH 114 138
ATOM    138  C   UNL A   1      42.143  30.440  33.679  1.00  0.00     0.064 A 
ATOM    139  C   UNL A   1      41.784  29.101  33.449  1.00  0.00     0.173 A 
ATOM    140  C   UNL A   1      42.368  30.827  35.007  1.00  0.00     0.173 A 
ATOM    141  F   UNL A   1      41.648  28.625  32.206  1.00  0.00    -0.203 F 
ATOM    142  C   UNL A   1      41.614  28.206  34.504  1.00  0.00     0.198 A 
ATOM    143  C   UNL A   1      42.236  29.921  36.056  1.00  0.00     0.198 A 
ATOM    144  F   UNL A   1      42.765  32.079  35.285  1.00  0.00    -0.203 F 
ATOM    145  F   UNL A   1      41.256  26.936  34.259  1.00  0.00    -0.200 F 
ATOM    146  C   UNL A   1      41.849  28.615  35.807  1.00  0.00     0.200 A 
ATOM    147  F   UNL A   1      42.512  30.310  37.308  1.00  0.00    -0.200 F 
ATOM    148  F   UNL A   1      41.726  27.745  36.819  1.00  0.00    -0.200 F 
ENDBRANCH 114 138
ENDBRANCH  79  82
ENDBRANCH  69  72
ENDBRANCH  65  68
ENDBRANCH  62  65
ENDBRANCH  59  62
ENDBRANCH   1  59
TORSDOF 18
ENDMDL
MODEL 3
REMARK VINA RESULT:     -12.2      4.144      9.545
REMARK SMILES CC1(C)Cc2c(-c3ccccc3)c(-c3ccc(Cl)cc3)c(CC(=O)NCCCCCCNC(=O)c3ccc(-c4c5nc(c(-c6c(F)c(F)c(F)c(F)c6F)c6ccc([nH]6)c(-c6c(F)c(F)c(F)c(F)c6F)c6nc(c(-c7c(F)c(F)c(F)c(F)c7F)c7ccc4[nH]7)C=C6)C=C5)cc3)n2C1
REMARK SMILES IDX 28 1 27 4 26 7 25 10 23 11 24 12 22 14 21 17 2 18 4 19 99 20
REMARK SMILES IDX 5 21 98 24 6 27 13 28 1 29 3 33 7 37 8 38 12 39 9 40 11 42
REMARK SMILES IDX 10 44 14 48 15 49 20 50 16 51 19 53 17 55 18 58 29 59 30 62
REMARK SMILES IDX 31 65 32 68 33 69 34 71 35 72 36 73 97 74 37 75 96 77 38 79
REMARK SMILES IDX 39 82 40 83 90 84 41 85 95 86 89 87 91 88 42 89 94 90 88 92
REMARK SMILES IDX 87 94 43 96 75 99 55 100 74 101 56 102 59 103 73 104 92 105
REMARK SMILES IDX 57 106 58 108 72 110 93 111 60 114 44 116 45 117 53 118
REMARK SMILES IDX 46 119 47 120 51 121 54 122 48 123 49 124 52 125 50 126
REMARK SMILES IDX 76 127 77 128 85 129 78 130 79 131 83 132 86 133 80 134
REMARK SMILES IDX 81 135 84 136 82 137 61 138 62 139 70 140 63 141 64 142
REMARK SMILES IDX 68 143 71 144 65 145 66 146 69 147 67 148
REMARK H PARENT 28 2 28 3 27 5 27 6 26 8 26 9 25 13 22 15 22 16 4 22 4 23
REMARK H PARENT 99 25 99 26 1 30 1 31 1 32 3 34 3 35 3 36 8 41 12 43 9 45
REMARK H PARENT 11 46 10 47 15 52 20 54 16 56 19 57 29 60 29 61 30 63 30 64
REMARK H PARENT 31 66 31 67 32 70 36 76 97 78 37 80 96 81 95 91 89 93 91 95
REMARK H PARENT 94 97 88 98 56 107 59 109 92 112 57 113 93 115
REMARK Flexibility Score: inf
ROOT
ATOM      1  C   UNL A   1      34.346  31.697  28.407  1.00  0.00    -0.052 C 
ATOM      2  H   UNL A   1      35.053  31.565  29.200  1.00  0.00     0.027 H 
ATOM      3  H   UNL A   1      33.344  31.441  28.675  1.00  0.00     0.027 H 
ENDROOT
BRANCH   1   4
ATOM      4  C   UNL A   1      34.733  30.749  27.270  1.00  0.00    -0.036 C 
ATOM      5  H   UNL A   1      35.153  31.333  26.477  1.00  0.00     0.028 H 
ATOM      6  H   UNL A   1      35.425  30.046  27.684  1.00  0.00     0.028 H 
BRANCH   4   7
ATOM      7  C   UNL A   1      33.575  29.934  26.701  1.00  0.00     0.017 C 
ATOM      8  H   UNL A   1      33.453  29.051  27.294  1.00  0.00     0.049 H 
ATOM      9  H   UNL A   1      32.701  30.551  26.727  1.00  0.00     0.049 H 
BRANCH   7  10
ATOM     10  N   UNL A   1      33.790  29.542  25.328  1.00  0.00    -0.356 N 
ATOM     11  C   UNL A   1      33.988  28.293  24.811  1.00  0.00     0.225 C 
ATOM     12  O   UNL A   1      34.071  28.194  23.583  1.00  0.00    -0.275 OA
ATOM     13  H   UNL A   1      33.796  30.278  24.674  1.00  0.00     0.163 HD
BRANCH  11  14
ATOM     14  C   UNL A   1      34.015  27.064  25.708  1.00  0.00     0.068 C 
ATOM     15  H   UNL A   1      35.037  26.791  25.872  1.00  0.00     0.043 H 
ATOM     16  H   UNL A   1      33.506  27.331  26.609  1.00  0.00     0.043 H 
BRANCH  14  17
ATOM     17  C   UNL A   1      33.296  25.872  25.144  1.00  0.00     0.036 A 
ATOM     18  C   UNL A   1      29.648  26.105  24.555  1.00  0.00    -0.012 C 
ATOM     19  C   UNL A   1      30.136  24.810  23.827  1.00  0.00    -0.005 C 
ATOM     20  C   UNL A   1      30.945  26.947  24.742  1.00  0.00     0.028 C 
ATOM     21  C   UNL A   1      31.560  24.745  24.230  1.00  0.00     0.027 A 
ATOM     22  H   UNL A   1      30.036  24.900  22.766  1.00  0.00     0.034 H 
ATOM     23  H   UNL A   1      29.575  23.936  24.085  1.00  0.00     0.034 H 
ATOM     24  N   UNL A   1      31.994  25.932  24.738  1.00  0.00    -0.346 N 
ATOM     25  H   UNL A   1      30.929  27.480  25.669  1.00  0.00     0.050 H 
ATOM     26  H   UNL A   1      31.077  27.694  23.987  1.00  0.00     0.050 H 
ATOM     27  C   UNL A   1      32.599  23.856  24.276  1.00  0.00     0.011 A 
ATOM     28  C   UNL A   1      33.717  24.572  24.840  1.00  0.00     0.011 A 
BRANCH  18  29
ATOM     29  C   UNL A   1      28.609  26.864  23.729  1.00  0.00    -0.058 C 
ATOM     30  H   UNL A   1      28.610  26.492  22.726  1.00  0.00     0.024 H 
ATOM     31  H   UNL A   1      28.850  27.906  23.723  1.00  0.00     0.024 H 
ATOM     32  H   UNL A   1      27.640  26.724  24.161  1.00  0.00     0.024 H 
ENDBRANCH  18  29
BRANCH  18  33
ATOM     33  C   UNL A   1      29.027  25.733  25.914  1.00  0.00    -0.058 C 
ATOM     34  H   UNL A   1      29.472  24.829  26.274  1.00  0.00     0.024 H 
ATOM     35  H   UNL A   1      27.973  25.591  25.798  1.00  0.00     0.024 H 
ATOM     36  H   UNL A   1      29.206  26.522  26.615  1.00  0.00     0.024 H 
ENDBRANCH  18  33
BRANCH  27  37
ATOM     37  C   UNL A   1      32.518  22.474  23.848  1.00  0.00    -0.016 A 
ATOM     38  C   UNL A   1      32.629  21.431  24.773  1.00  0.00    -0.054 A 
ATOM     39  C   UNL A   1      32.258  22.183  22.504  1.00  0.00    -0.054 A 
ATOM     40  C   UNL A   1      32.469  20.110  24.354  1.00  0.00    -0.062 A 
ATOM     41  H   UNL A   1      32.830  21.639  25.764  1.00  0.00     0.063 H 
ATOM     42  C   UNL A   1      32.097  20.863  22.087  1.00  0.00    -0.062 A 
ATOM     43  H   UNL A   1      32.184  22.950  21.817  1.00  0.00     0.063 H 
ATOM     44  C   UNL A   1      32.198  19.828  23.014  1.00  0.00    -0.062 A 
ATOM     45  H   UNL A   1      32.551  19.339  25.036  1.00  0.00     0.062 H 
ATOM     46  H   UNL A   1      31.904  20.653  21.096  1.00  0.00     0.062 H 
ATOM     47  H   UNL A   1      32.073  18.849  22.709  1.00  0.00     0.062 H 
ENDBRANCH  27  37
BRANCH  28  48
ATOM     48  C   UNL A   1      35.060  24.035  25.030  1.00  0.00    -0.016 A 
ATOM     49  C   UNL A   1      35.757  23.519  23.929  1.00  0.00    -0.053 A 
ATOM     50  C   UNL A   1      35.597  23.868  26.311  1.00  0.00    -0.053 A 
ATOM     51  C   UNL A   1      36.968  22.842  24.106  1.00  0.00    -0.043 A 
ATOM     52  H   UNL A   1      35.373  23.640  22.978  1.00  0.00     0.063 H 
ATOM     53  C   UNL A   1      36.818  23.212  26.489  1.00  0.00    -0.043 A 
ATOM     54  H   UNL A   1      35.087  24.232  27.132  1.00  0.00     0.063 H 
ATOM     55  C   UNL A   1      37.493  22.692  25.386  1.00  0.00     0.041 A 
ATOM     56  H   UNL A   1      37.470  22.457  23.291  1.00  0.00     0.064 H 
ATOM     57  H   UNL A   1      37.219  23.113  27.435  1.00  0.00     0.064 H 
ATOM     58  Cl  UNL A   1      38.964  21.829  25.615  1.00  0.00    -0.084 Cl
ENDBRANCH  28  48
ENDBRANCH  14  17
ENDBRANCH  11  14
ENDBRANCH   7  10
ENDBRANCH   4   7
ENDBRANCH   1   4
BRANCH   1  59
ATOM     59  C   UNL A   1      34.318  33.191  28.046  1.00  0.00    -0.052 C 
ATOM     60  H   UNL A   1      34.314  33.267  26.979  1.00  0.00     0.027 H 
ATOM     61  H   UNL A   1      35.180  33.613  28.518  1.00  0.00     0.027 H 
BRANCH  59  62
ATOM     62  C   UNL A   1      33.123  33.999  28.576  1.00  0.00    -0.036 C 
ATOM     63  H   UNL A   1      32.622  33.414  29.318  1.00  0.00     0.028 H 
ATOM     64  H   UNL A   1      32.499  34.219  27.735  1.00  0.00     0.028 H 
BRANCH  62  65
ATOM     65  C   UNL A   1      33.511  35.332  29.197  1.00  0.00     0.018 C 
ATOM     66  H   UNL A   1      33.219  36.119  28.533  1.00  0.00     0.049 H 
ATOM     67  H   UNL A   1      34.569  35.325  29.354  1.00  0.00     0.049 H 
BRANCH  65  68
ATOM     68  N   UNL A   1      32.869  35.546  30.488  1.00  0.00    -0.352 N 
ATOM     69  C   UNL A   1      33.140  34.931  31.692  1.00  0.00     0.251 C 
ATOM     70  H   UNL A   1      32.148  36.216  30.503  1.00  0.00     0.163 HD
ATOM     71  O   UNL A   1      32.325  34.939  32.600  1.00  0.00    -0.269 OA
BRANCH  69  72
ATOM     72  C   UNL A   1      34.433  34.242  31.861  1.00  0.00     0.039 A 
ATOM     73  C   UNL A   1      34.498  32.847  31.821  1.00  0.00    -0.049 A 
ATOM     74  C   UNL A   1      35.586  35.002  32.050  1.00  0.00    -0.049 A 
ATOM     75  C   UNL A   1      35.743  32.230  31.892  1.00  0.00    -0.053 A 
ATOM     76  H   UNL A   1      33.637  32.284  31.739  1.00  0.00     0.063 H 
ATOM     77  C   UNL A   1      36.822  34.402  31.995  1.00  0.00    -0.053 A 
ATOM     78  H   UNL A   1      35.512  36.016  32.232  1.00  0.00     0.063 H 
ATOM     79  C   UNL A   1      36.908  33.014  31.954  1.00  0.00    -0.014 A 
ATOM     80  H   UNL A   1      35.811  31.200  31.898  1.00  0.00     0.063 H 
ATOM     81  H   UNL A   1      37.680  34.976  31.984  1.00  0.00     0.063 H 
BRANCH  79  82
ATOM     82  C   UNL A   1      38.219  32.375  31.870  1.00  0.00     0.031 A 
ATOM     83  C   UNL A   1      38.969  32.302  33.155  1.00  0.00     0.074 A 
ATOM     84  C   UNL A   1      38.670  31.727  30.777  1.00  0.00     0.049 A 
ATOM     85  N   UNL A   1      40.090  32.874  33.452  1.00  0.00    -0.248 NA
ATOM     86  C   UNL A   1      38.350  31.587  34.283  1.00  0.00    -0.034 C 
ATOM     87  C   UNL A   1      37.958  31.415  29.533  1.00  0.00    -0.036 A 
ATOM     88  N   UNL A   1      39.875  31.118  30.593  1.00  0.00    -0.354 N 
ATOM     89  C   UNL A   1      40.409  32.470  34.747  1.00  0.00     0.074 A 
ATOM     90  C   UNL A   1      39.242  31.796  35.254  1.00  0.00    -0.034 C 
ATOM     91  H   UNL A   1      37.462  31.062  34.313  1.00  0.00     0.065 H 
ATOM     92  C   UNL A   1      38.657  30.498  28.829  1.00  0.00    -0.036 A 
ATOM     93  H   UNL A   1      37.061  31.833  29.241  1.00  0.00     0.065 H 
ATOM     94  C   UNL A   1      39.939  30.294  29.478  1.00  0.00     0.049 A 
ATOM     95  H   UNL A   1      40.637  31.252  31.201  1.00  0.00     0.167 HD
ATOM     96  C   UNL A   1      41.687  32.555  35.215  1.00  0.00     0.037 A 
ATOM     97  H   UNL A   1      39.111  31.512  36.238  1.00  0.00     0.065 H 
ATOM     98  H   UNL A   1      38.333  30.021  27.973  1.00  0.00     0.065 H 
ATOM     99  C   UNL A   1      40.968  29.488  29.124  1.00  0.00     0.037 A 
ATOM    100  C   UNL A   1      42.472  33.451  34.402  1.00  0.00     0.049 A 
ATOM    101  C   UNL A   1      42.179  29.984  29.821  1.00  0.00     0.074 A 
ATOM    102  C   UNL A   1      42.394  34.792  34.080  1.00  0.00    -0.036 A 
ATOM    103  N   UNL A   1      43.329  32.902  33.481  1.00  0.00    -0.354 N 
ATOM    104  N   UNL A   1      42.761  31.118  29.550  1.00  0.00    -0.248 NA
ATOM    105  C   UNL A   1      42.494  29.413  31.121  1.00  0.00    -0.034 C 
ATOM    106  C   UNL A   1      42.793  34.866  32.712  1.00  0.00    -0.036 A 
ATOM    107  H   UNL A   1      42.110  35.571  34.695  1.00  0.00     0.065 H 
ATOM    108  C   UNL A   1      43.149  33.580  32.304  1.00  0.00     0.049 A 
ATOM    109  H   UNL A   1      43.957  32.160  33.636  1.00  0.00     0.167 HD
ATOM    110  C   UNL A   1      43.150  31.614  30.784  1.00  0.00     0.074 A 
ATOM    111  C   UNL A   1      43.056  30.477  31.698  1.00  0.00    -0.034 C 
ATOM    112  H   UNL A   1      42.331  28.462  31.489  1.00  0.00     0.065 H 
ATOM    113  H   UNL A   1      42.814  35.717  32.129  1.00  0.00     0.065 H 
ATOM    114  C   UNL A   1      43.237  32.959  31.004  1.00  0.00     0.037 A 
ATOM    115  H   UNL A   1      43.386  30.496  32.676  1.00  0.00     0.065 H 
BRANCH  96 116
ATOM    116  C   UNL A   1      42.336  31.570  36.165  1.00  0.00     0.064 A 
ATOM    117  C   UNL A   1      43.023  32.065  37.295  1.00  0.00     0.173 A 
ATOM    118  C   UNL A   1      42.584  30.216  35.856  1.00  0.00     0.173 A 
ATOM    119  F   UNL A   1      42.863  33.337  37.693  1.00  0.00    -0.203 F 
ATOM    120  C   UNL A   1      43.971  31.301  37.982  1.00  0.00     0.198 A 
ATOM    121  C   UNL A   1      43.493  29.440  36.576  1.00  0.00     0.198 A 
ATOM    122  F   UNL A   1      42.051  29.615  34.788  1.00  0.00    -0.203 F 
ATOM    123  F   UNL A   1      44.701  31.864  38.954  1.00  0.00    -0.200 F 
ATOM    124  C   UNL A   1      44.215  29.993  37.612  1.00  0.00     0.200 A 
ATOM    125  F   UNL A   1      43.722  28.175  36.197  1.00  0.00    -0.200 F 
ATOM    126  F   UNL A   1      45.174  29.281  38.218  1.00  0.00    -0.200 F 
ENDBRANCH  96 116
BRANCH  99 127
ATOM    127  C   UNL A   1      40.932  28.175  28.443  1.00  0.00     0.064 A 
ATOM    128  C   UNL A   1      40.135  27.128  28.932  1.00  0.00     0.173 A 
ATOM    129  C   UNL A   1      41.444  28.020  27.141  1.00  0.00     0.173 A 
ATOM    130  F   UNL A   1      39.575  27.218  30.148  1.00  0.00    -0.203 F 
ATOM    131  C   UNL A   1      39.836  26.007  28.152  1.00  0.00     0.198 A 
ATOM    132  C   UNL A   1      41.146  26.900  26.364  1.00  0.00     0.198 A 
ATOM    133  F   UNL A   1      42.158  28.997  26.563  1.00  0.00    -0.203 F 
ATOM    134  F   UNL A   1      39.013  25.061  28.626  1.00  0.00    -0.200 F 
ATOM    135  C   UNL A   1      40.331  25.901  26.863  1.00  0.00     0.200 A 
ATOM    136  F   UNL A   1      41.592  26.824  25.103  1.00  0.00    -0.200 F 
ATOM    137  F   UNL A   1      39.989  24.864  26.087  1.00  0.00    -0.200 F 
ENDBRANCH  99 127
BRANCH 114 138
ATOM    138  C   UNL A   1      43.182  33.870  29.810  1.00  0.00     0.064 A 
ATOM    139  C   UNL A   1      44.272  34.129  28.960  1.00  0.00     0.173 A 
ATOM    140  C   UNL A   1      41.936  34.391  29.434  1.00  0.00     0.173 A 
ATOM    141  F   UNL A   1      45.473  33.588  29.192  1.00  0.00    -0.203 F 
ATOM    142  C   UNL A   1      44.127  34.911  27.815  1.00  0.00     0.198 A 
ATOM    143  C   UNL A   1      41.785  35.138  28.269  1.00  0.00     0.198 A 
ATOM    144  F   UNL A   1      40.848  34.132  30.177  1.00  0.00    -0.203 F 
ATOM    145  F   UNL A   1      45.186  35.157  27.030  1.00  0.00    -0.200 F 
ATOM    146  C   UNL A   1      42.881  35.408  27.467  1.00  0.00     0.200 A 
ATOM    147  F   UNL A   1      40.570  35.574  27.912  1.00  0.00    -0.200 F 
ATOM    148  F   UNL A   1      42.733  36.125  26.344  1.00  0.00    -0.200 F 
ENDBRANCH 114 138
ENDBRANCH  79  82
ENDBRANCH  69  72
ENDBRANCH  65  68
ENDBRANCH  62  65
ENDBRANCH  59  62
ENDBRANCH   1  59
TORSDOF 18
ENDMDL
MODEL 4
REMARK VINA RESULT:     -11.9      3.050      8.755
REMARK SMILES CC1(C)Cc2c(-c3ccccc3)c(-c3ccc(Cl)cc3)c(CC(=O)NCCCCCCNC(=O)c3ccc(-c4c5nc(c(-c6c(F)c(F)c(F)c(F)c6F)c6ccc([nH]6)c(-c6c(F)c(F)c(F)c(F)c6F)c6nc(c(-c7c(F)c(F)c(F)c(F)c7F)c7ccc4[nH]7)C=C6)C=C5)cc3)n2C1
REMARK SMILES IDX 28 1 27 4 26 7 25 10 23 11 24 12 22 14 21 17 2 18 4 19 99 20
REMARK SMILES IDX 5 21 98 24 6 27 13 28 1 29 3 33 7 37 8 38 12 39 9 40 11 42
REMARK SMILES IDX 10 44 14 48 15 49 20 50 16 51 19 53 17 55 18 58 29 59 30 62
REMARK SMILES IDX 31 65 32 68 33 69 34 71 35 72 36 73 97 74 37 75 96 77 38 79
REMARK SMILES IDX 39 82 40 83 90 84 41 85 95 86 89 87 91 88 42 89 94 90 88 92
REMARK SMILES IDX 87 94 43 96 75 99 55 100 74 101 56 102 59 103 73 104 92 105
REMARK SMILES IDX 57 106 58 108 72 110 93 111 60 114 44 116 45 117 53 118
REMARK SMILES IDX 46 119 47 120 51 121 54 122 48 123 49 124 52 125 50 126
REMARK SMILES IDX 76 127 77 128 85 129 78 130 79 131 83 132 86 133 80 134
REMARK SMILES IDX 81 135 84 136 82 137 61 138 62 139 70 140 63 141 64 142
REMARK SMILES IDX 68 143 71 144 65 145 66 146 69 147 67 148
REMARK H PARENT 28 2 28 3 27 5 27 6 26 8 26 9 25 13 22 15 22 16 4 22 4 23
REMARK H PARENT 99 25 99 26 1 30 1 31 1 32 3 34 3 35 3 36 8 41 12 43 9 45
REMARK H PARENT 11 46 10 47 15 52 20 54 16 56 19 57 29 60 29 61 30 63 30 64
REMARK H PARENT 31 66 31 67 32 70 36 76 97 78 37 80 96 81 95 91 89 93 91 95
REMARK H PARENT 94 97 88 98 56 107 59 109 92 112 57 113 93 115
REMARK Flexibility Score: inf
ROOT
ATOM      1  C   UNL A   1      34.229  31.272  27.955  1.00  0.00    -0.052 C 
ATOM      2  H   UNL A   1      34.209  31.092  29.009  1.00  0.00     0.027 H 
ATOM      3  H   UNL A   1      33.345  31.743  27.580  1.00  0.00     0.027 H 
ENDROOT
BRANCH   1   4
ATOM      4  C   UNL A   1      34.315  29.917  27.248  1.00  0.00    -0.036 C 
ATOM      5  H   UNL A   1      35.221  29.895  26.678  1.00  0.00     0.028 H 
ATOM      6  H   UNL A   1      34.286  29.172  28.016  1.00  0.00     0.028 H 
BRANCH   4   7
ATOM      7  C   UNL A   1      33.152  29.615  26.308  1.00  0.00     0.017 C 
ATOM      8  H   UNL A   1      32.585  28.803  26.714  1.00  0.00     0.049 H 
ATOM      9  H   UNL A   1      32.564  30.505  26.225  1.00  0.00     0.049 H 
BRANCH   7  10
ATOM     10  N   UNL A   1      33.587  29.255  24.979  1.00  0.00    -0.356 N 
ATOM     11  C   UNL A   1      34.028  28.048  24.516  1.00  0.00     0.225 C 
ATOM     12  O   UNL A   1      34.273  27.958  23.310  1.00  0.00    -0.275 OA
ATOM     13  H   UNL A   1      33.564  29.982  24.315  1.00  0.00     0.163 HD
BRANCH  11  14
ATOM     14  C   UNL A   1      34.126  26.839  25.435  1.00  0.00     0.068 C 
ATOM     15  H   UNL A   1      35.157  26.560  25.513  1.00  0.00     0.043 H 
ATOM     16  H   UNL A   1      33.703  27.132  26.373  1.00  0.00     0.043 H 
BRANCH  14  17
ATOM     17  C   UNL A   1      33.350  25.642  24.967  1.00  0.00     0.036 A 
ATOM     18  C   UNL A   1      29.685  25.950  24.543  1.00  0.00    -0.012 C 
ATOM     19  C   UNL A   1      30.102  24.607  23.858  1.00  0.00    -0.005 C 
ATOM     20  C   UNL A   1      31.011  26.762  24.625  1.00  0.00     0.028 C 
ATOM     21  C   UNL A   1      31.542  24.521  24.195  1.00  0.00     0.027 A 
ATOM     22  H   UNL A   1      29.952  24.648  22.800  1.00  0.00     0.034 H 
ATOM     23  H   UNL A   1      29.532  23.762  24.186  1.00  0.00     0.034 H 
ATOM     24  N   UNL A   1      32.031  25.719  24.622  1.00  0.00    -0.346 N 
ATOM     25  H   UNL A   1      31.054  27.340  25.524  1.00  0.00     0.050 H 
ATOM     26  H   UNL A   1      31.124  27.468  23.828  1.00  0.00     0.050 H 
ATOM     27  C   UNL A   1      32.558  23.607  24.236  1.00  0.00     0.011 A 
ATOM     28  C   UNL A   1      33.722  24.317  24.709  1.00  0.00     0.011 A 
BRANCH  18  29
ATOM     29  C   UNL A   1      28.626  26.696  23.731  1.00  0.00    -0.058 C 
ATOM     30  H   UNL A   1      29.096  27.215  22.923  1.00  0.00     0.024 H 
ATOM     31  H   UNL A   1      28.123  27.399  24.362  1.00  0.00     0.024 H 
ATOM     32  H   UNL A   1      27.917  25.996  23.341  1.00  0.00     0.024 H 
ENDBRANCH  18  29
BRANCH  18  33
ATOM     33  C   UNL A   1      29.122  25.662  25.948  1.00  0.00    -0.058 C 
ATOM     34  H   UNL A   1      29.852  25.924  26.685  1.00  0.00     0.024 H 
ATOM     35  H   UNL A   1      28.887  24.622  26.032  1.00  0.00     0.024 H 
ATOM     36  H   UNL A   1      28.236  26.242  26.102  1.00  0.00     0.024 H 
ENDBRANCH  18  33
BRANCH  27  37
ATOM     37  C   UNL A   1      32.421  22.208  23.882  1.00  0.00    -0.016 A 
ATOM     38  C   UNL A   1      32.203  21.824  22.556  1.00  0.00    -0.054 A 
ATOM     39  C   UNL A   1      32.578  21.229  24.870  1.00  0.00    -0.054 A 
ATOM     40  C   UNL A   1      32.154  20.470  22.223  1.00  0.00    -0.062 A 
ATOM     41  H   UNL A   1      32.078  22.541  21.824  1.00  0.00     0.063 H 
ATOM     42  C   UNL A   1      32.530  19.876  24.536  1.00  0.00    -0.062 A 
ATOM     43  H   UNL A   1      32.731  21.509  25.852  1.00  0.00     0.063 H 
ATOM     44  C   UNL A   1      32.322  19.499  23.211  1.00  0.00    -0.062 A 
ATOM     45  H   UNL A   1      31.992  20.186  21.243  1.00  0.00     0.062 H 
ATOM     46  H   UNL A   1      32.647  19.158  25.267  1.00  0.00     0.062 H 
ATOM     47  H   UNL A   1      32.293  18.498  22.960  1.00  0.00     0.062 H 
ENDBRANCH  27  37
BRANCH  28  48
ATOM     48  C   UNL A   1      35.058  23.752  24.861  1.00  0.00    -0.016 A 
ATOM     49  C   UNL A   1      35.679  23.149  23.758  1.00  0.00    -0.053 A 
ATOM     50  C   UNL A   1      35.659  23.648  26.119  1.00  0.00    -0.053 A 
ATOM     51  C   UNL A   1      36.879  22.448  23.913  1.00  0.00    -0.043 A 
ATOM     52  H   UNL A   1      35.247  23.223  22.824  1.00  0.00     0.063 H 
ATOM     53  C   UNL A   1      36.870  22.967  26.273  1.00  0.00    -0.043 A 
ATOM     54  H   UNL A   1      35.205  24.077  26.941  1.00  0.00     0.063 H 
ATOM     55  C   UNL A   1      37.469  22.361  25.171  1.00  0.00     0.041 A 
ATOM     56  H   UNL A   1      37.325  21.998  23.099  1.00  0.00     0.064 H 
ATOM     57  H   UNL A   1      37.320  22.914  27.201  1.00  0.00     0.064 H 
ATOM     58  Cl  UNL A   1      38.926  21.469  25.375  1.00  0.00    -0.084 Cl
ENDBRANCH  28  48
ENDBRANCH  14  17
ENDBRANCH  11  14
ENDBRANCH   7  10
ENDBRANCH   4   7
ENDBRANCH   1   4
BRANCH   1  59
ATOM     59  C   UNL A   1      35.381  32.247  27.663  1.00  0.00    -0.052 C 
ATOM     60  H   UNL A   1      35.528  32.269  26.604  1.00  0.00     0.027 H 
ATOM     61  H   UNL A   1      36.215  31.874  28.220  1.00  0.00     0.027 H 
BRANCH  59  62
ATOM     62  C   UNL A   1      35.188  33.695  28.139  1.00  0.00    -0.036 C 
ATOM     63  H   UNL A   1      34.153  33.840  28.369  1.00  0.00     0.028 H 
ATOM     64  H   UNL A   1      35.524  34.330  27.346  1.00  0.00     0.028 H 
BRANCH  62  65
ATOM     65  C   UNL A   1      36.007  34.053  29.368  1.00  0.00     0.018 C 
ATOM     66  H   UNL A   1      36.101  35.118  29.420  1.00  0.00     0.049 H 
ATOM     67  H   UNL A   1      36.962  33.580  29.276  1.00  0.00     0.049 H 
BRANCH  65  68
ATOM     68  N   UNL A   1      35.390  33.577  30.600  1.00  0.00    -0.352 N 
ATOM     69  C   UNL A   1      35.584  32.374  31.246  1.00  0.00     0.251 C 
ATOM     70  H   UNL A   1      34.751  34.194  31.027  1.00  0.00     0.163 HD
ATOM     71  O   UNL A   1      34.773  31.957  32.057  1.00  0.00    -0.269 OA
BRANCH  69  72
ATOM     72  C   UNL A   1      36.788  31.584  30.927  1.00  0.00     0.039 A 
ATOM     73  C   UNL A   1      38.041  32.199  30.878  1.00  0.00    -0.049 A 
ATOM     74  C   UNL A   1      36.657  30.218  30.685  1.00  0.00    -0.049 A 
ATOM     75  C   UNL A   1      39.168  31.412  30.665  1.00  0.00    -0.053 A 
ATOM     76  H   UNL A   1      38.128  33.221  31.000  1.00  0.00     0.063 H 
ATOM     77  C   UNL A   1      37.777  29.424  30.598  1.00  0.00    -0.053 A 
ATOM     78  H   UNL A   1      35.718  29.801  30.571  1.00  0.00     0.063 H 
ATOM     79  C   UNL A   1      39.034  30.018  30.549  1.00  0.00    -0.014 A 
ATOM     80  H   UNL A   1      40.099  31.851  30.591  1.00  0.00     0.063 H 
ATOM     81  H   UNL A   1      37.686  28.397  30.570  1.00  0.00     0.063 H 
BRANCH  79  82
ATOM     82  C   UNL A   1      40.226  29.177  30.483  1.00  0.00     0.031 A 
ATOM     83  C   UNL A   1      40.900  28.932  31.789  1.00  0.00     0.074 A 
ATOM     84  C   UNL A   1      40.611  28.505  29.379  1.00  0.00     0.049 A 
ATOM     85  N   UNL A   1      42.086  29.300  32.150  1.00  0.00    -0.248 NA
ATOM     86  C   UNL A   1      40.127  28.285  32.861  1.00  0.00    -0.034 C 
ATOM     87  C   UNL A   1      39.910  28.363  28.098  1.00  0.00    -0.036 A 
ATOM     88  N   UNL A   1      41.707  27.714  29.210  1.00  0.00    -0.354 N 
ATOM     89  C   UNL A   1      42.281  28.800  33.436  1.00  0.00     0.074 A 
ATOM     90  C   UNL A   1      40.999  28.308  33.872  1.00  0.00    -0.034 C 
ATOM     91  H   UNL A   1      39.165  27.913  32.838  1.00  0.00     0.065 H 
ATOM     92  C   UNL A   1      40.478  27.371  27.379  1.00  0.00    -0.036 A 
ATOM     93  H   UNL A   1      39.105  28.933  27.793  1.00  0.00     0.065 H 
ATOM     94  C   UNL A   1      41.682  26.935  28.062  1.00  0.00     0.049 A 
ATOM     95  H   UNL A   1      42.455  27.697  29.849  1.00  0.00     0.167 HD
ATOM     96  C   UNL A   1      43.535  28.655  33.951  1.00  0.00     0.037 A 
ATOM     97  H   UNL A   1      40.783  28.012  34.837  1.00  0.00     0.065 H 
ATOM     98  H   UNL A   1      40.118  26.986  26.492  1.00  0.00     0.065 H 
ATOM     99  C   UNL A   1      42.580  25.984  27.708  1.00  0.00     0.037 A 
ATOM    100  C   UNL A   1      44.488  29.441  33.207  1.00  0.00     0.049 A 
ATOM    101  C   UNL A   1      43.826  26.248  28.468  1.00  0.00     0.074 A 
ATOM    102  C   UNL A   1      44.643  30.788  32.943  1.00  0.00    -0.036 A 
ATOM    103  N   UNL A   1      45.282  28.794  32.292  1.00  0.00    -0.354 N 
ATOM    104  N   UNL A   1      44.595  27.280  28.269  1.00  0.00    -0.248 NA
ATOM    105  C   UNL A   1      43.989  25.583  29.751  1.00  0.00    -0.034 C 
ATOM    106  C   UNL A   1      45.105  30.848  31.594  1.00  0.00    -0.036 A 
ATOM    107  H   UNL A   1      44.464  31.579  33.582  1.00  0.00     0.065 H 
ATOM    108  C   UNL A   1      45.264  29.537  31.141  1.00  0.00     0.049 A 
ATOM    109  H   UNL A   1      45.774  27.954  32.437  1.00  0.00     0.167 HD
ATOM    110  C   UNL A   1      45.008  27.657  29.537  1.00  0.00     0.074 A 
ATOM    111  C   UNL A   1      44.692  26.518  30.394  1.00  0.00    -0.034 C 
ATOM    112  H   UNL A   1      43.659  24.658  30.071  1.00  0.00     0.065 H 
ATOM    113  H   UNL A   1      45.288  31.705  31.050  1.00  0.00     0.065 H 
ATOM    114  C   UNL A   1      45.303  28.961  29.819  1.00  0.00     0.037 A 
ATOM    115  H   UNL A   1      44.980  26.444  31.383  1.00  0.00     0.065 H 
BRANCH  96 116
ATOM    116  C   UNL A   1      43.974  27.542  34.878  1.00  0.00     0.064 A 
ATOM    117  C   UNL A   1      43.736  26.203  34.497  1.00  0.00     0.173 A 
ATOM    118  C   UNL A   1      44.318  27.728  36.234  1.00  0.00     0.173 A 
ATOM    119  F   UNL A   1      43.408  25.898  33.231  1.00  0.00    -0.203 F 
ATOM    120  C   UNL A   1      43.724  25.157  35.423  1.00  0.00     0.198 A 
ATOM    121  C   UNL A   1      44.356  26.673  37.146  1.00  0.00     0.198 A 
ATOM    122  F   UNL A   1      44.523  28.939  36.762  1.00  0.00    -0.203 F 
ATOM    123  F   UNL A   1      43.349  23.930  35.037  1.00  0.00    -0.200 F 
ATOM    124  C   UNL A   1      44.021  25.395  36.751  1.00  0.00     0.200 A 
ATOM    125  F   UNL A   1      44.638  26.926  38.432  1.00  0.00    -0.200 F 
ATOM    126  F   UNL A   1      43.940  24.412  37.656  1.00  0.00    -0.200 F 
ENDBRANCH  96 116
BRANCH  99 127
ATOM    127  C   UNL A   1      42.360  24.722  26.968  1.00  0.00     0.064 A 
ATOM    128  C   UNL A   1      43.013  24.475  25.750  1.00  0.00     0.173 A 
ATOM    129  C   UNL A   1      41.740  23.619  27.585  1.00  0.00     0.173 A 
ATOM    130  F   UNL A   1      43.662  25.465  25.120  1.00  0.00    -0.203 F 
ATOM    131  C   UNL A   1      43.075  23.192  25.199  1.00  0.00     0.198 A 
ATOM    132  C   UNL A   1      41.803  22.339  27.032  1.00  0.00     0.198 A 
ATOM    133  F   UNL A   1      41.152  23.743  28.784  1.00  0.00    -0.203 F 
ATOM    134  F   UNL A   1      43.768  22.980  24.071  1.00  0.00    -0.200 F 
ATOM    135  C   UNL A   1      42.482  22.122  25.848  1.00  0.00     0.200 A 
ATOM    136  F   UNL A   1      41.264  21.302  27.687  1.00  0.00    -0.200 F 
ATOM    137  F   UNL A   1      42.600  20.881  25.360  1.00  0.00    -0.200 F 
ENDBRANCH  99 127
BRANCH 114 138
ATOM    138  C   UNL A   1      45.447  29.914  28.665  1.00  0.00     0.064 A 
ATOM    139  C   UNL A   1      44.379  30.619  28.083  1.00  0.00     0.173 A 
ATOM    140  C   UNL A   1      46.740  30.228  28.227  1.00  0.00     0.173 A 
ATOM    141  F   UNL A   1      43.123  30.453  28.513  1.00  0.00    -0.203 F 
ATOM    142  C   UNL A   1      44.597  31.559  27.077  1.00  0.00     0.198 A 
ATOM    143  C   UNL A   1      46.958  31.196  27.250  1.00  0.00     0.198 A 
ATOM    144  F   UNL A   1      47.804  29.626  28.784  1.00  0.00    -0.203 F 
ATOM    145  F   UNL A   1      43.559  32.208  26.526  1.00  0.00    -0.200 F 
ATOM    146  C   UNL A   1      45.887  31.853  26.668  1.00  0.00     0.200 A 
ATOM    147  F   UNL A   1      48.211  31.510  26.893  1.00  0.00    -0.200 F 
ATOM    148  F   UNL A   1      46.100  32.786  25.730  1.00  0.00    -0.200 F 
ENDBRANCH 114 138
ENDBRANCH  79  82
ENDBRANCH  69  72
ENDBRANCH  65  68
ENDBRANCH  62  65
ENDBRANCH  59  62
ENDBRANCH   1  59
TORSDOF 18
ENDMDL
MODEL 5
REMARK VINA RESULT:     -11.8      5.014     11.976
REMARK SMILES CC1(C)Cc2c(-c3ccccc3)c(-c3ccc(Cl)cc3)c(CC(=O)NCCCCCCNC(=O)c3ccc(-c4c5nc(c(-c6c(F)c(F)c(F)c(F)c6F)c6ccc([nH]6)c(-c6c(F)c(F)c(F)c(F)c6F)c6nc(c(-c7c(F)c(F)c(F)c(F)c7F)c7ccc4[nH]7)C=C6)C=C5)cc3)n2C1
REMARK SMILES IDX 28 1 27 4 26 7 25 10 23 11 24 12 22 14 21 17 2 18 4 19 99 20
REMARK SMILES IDX 5 21 98 24 6 27 13 28 1 29 3 33 7 37 8 38 12 39 9 40 11 42
REMARK SMILES IDX 10 44 14 48 15 49 20 50 16 51 19 53 17 55 18 58 29 59 30 62
REMARK SMILES IDX 31 65 32 68 33 69 34 71 35 72 36 73 97 74 37 75 96 77 38 79
REMARK SMILES IDX 39 82 40 83 90 84 41 85 95 86 89 87 91 88 42 89 94 90 88 92
REMARK SMILES IDX 87 94 43 96 75 99 55 100 74 101 56 102 59 103 73 104 92 105
REMARK SMILES IDX 57 106 58 108 72 110 93 111 60 114 44 116 45 117 53 118
REMARK SMILES IDX 46 119 47 120 51 121 54 122 48 123 49 124 52 125 50 126
REMARK SMILES IDX 76 127 77 128 85 129 78 130 79 131 83 132 86 133 80 134
REMARK SMILES IDX 81 135 84 136 82 137 61 138 62 139 70 140 63 141 64 142
REMARK SMILES IDX 68 143 71 144 65 145 66 146 69 147 67 148
REMARK H PARENT 28 2 28 3 27 5 27 6 26 8 26 9 25 13 22 15 22 16 4 22 4 23
REMARK H PARENT 99 25 99 26 1 30 1 31 1 32 3 34 3 35 3 36 8 41 12 43 9 45
REMARK H PARENT 11 46 10 47 15 52 20 54 16 56 19 57 29 60 29 61 30 63 30 64
REMARK H PARENT 31 66 31 67 32 70 36 76 97 78 37 80 96 81 95 91 89 93 91 95
REMARK H PARENT 94 97 88 98 56 107 59 109 92 112 57 113 93 115
REMARK Flexibility Score: inf
ROOT
ATOM      1  C   UNL A   1      35.870  32.170  32.887  1.00  0.00    -0.052 C 
ATOM      2  H   UNL A   1      36.562  32.986  32.904  1.00  0.00     0.027 H 
ATOM      3  H   UNL A   1      35.363  32.014  33.815  1.00  0.00     0.027 H 
ENDROOT
BRANCH   1   4
ATOM      4  C   UNL A   1      36.661  30.887  32.619  1.00  0.00    -0.036 C 
ATOM      5  H   UNL A   1      36.153  30.076  33.098  1.00  0.00     0.028 H 
ATOM      6  H   UNL A   1      36.714  30.780  31.556  1.00  0.00     0.028 H 
BRANCH   4   7
ATOM      7  C   UNL A   1      38.101  30.912  33.125  1.00  0.00     0.017 C 
ATOM      8  H   UNL A   1      38.718  30.382  32.428  1.00  0.00     0.049 H 
ATOM      9  H   UNL A   1      38.395  31.937  33.214  1.00  0.00     0.049 H 
BRANCH   7  10
ATOM     10  N   UNL A   1      38.246  30.302  34.425  1.00  0.00    -0.356 N 
ATOM     11  C   UNL A   1      38.155  30.878  35.661  1.00  0.00     0.225 C 
ATOM     12  O   UNL A   1      38.237  30.134  36.641  1.00  0.00    -0.275 OA
ATOM     13  H   UNL A   1      38.437  29.336  34.421  1.00  0.00     0.163 HD
BRANCH  11  14
ATOM     14  C   UNL A   1      37.874  32.366  35.818  1.00  0.00     0.068 C 
ATOM     15  H   UNL A   1      37.344  32.700  34.950  1.00  0.00     0.043 H 
ATOM     16  H   UNL A   1      37.309  32.478  36.719  1.00  0.00     0.043 H 
BRANCH  14  17
ATOM     17  C   UNL A   1      39.104  33.214  35.972  1.00  0.00     0.036 A 
ATOM     18  C   UNL A   1      40.322  33.981  39.383  1.00  0.00    -0.012 C 
ATOM     19  C   UNL A   1      41.462  34.398  38.398  1.00  0.00    -0.005 C 
ATOM     20  C   UNL A   1      39.448  32.993  38.556  1.00  0.00     0.028 C 
ATOM     21  C   UNL A   1      40.829  34.173  37.077  1.00  0.00     0.027 A 
ATOM     22  H   UNL A   1      42.328  33.783  38.524  1.00  0.00     0.034 H 
ATOM     23  H   UNL A   1      41.811  35.400  38.543  1.00  0.00     0.034 H 
ATOM     24  N   UNL A   1      39.714  33.398  37.180  1.00  0.00    -0.346 N 
ATOM     25  H   UNL A   1      38.411  33.101  38.796  1.00  0.00     0.050 H 
ATOM     26  H   UNL A   1      39.677  31.965  38.746  1.00  0.00     0.050 H 
ATOM     27  C   UNL A   1      40.993  34.513  35.762  1.00  0.00     0.011 A 
ATOM     28  C   UNL A   1      39.907  33.889  35.046  1.00  0.00     0.011 A 
BRANCH  18  29
ATOM     29  C   UNL A   1      40.875  33.313  40.642  1.00  0.00    -0.058 C 
ATOM     30  H   UNL A   1      40.555  33.859  41.505  1.00  0.00     0.024 H 
ATOM     31  H   UNL A   1      41.945  33.305  40.601  1.00  0.00     0.024 H 
ATOM     32  H   UNL A   1      40.513  32.308  40.701  1.00  0.00     0.024 H 
ENDBRANCH  18  29
BRANCH  18  33
ATOM     33  C   UNL A   1      39.513  35.226  39.796  1.00  0.00    -0.058 C 
ATOM     34  H   UNL A   1      38.913  34.994  40.651  1.00  0.00     0.024 H 
ATOM     35  H   UNL A   1      38.882  35.526  38.987  1.00  0.00     0.024 H 
ATOM     36  H   UNL A   1      40.185  36.023  40.038  1.00  0.00     0.024 H 
ENDBRANCH  18  33
BRANCH  27  37
ATOM     37  C   UNL A   1      42.057  35.358  35.258  1.00  0.00    -0.016 A 
ATOM     38  C   UNL A   1      43.288  34.812  34.886  1.00  0.00    -0.054 A 
ATOM     39  C   UNL A   1      41.822  36.726  35.075  1.00  0.00    -0.054 A 
ATOM     40  C   UNL A   1      44.272  35.629  34.327  1.00  0.00    -0.062 A 
ATOM     41  H   UNL A   1      43.470  33.806  35.026  1.00  0.00     0.063 H 
ATOM     42  C   UNL A   1      42.805  37.541  34.516  1.00  0.00    -0.062 A 
ATOM     43  H   UNL A   1      40.917  37.135  35.357  1.00  0.00     0.063 H 
ATOM     44  C   UNL A   1      44.027  36.990  34.138  1.00  0.00    -0.062 A 
ATOM     45  H   UNL A   1      45.182  35.226  34.053  1.00  0.00     0.062 H 
ATOM     46  H   UNL A   1      42.628  38.549  34.383  1.00  0.00     0.062 H 
ATOM     47  H   UNL A   1      44.755  37.590  33.718  1.00  0.00     0.062 H 
ENDBRANCH  27  37
BRANCH  28  48
ATOM     48  C   UNL A   1      39.705  33.935  33.602  1.00  0.00    -0.016 A 
ATOM     49  C   UNL A   1      40.723  33.481  32.751  1.00  0.00    -0.053 A 
ATOM     50  C   UNL A   1      38.593  34.577  33.048  1.00  0.00    -0.053 A 
ATOM     51  C   UNL A   1      40.632  33.672  31.369  1.00  0.00    -0.043 A 
ATOM     52  H   UNL A   1      41.546  33.002  33.148  1.00  0.00     0.063 H 
ATOM     53  C   UNL A   1      38.489  34.749  31.665  1.00  0.00    -0.043 A 
ATOM     54  H   UNL A   1      37.844  34.927  33.665  1.00  0.00     0.063 H 
ATOM     55  C   UNL A   1      39.514  34.305  30.832  1.00  0.00     0.041 A 
ATOM     56  H   UNL A   1      41.389  33.344  30.749  1.00  0.00     0.064 H 
ATOM     57  H   UNL A   1      37.654  35.203  31.261  1.00  0.00     0.064 H 
ATOM     58  Cl  UNL A   1      39.413  34.575  29.136  1.00  0.00    -0.084 Cl
ENDBRANCH  28  48
ENDBRANCH  14  17
ENDBRANCH  11  14
ENDBRANCH   7  10
ENDBRANCH   4   7
ENDBRANCH   1   4
BRANCH   1  59
ATOM     59  C   UNL A   1      34.775  32.501  31.860  1.00  0.00    -0.052 C 
ATOM     60  H   UNL A   1      33.839  32.519  32.377  1.00  0.00     0.027 H 
ATOM     61  H   UNL A   1      34.854  31.744  31.108  1.00  0.00     0.027 H 
BRANCH  59  62
ATOM     62  C   UNL A   1      34.921  33.835  31.112  1.00  0.00    -0.036 C 
ATOM     63  H   UNL A   1      35.571  34.470  31.677  1.00  0.00     0.028 H 
ATOM     64  H   UNL A   1      33.938  34.243  31.008  1.00  0.00     0.028 H 
BRANCH  62  65
ATOM     65  C   UNL A   1      35.491  33.695  29.710  1.00  0.00     0.018 C 
ATOM     66  H   UNL A   1      36.468  33.264  29.777  1.00  0.00     0.049 H 
ATOM     67  H   UNL A   1      35.522  34.669  29.269  1.00  0.00     0.049 H 
BRANCH  65  68
ATOM     68  N   UNL A   1      34.663  32.847  28.860  1.00  0.00    -0.352 N 
ATOM     69  C   UNL A   1      35.025  31.702  28.181  1.00  0.00     0.251 C 
ATOM     70  H   UNL A   1      33.725  33.127  28.757  1.00  0.00     0.163 HD
ATOM     71  O   UNL A   1      34.357  31.287  27.249  1.00  0.00    -0.269 OA
BRANCH  69  72
ATOM     72  C   UNL A   1      36.251  30.992  28.591  1.00  0.00     0.039 A 
ATOM     73  C   UNL A   1      36.263  29.598  28.672  1.00  0.00    -0.049 A 
ATOM     74  C   UNL A   1      37.395  31.732  28.884  1.00  0.00    -0.049 A 
ATOM     75  C   UNL A   1      37.459  28.953  28.972  1.00  0.00    -0.053 A 
ATOM     76  H   UNL A   1      35.399  29.056  28.511  1.00  0.00     0.063 H 
ATOM     77  C   UNL A   1      38.601  31.093  29.058  1.00  0.00    -0.053 A 
ATOM     78  H   UNL A   1      37.338  32.759  28.972  1.00  0.00     0.063 H 
ATOM     79  C   UNL A   1      38.634  29.705  29.140  1.00  0.00    -0.014 A 
ATOM     80  H   UNL A   1      37.482  27.926  29.070  1.00  0.00     0.063 H 
ATOM     81  H   UNL A   1      39.474  31.638  29.126  1.00  0.00     0.063 H 
BRANCH  79  82
ATOM     82  C   UNL A   1      39.916  29.023  29.299  1.00  0.00     0.031 A 
ATOM     83  C   UNL A   1      40.327  28.772  30.710  1.00  0.00     0.074 A 
ATOM     84  C   UNL A   1      40.611  28.482  28.279  1.00  0.00     0.049 A 
ATOM     85  N   UNL A   1      41.350  29.257  31.335  1.00  0.00    -0.248 NA
ATOM     86  C   UNL A   1      39.440  27.962  31.561  1.00  0.00    -0.034 C 
ATOM     87  C   UNL A   1      40.221  28.345  26.871  1.00  0.00    -0.036 A 
ATOM     88  N   UNL A   1      41.815  27.846  28.319  1.00  0.00    -0.354 N 
ATOM     89  C   UNL A   1      41.336  28.696  32.611  1.00  0.00     0.074 A 
ATOM     90  C   UNL A   1      40.069  28.021  32.736  1.00  0.00    -0.034 C 
ATOM     91  H   UNL A   1      38.564  27.477  31.312  1.00  0.00     0.065 H 
ATOM     92  C   UNL A   1      41.057  27.482  26.252  1.00  0.00    -0.036 A 
ATOM     93  H   UNL A   1      39.429  28.832  26.423  1.00  0.00     0.065 H 
ATOM     94  C   UNL A   1      42.138  27.151  27.162  1.00  0.00     0.049 A 
ATOM     95  H   UNL A   1      42.407  27.877  29.105  1.00  0.00     0.167 HD
ATOM     96  C   UNL A   1      42.461  28.672  33.380  1.00  0.00     0.037 A 
ATOM     97  H   UNL A   1      39.698  27.634  33.618  1.00  0.00     0.065 H 
ATOM     98  H   UNL A   1      40.946  27.120  25.293  1.00  0.00     0.065 H 
ATOM     99  C   UNL A   1      43.210  26.345  26.973  1.00  0.00     0.037 A 
ATOM    100  C   UNL A   1      43.434  29.619  32.894  1.00  0.00     0.049 A 
ATOM    101  C   UNL A   1      44.221  26.707  27.996  1.00  0.00     0.074 A 
ATOM    102  C   UNL A   1      43.458  30.989  32.727  1.00  0.00    -0.036 A 
ATOM    103  N   UNL A   1      44.483  29.140  32.148  1.00  0.00    -0.354 N 
ATOM    104  N   UNL A   1      44.869  27.837  28.012  1.00  0.00    -0.248 NA
ATOM    105  C   UNL A   1      44.199  25.979  29.255  1.00  0.00    -0.034 C 
ATOM    106  C   UNL A   1      44.180  31.200  31.514  1.00  0.00    -0.036 A 
ATOM    107  H   UNL A   1      43.043  31.706  33.344  1.00  0.00     0.065 H 
ATOM    108  C   UNL A   1      44.607  29.953  31.052  1.00  0.00     0.049 A 
ATOM    109  H   UNL A   1      45.043  28.359  32.361  1.00  0.00     0.167 HD
ATOM    110  C   UNL A   1      44.950  28.173  29.354  1.00  0.00     0.074 A 
ATOM    111  C   UNL A   1      44.618  26.946  30.074  1.00  0.00    -0.034 C 
ATOM    112  H   UNL A   1      43.937  25.001  29.456  1.00  0.00     0.065 H 
ATOM    113  H   UNL A   1      44.357  32.109  31.060  1.00  0.00     0.065 H 
ATOM    114  C   UNL A   1      45.001  29.480  29.748  1.00  0.00     0.037 A 
ATOM    115  H   UNL A   1      44.699  26.840  31.098  1.00  0.00     0.065 H 
BRANCH  96 116
ATOM    116  C   UNL A   1      42.842  27.559  34.333  1.00  0.00     0.064 A 
ATOM    117  C   UNL A   1      43.257  26.318  33.801  1.00  0.00     0.173 A 
ATOM    118  C   UNL A   1      42.521  27.546  35.707  1.00  0.00     0.173 A 
ATOM    119  F   UNL A   1      43.596  26.204  32.508  1.00  0.00    -0.203 F 
ATOM    120  C   UNL A   1      43.233  25.141  34.555  1.00  0.00     0.198 A 
ATOM    121  C   UNL A   1      42.548  26.379  36.470  1.00  0.00     0.198 A 
ATOM    122  F   UNL A   1      42.063  28.628  36.346  1.00  0.00    -0.203 F 
ATOM    123  F   UNL A   1      43.494  23.967  33.964  1.00  0.00    -0.200 F 
ATOM    124  C   UNL A   1      42.865  25.170  35.886  1.00  0.00     0.200 A 
ATOM    125  F   UNL A   1      42.179  26.427  37.758  1.00  0.00    -0.200 F 
ATOM    126  F   UNL A   1      42.769  24.037  36.592  1.00  0.00    -0.200 F 
ENDBRANCH  96 116
BRANCH  99 127
ATOM    127  C   UNL A   1      43.323  25.121  26.151  1.00  0.00     0.064 A 
ATOM    128  C   UNL A   1      44.415  24.926  25.290  1.00  0.00     0.173 A 
ATOM    129  C   UNL A   1      42.520  23.994  26.415  1.00  0.00     0.173 A 
ATOM    130  F   UNL A   1      45.251  25.939  25.021  1.00  0.00    -0.203 F 
ATOM    131  C   UNL A   1      44.710  23.669  24.754  1.00  0.00     0.198 A 
ATOM    132  C   UNL A   1      42.817  22.741  25.877  1.00  0.00     0.198 A 
ATOM    133  F   UNL A   1      41.498  24.066  27.278  1.00  0.00    -0.203 F 
ATOM    134  F   UNL A   1      45.802  23.505  23.993  1.00  0.00    -0.200 F 
ATOM    135  C   UNL A   1      43.919  22.575  25.059  1.00  0.00     0.200 A 
ATOM    136  F   UNL A   1      42.072  21.678  26.211  1.00  0.00    -0.200 F 
ATOM    137  F   UNL A   1      44.239  21.356  24.604  1.00  0.00    -0.200 F 
ENDBRANCH  99 127
BRANCH 114 138
ATOM    138  C   UNL A   1      45.254  30.522  28.694  1.00  0.00     0.064 A 
ATOM    139  C   UNL A   1      44.255  31.080  27.876  1.00  0.00     0.173 A 
ATOM    140  C   UNL A   1      46.538  31.074  28.608  1.00  0.00     0.173 A 
ATOM    141  F   UNL A   1      42.982  30.679  27.967  1.00  0.00    -0.203 F 
ATOM    142  C   UNL A   1      44.544  32.111  26.984  1.00  0.00     0.198 A 
ATOM    143  C   UNL A   1      46.816  32.130  27.745  1.00  0.00     0.198 A 
ATOM    144  F   UNL A   1      47.521  30.619  29.402  1.00  0.00    -0.203 F 
ATOM    145  F   UNL A   1      43.577  32.616  26.203  1.00  0.00    -0.200 F 
ATOM    146  C   UNL A   1      45.823  32.641  26.925  1.00  0.00     0.200 A 
ATOM    147  F   UNL A   1      48.041  32.671  27.727  1.00  0.00    -0.200 F 
ATOM    148  F   UNL A   1      46.092  33.660  26.096  1.00  0.00    -0.200 F 
ENDBRANCH 114 138
ENDBRANCH  79  82
ENDBRANCH  69  72
ENDBRANCH  65  68
ENDBRANCH  62  65
ENDBRANCH  59  62
ENDBRANCH   1  59
TORSDOF 18
ENDMDL
MODEL 6
REMARK VINA RESULT:     -11.8      9.008     15.613
REMARK SMILES CC1(C)Cc2c(-c3ccccc3)c(-c3ccc(Cl)cc3)c(CC(=O)NCCCCCCNC(=O)c3ccc(-c4c5nc(c(-c6c(F)c(F)c(F)c(F)c6F)c6ccc([nH]6)c(-c6c(F)c(F)c(F)c(F)c6F)c6nc(c(-c7c(F)c(F)c(F)c(F)c7F)c7ccc4[nH]7)C=C6)C=C5)cc3)n2C1
REMARK SMILES IDX 28 1 27 4 26 7 25 10 23 11 24 12 22 14 21 17 2 18 4 19 99 20
REMARK SMILES IDX 5 21 98 24 6 27 13 28 1 29 3 33 7 37 8 38 12 39 9 40 11 42
REMARK SMILES IDX 10 44 14 48 15 49 20 50 16 51 19 53 17 55 18 58 29 59 30 62
REMARK SMILES IDX 31 65 32 68 33 69 34 71 35 72 36 73 97 74 37 75 96 77 38 79
REMARK SMILES IDX 39 82 40 83 90 84 41 85 95 86 89 87 91 88 42 89 94 90 88 92
REMARK SMILES IDX 87 94 43 96 75 99 55 100 74 101 56 102 59 103 73 104 92 105
REMARK SMILES IDX 57 106 58 108 72 110 93 111 60 114 44 116 45 117 53 118
REMARK SMILES IDX 46 119 47 120 51 121 54 122 48 123 49 124 52 125 50 126
REMARK SMILES IDX 76 127 77 128 85 129 78 130 79 131 83 132 86 133 80 134
REMARK SMILES IDX 81 135 84 136 82 137 61 138 62 139 70 140 63 141 64 142
REMARK SMILES IDX 68 143 71 144 65 145 66 146 69 147 67 148
REMARK H PARENT 28 2 28 3 27 5 27 6 26 8 26 9 25 13 22 15 22 16 4 22 4 23
REMARK H PARENT 99 25 99 26 1 30 1 31 1 32 3 34 3 35 3 36 8 41 12 43 9 45
REMARK H PARENT 11 46 10 47 15 52 20 54 16 56 19 57 29 60 29 61 30 63 30 64
REMARK H PARENT 31 66 31 67 32 70 36 76 97 78 37 80 96 81 95 91 89 93 91 95
REMARK H PARENT 94 97 88 98 56 107 59 109 92 112 57 113 93 115
REMARK Flexibility Score: inf
ROOT
ATOM      1  C   UNL A   1      44.730  41.825  25.858  1.00  0.00    -0.052 C 
ATOM      2  H   UNL A   1      43.745  42.242  25.857  1.00  0.00     0.027 H 
ATOM      3  H   UNL A   1      45.416  42.335  26.501  1.00  0.00     0.027 H 
ENDROOT
BRANCH   1   4
ATOM      4  C   UNL A   1      45.300  41.960  24.444  1.00  0.00    -0.036 C 
ATOM      5  H   UNL A   1      44.755  41.300  23.801  1.00  0.00     0.028 H 
ATOM      6  H   UNL A   1      45.196  42.990  24.173  1.00  0.00     0.028 H 
BRANCH   4   7
ATOM      7  C   UNL A   1      46.784  41.627  24.322  1.00  0.00     0.017 C 
ATOM      8  H   UNL A   1      47.353  42.503  24.559  1.00  0.00     0.049 H 
ATOM      9  H   UNL A   1      46.993  40.825  25.000  1.00  0.00     0.049 H 
BRANCH   7  10
ATOM     10  N   UNL A   1      47.150  41.185  22.998  1.00  0.00    -0.356 N 
ATOM     11  C   UNL A   1      47.402  41.930  21.880  1.00  0.00     0.225 C 
ATOM     12  O   UNL A   1      47.778  41.329  20.870  1.00  0.00    -0.275 OA
ATOM     13  H   UNL A   1      47.227  40.210  22.883  1.00  0.00     0.163 HD
BRANCH  11  14
ATOM     14  C   UNL A   1      47.309  43.449  21.909  1.00  0.00     0.068 C 
ATOM     15  H   UNL A   1      46.728  43.733  22.762  1.00  0.00     0.043 H 
ATOM     16  H   UNL A   1      48.312  43.817  21.947  1.00  0.00     0.043 H 
BRANCH  14  17
ATOM     17  C   UNL A   1      46.676  44.052  20.687  1.00  0.00     0.036 A 
ATOM     18  C   UNL A   1      48.854  45.640  18.150  1.00  0.00    -0.012 C 
ATOM     19  C   UNL A   1      47.443  45.490  17.495  1.00  0.00    -0.005 C 
ATOM     20  C   UNL A   1      48.837  44.621  19.328  1.00  0.00     0.028 C 
ATOM     21  C   UNL A   1      46.631  44.972  18.621  1.00  0.00     0.027 A 
ATOM     22  H   UNL A   1      47.464  44.796  16.681  1.00  0.00     0.034 H 
ATOM     23  H   UNL A   1      47.065  46.399  17.074  1.00  0.00     0.034 H 
ATOM     24  N   UNL A   1      47.415  44.498  19.630  1.00  0.00    -0.346 N 
ATOM     25  H   UNL A   1      49.379  44.996  20.170  1.00  0.00     0.050 H 
ATOM     26  H   UNL A   1      49.299  43.686  19.085  1.00  0.00     0.050 H 
ATOM     27  C   UNL A   1      45.323  44.830  18.995  1.00  0.00     0.011 A 
ATOM     28  C   UNL A   1      45.341  44.225  20.304  1.00  0.00     0.011 A 
BRANCH  18  29
ATOM     29  C   UNL A   1      49.976  45.325  17.160  1.00  0.00    -0.058 C 
ATOM     30  H   UNL A   1      49.644  45.536  16.166  1.00  0.00     0.024 H 
ATOM     31  H   UNL A   1      50.239  44.290  17.237  1.00  0.00     0.024 H 
ATOM     32  H   UNL A   1      50.831  45.927  17.387  1.00  0.00     0.024 H 
ENDBRANCH  18  29
BRANCH  18  33
ATOM     33  C   UNL A   1      49.036  47.080  18.665  1.00  0.00    -0.058 C 
ATOM     34  H   UNL A   1      49.785  47.094  19.429  1.00  0.00     0.024 H 
ATOM     35  H   UNL A   1      48.111  47.436  19.066  1.00  0.00     0.024 H 
ATOM     36  H   UNL A   1      49.341  47.712  17.856  1.00  0.00     0.024 H 
ENDBRANCH  18  33
BRANCH  27  37
ATOM     37  C   UNL A   1      44.189  45.247  18.195  1.00  0.00    -0.016 A 
ATOM     38  C   UNL A   1      43.774  46.582  18.183  1.00  0.00    -0.054 A 
ATOM     39  C   UNL A   1      43.546  44.315  17.371  1.00  0.00    -0.054 A 
ATOM     40  C   UNL A   1      42.731  46.979  17.345  1.00  0.00    -0.062 A 
ATOM     41  H   UNL A   1      44.238  47.272  18.794  1.00  0.00     0.063 H 
ATOM     42  C   UNL A   1      42.505  44.713  16.534  1.00  0.00    -0.062 A 
ATOM     43  H   UNL A   1      43.844  43.327  17.384  1.00  0.00     0.063 H 
ATOM     44  C   UNL A   1      42.103  46.046  16.519  1.00  0.00    -0.062 A 
ATOM     45  H   UNL A   1      42.424  47.965  17.336  1.00  0.00     0.062 H 
ATOM     46  H   UNL A   1      42.036  44.023  15.928  1.00  0.00     0.062 H 
ATOM     47  H   UNL A   1      41.336  46.345  15.894  1.00  0.00     0.062 H 
ENDBRANCH  27  37
BRANCH  28  48
ATOM     48  C   UNL A   1      44.166  43.836  21.076  1.00  0.00    -0.016 A 
ATOM     49  C   UNL A   1      43.881  44.501  22.277  1.00  0.00    -0.053 A 
ATOM     50  C   UNL A   1      43.416  42.706  20.732  1.00  0.00    -0.053 A 
ATOM     51  C   UNL A   1      42.868  44.040  23.123  1.00  0.00    -0.043 A 
ATOM     52  H   UNL A   1      44.424  45.339  22.539  1.00  0.00     0.063 H 
ATOM     53  C   UNL A   1      42.388  42.256  21.565  1.00  0.00    -0.043 A 
ATOM     54  H   UNL A   1      43.625  42.200  19.857  1.00  0.00     0.063 H 
ATOM     55  C   UNL A   1      42.126  42.919  22.763  1.00  0.00     0.041 A 
ATOM     56  H   UNL A   1      42.670  44.529  24.010  1.00  0.00     0.064 H 
ATOM     57  H   UNL A   1      41.824  41.435  21.294  1.00  0.00     0.064 H 
ATOM     58  Cl  UNL A   1      40.902  42.324  23.816  1.00  0.00    -0.084 Cl
ENDBRANCH  28  48
ENDBRANCH  14  17
ENDBRANCH  11  14
ENDBRANCH   7  10
ENDBRANCH   4   7
ENDBRANCH   1   4
BRANCH   1  59
ATOM     59  C   UNL A   1      44.634  40.390  26.401  1.00  0.00    -0.052 C 
ATOM     60  H   UNL A   1      45.116  40.370  27.356  1.00  0.00     0.027 H 
ATOM     61  H   UNL A   1      45.097  39.774  25.658  1.00  0.00     0.027 H 
BRANCH  59  62
ATOM     62  C   UNL A   1      43.219  39.820  26.580  1.00  0.00    -0.036 C 
ATOM     63  H   UNL A   1      42.668  39.995  25.679  1.00  0.00     0.028 H 
ATOM     64  H   UNL A   1      42.789  40.314  27.426  1.00  0.00     0.028 H 
BRANCH  62  65
ATOM     65  C   UNL A   1      43.189  38.330  26.878  1.00  0.00     0.018 C 
ATOM     66  H   UNL A   1      42.552  37.849  26.165  1.00  0.00     0.049 H 
ATOM     67  H   UNL A   1      42.826  38.201  27.875  1.00  0.00     0.049 H 
BRANCH  65  68
ATOM     68  N   UNL A   1      44.513  37.726  26.804  1.00  0.00    -0.352 N 
ATOM     69  C   UNL A   1      45.108  36.853  27.692  1.00  0.00     0.251 C 
ATOM     70  H   UNL A   1      45.055  37.973  26.020  1.00  0.00     0.163 HD
ATOM     71  O   UNL A   1      46.317  36.695  27.704  1.00  0.00    -0.269 OA
BRANCH  69  72
ATOM     72  C   UNL A   1      44.253  36.122  28.646  1.00  0.00     0.039 A 
ATOM     73  C   UNL A   1      43.756  36.766  29.782  1.00  0.00    -0.049 A 
ATOM     74  C   UNL A   1      43.943  34.787  28.392  1.00  0.00    -0.049 A 
ATOM     75  C   UNL A   1      42.880  36.077  30.615  1.00  0.00    -0.053 A 
ATOM     76  H   UNL A   1      44.034  37.736  29.998  1.00  0.00     0.063 H 
ATOM     77  C   UNL A   1      42.984  34.149  29.144  1.00  0.00    -0.053 A 
ATOM     78  H   UNL A   1      44.434  34.277  27.641  1.00  0.00     0.063 H 
ATOM     79  C   UNL A   1      42.475  34.774  30.278  1.00  0.00    -0.014 A 
ATOM     80  H   UNL A   1      42.528  36.522  31.477  1.00  0.00     0.063 H 
ATOM     81  H   UNL A   1      42.643  33.215  28.868  1.00  0.00     0.063 H 
BRANCH  79  82
ATOM     82  C   UNL A   1      41.438  34.110  31.063  1.00  0.00     0.031 A 
ATOM     83  C   UNL A   1      41.829  33.759  32.457  1.00  0.00     0.074 A 
ATOM     84  C   UNL A   1      40.159  33.974  30.657  1.00  0.00     0.049 A 
ATOM     85  N   UNL A   1      41.937  32.580  32.977  1.00  0.00    -0.248 NA
ATOM     86  C   UNL A   1      42.247  34.845  33.358  1.00  0.00    -0.034 C 
ATOM     87  C   UNL A   1      39.509  34.531  29.465  1.00  0.00    -0.036 A 
ATOM     88  N   UNL A   1      39.128  33.360  31.301  1.00  0.00    -0.354 N 
ATOM     89  C   UNL A   1      42.281  32.768  34.315  1.00  0.00     0.074 A 
ATOM     90  C   UNL A   1      42.592  34.167  34.454  1.00  0.00    -0.034 C 
ATOM     91  H   UNL A   1      42.267  35.863  33.186  1.00  0.00     0.065 H 
ATOM     92  C   UNL A   1      38.168  34.421  29.589  1.00  0.00    -0.036 A 
ATOM     93  H   UNL A   1      40.001  34.944  28.657  1.00  0.00     0.065 H 
ATOM     94  C   UNL A   1      37.875  33.631  30.770  1.00  0.00     0.049 A 
ATOM     95  H   UNL A   1      39.262  32.773  32.080  1.00  0.00     0.167 HD
ATOM     96  C   UNL A   1      42.085  31.782  35.236  1.00  0.00     0.037 A 
ATOM     97  H   UNL A   1      43.025  34.590  35.291  1.00  0.00     0.065 H 
ATOM     98  H   UNL A   1      37.469  34.829  28.950  1.00  0.00     0.065 H 
ATOM     99  C   UNL A   1      36.680  33.248  31.279  1.00  0.00     0.037 A 
ATOM    100  C   UNL A   1      41.908  30.505  34.589  1.00  0.00     0.049 A 
ATOM    101  C   UNL A   1      36.932  32.104  32.188  1.00  0.00     0.074 A 
ATOM    102  C   UNL A   1      42.687  29.716  33.765  1.00  0.00    -0.036 A 
ATOM    103  N   UNL A   1      40.631  30.016  34.465  1.00  0.00    -0.354 N 
ATOM    104  N   UNL A   1      37.322  30.928  31.787  1.00  0.00    -0.248 NA
ATOM    105  C   UNL A   1      37.164  32.395  33.594  1.00  0.00    -0.034 C 
ATOM    106  C   UNL A   1      41.772  29.149  32.827  1.00  0.00    -0.036 A 
ATOM    107  H   UNL A   1      43.707  29.570  33.815  1.00  0.00     0.065 H 
ATOM    108  C   UNL A   1      40.489  29.574  33.177  1.00  0.00     0.049 A 
ATOM    109  H   UNL A   1      39.945  29.988  35.171  1.00  0.00     0.167 HD
ATOM    110  C   UNL A   1      38.229  30.514  32.749  1.00  0.00     0.074 A 
ATOM    111  C   UNL A   1      38.011  31.406  33.886  1.00  0.00    -0.034 C 
ATOM    112  H   UNL A   1      36.784  33.147  34.191  1.00  0.00     0.065 H 
ATOM    113  H   UNL A   1      42.015  28.536  32.034  1.00  0.00     0.065 H 
ATOM    114  C   UNL A   1      39.259  29.677  32.429  1.00  0.00     0.037 A 
ATOM    115  H   UNL A   1      38.459  31.284  34.808  1.00  0.00     0.065 H 
BRANCH  96 116
ATOM    116  C   UNL A   1      41.686  32.004  36.680  1.00  0.00     0.064 A 
ATOM    117  C   UNL A   1      40.510  32.734  36.957  1.00  0.00     0.173 A 
ATOM    118  C   UNL A   1      42.550  31.817  37.779  1.00  0.00     0.173 A 
ATOM    119  F   UNL A   1      39.606  32.972  35.994  1.00  0.00    -0.203 F 
ATOM    120  C   UNL A   1      40.281  33.330  38.201  1.00  0.00     0.198 A 
ATOM    121  C   UNL A   1      42.293  32.369  39.034  1.00  0.00     0.198 A 
ATOM    122  F   UNL A   1      43.727  31.192  37.667  1.00  0.00    -0.203 F 
ATOM    123  F   UNL A   1      39.222  34.134  38.368  1.00  0.00    -0.200 F 
ATOM    124  C   UNL A   1      41.180  33.158  39.235  1.00  0.00     0.200 A 
ATOM    125  F   UNL A   1      43.183  32.198  40.022  1.00  0.00    -0.200 F 
ATOM    126  F   UNL A   1      41.004  33.785  40.404  1.00  0.00    -0.200 F 
ENDBRANCH  96 116
BRANCH  99 127
ATOM    127  C   UNL A   1      35.381  33.955  31.242  1.00  0.00     0.064 A 
ATOM    128  C   UNL A   1      35.082  34.967  32.169  1.00  0.00     0.173 A 
ATOM    129  C   UNL A   1      34.534  33.858  30.122  1.00  0.00     0.173 A 
ATOM    130  F   UNL A   1      35.865  35.151  33.242  1.00  0.00    -0.203 F 
ATOM    131  C   UNL A   1      34.021  35.855  31.969  1.00  0.00     0.198 A 
ATOM    132  C   UNL A   1      33.474  34.745  29.924  1.00  0.00     0.198 A 
ATOM    133  F   UNL A   1      34.781  32.970  29.149  1.00  0.00    -0.203 F 
ATOM    134  F   UNL A   1      33.810  36.852  32.839  1.00  0.00    -0.200 F 
ATOM    135  C   UNL A   1      33.227  35.751  30.839  1.00  0.00     0.200 A 
ATOM    136  F   UNL A   1      32.738  34.667  28.809  1.00  0.00    -0.200 F 
ATOM    137  F   UNL A   1      32.254  36.643  30.609  1.00  0.00    -0.200 F 
ENDBRANCH  99 127
BRANCH 114 138
ATOM    138  C   UNL A   1      39.218  28.993  31.090  1.00  0.00     0.064 A 
ATOM    139  C   UNL A   1      39.686  29.565  29.894  1.00  0.00     0.173 A 
ATOM    140  C   UNL A   1      38.815  27.652  31.047  1.00  0.00     0.173 A 
ATOM    141  F   UNL A   1      40.182  30.808  29.869  1.00  0.00    -0.203 F 
ATOM    142  C   UNL A   1      39.705  28.840  28.704  1.00  0.00     0.198 A 
ATOM    143  C   UNL A   1      38.872  26.917  29.866  1.00  0.00     0.198 A 
ATOM    144  F   UNL A   1      38.409  27.035  32.168  1.00  0.00    -0.203 F 
ATOM    145  F   UNL A   1      40.142  29.414  27.573  1.00  0.00    -0.200 F 
ATOM    146  C   UNL A   1      39.305  27.513  28.693  1.00  0.00     0.200 A 
ATOM    147  F   UNL A   1      38.530  25.622  29.871  1.00  0.00    -0.200 F 
ATOM    148  F   UNL A   1      39.362  26.803  27.558  1.00  0.00    -0.200 F 
ENDBRANCH 114 138
ENDBRANCH  79  82
ENDBRANCH  69  72
ENDBRANCH  65  68
ENDBRANCH  62  65
ENDBRANCH  59  62
ENDBRANCH   1  59
TORSDOF 18
ENDMDL
MODEL 7
REMARK VINA RESULT:     -11.8      4.862      9.705
REMARK SMILES CC1(C)Cc2c(-c3ccccc3)c(-c3ccc(Cl)cc3)c(CC(=O)NCCCCCCNC(=O)c3ccc(-c4c5nc(c(-c6c(F)c(F)c(F)c(F)c6F)c6ccc([nH]6)c(-c6c(F)c(F)c(F)c(F)c6F)c6nc(c(-c7c(F)c(F)c(F)c(F)c7F)c7ccc4[nH]7)C=C6)C=C5)cc3)n2C1
REMARK SMILES IDX 28 1 27 4 26 7 25 10 23 11 24 12 22 14 21 17 2 18 4 19 99 20
REMARK SMILES IDX 5 21 98 24 6 27 13 28 1 29 3 33 7 37 8 38 12 39 9 40 11 42
REMARK SMILES IDX 10 44 14 48 15 49 20 50 16 51 19 53 17 55 18 58 29 59 30 62
REMARK SMILES IDX 31 65 32 68 33 69 34 71 35 72 36 73 97 74 37 75 96 77 38 79
REMARK SMILES IDX 39 82 40 83 90 84 41 85 95 86 89 87 91 88 42 89 94 90 88 92
REMARK SMILES IDX 87 94 43 96 75 99 55 100 74 101 56 102 59 103 73 104 92 105
REMARK SMILES IDX 57 106 58 108 72 110 93 111 60 114 44 116 45 117 53 118
REMARK SMILES IDX 46 119 47 120 51 121 54 122 48 123 49 124 52 125 50 126
REMARK SMILES IDX 76 127 77 128 85 129 78 130 79 131 83 132 86 133 80 134
REMARK SMILES IDX 81 135 84 136 82 137 61 138 62 139 70 140 63 141 64 142
REMARK SMILES IDX 68 143 71 144 65 145 66 146 69 147 67 148
REMARK H PARENT 28 2 28 3 27 5 27 6 26 8 26 9 25 13 22 15 22 16 4 22 4 23
REMARK H PARENT 99 25 99 26 1 30 1 31 1 32 3 34 3 35 3 36 8 41 12 43 9 45
REMARK H PARENT 11 46 10 47 15 52 20 54 16 56 19 57 29 60 29 61 30 63 30 64
REMARK H PARENT 31 66 31 67 32 70 36 76 97 78 37 80 96 81 95 91 89 93 91 95
REMARK H PARENT 94 97 88 98 56 107 59 109 92 112 57 113 93 115
REMARK Flexibility Score: inf
ROOT
ATOM      1  C   UNL A   1      43.468  24.523  24.952  1.00  0.00    -0.052 C 
ATOM      2  H   UNL A   1      43.075  24.801  23.997  1.00  0.00     0.027 H 
ATOM      3  H   UNL A   1      42.724  24.434  25.716  1.00  0.00     0.027 H 
ENDROOT
BRANCH   1   4
ATOM      4  C   UNL A   1      44.414  25.633  25.415  1.00  0.00    -0.036 C 
ATOM      5  H   UNL A   1      45.419  25.313  25.231  1.00  0.00     0.028 H 
ATOM      6  H   UNL A   1      44.146  26.509  24.861  1.00  0.00     0.028 H 
BRANCH   4   7
ATOM      7  C   UNL A   1      44.293  25.999  26.891  1.00  0.00     0.017 C 
ATOM      8  H   UNL A   1      45.187  26.503  27.195  1.00  0.00     0.049 H 
ATOM      9  H   UNL A   1      43.430  26.623  27.000  1.00  0.00     0.049 H 
BRANCH   7  10
ATOM     10  N   UNL A   1      44.105  24.844  27.737  1.00  0.00    -0.356 N 
ATOM     11  C   UNL A   1      44.098  24.769  29.102  1.00  0.00     0.225 C 
ATOM     12  O   UNL A   1      43.836  23.675  29.609  1.00  0.00    -0.275 OA
ATOM     13  H   UNL A   1      43.961  23.992  27.265  1.00  0.00     0.163 HD
BRANCH  11  14
ATOM     14  C   UNL A   1      44.318  26.007  29.960  1.00  0.00     0.068 C 
ATOM     15  H   UNL A   1      44.319  26.864  29.318  1.00  0.00     0.043 H 
ATOM     16  H   UNL A   1      43.526  26.026  30.679  1.00  0.00     0.043 H 
BRANCH  14  17
ATOM     17  C   UNL A   1      45.604  26.000  30.736  1.00  0.00     0.036 A 
ATOM     18  C   UNL A   1      45.453  26.072  34.435  1.00  0.00    -0.012 C 
ATOM     19  C   UNL A   1      46.927  25.716  34.055  1.00  0.00    -0.005 C 
ATOM     20  C   UNL A   1      44.637  25.732  33.153  1.00  0.00     0.028 C 
ATOM     21  C   UNL A   1      46.907  25.839  32.579  1.00  0.00     0.027 A 
ATOM     22  H   UNL A   1      47.176  24.720  34.359  1.00  0.00     0.034 H 
ATOM     23  H   UNL A   1      47.656  26.340  34.530  1.00  0.00     0.034 H 
ATOM     24  N   UNL A   1      45.633  25.851  32.093  1.00  0.00    -0.346 N 
ATOM     25  H   UNL A   1      43.837  26.426  33.008  1.00  0.00     0.050 H 
ATOM     26  H   UNL A   1      44.174  24.767  33.190  1.00  0.00     0.050 H 
ATOM     27  C   UNL A   1      47.767  25.968  31.524  1.00  0.00     0.011 A 
ATOM     28  C   UNL A   1      46.945  26.051  30.341  1.00  0.00     0.011 A 
BRANCH  18  29
ATOM     29  C   UNL A   1      44.964  25.262  35.635  1.00  0.00    -0.058 C 
ATOM     30  H   UNL A   1      45.518  24.349  35.699  1.00  0.00     0.024 H 
ATOM     31  H   UNL A   1      43.923  25.040  35.516  1.00  0.00     0.024 H 
ATOM     32  H   UNL A   1      45.107  25.830  36.531  1.00  0.00     0.024 H 
ENDBRANCH  18  29
BRANCH  18  33
ATOM     33  C   UNL A   1      45.353  27.572  34.774  1.00  0.00    -0.058 C 
ATOM     34  H   UNL A   1      45.379  27.700  35.836  1.00  0.00     0.024 H 
ATOM     35  H   UNL A   1      44.436  27.964  34.390  1.00  0.00     0.024 H 
ATOM     36  H   UNL A   1      46.177  28.092  34.332  1.00  0.00     0.024 H 
ENDBRANCH  18  33
BRANCH  27  37
ATOM     37  C   UNL A   1      49.210  26.026  31.642  1.00  0.00    -0.016 A 
ATOM     38  C   UNL A   1      49.964  24.857  31.781  1.00  0.00    -0.054 A 
ATOM     39  C   UNL A   1      49.861  27.261  31.545  1.00  0.00    -0.054 A 
ATOM     40  C   UNL A   1      51.357  24.927  31.812  1.00  0.00    -0.062 A 
ATOM     41  H   UNL A   1      49.490  23.943  31.862  1.00  0.00     0.063 H 
ATOM     42  C   UNL A   1      51.253  27.330  31.575  1.00  0.00    -0.062 A 
ATOM     43  H   UNL A   1      49.307  28.128  31.451  1.00  0.00     0.063 H 
ATOM     44  C   UNL A   1      51.999  26.161  31.704  1.00  0.00    -0.062 A 
ATOM     45  H   UNL A   1      51.914  24.063  31.916  1.00  0.00     0.062 H 
ATOM     46  H   UNL A   1      51.728  28.243  31.502  1.00  0.00     0.062 H 
ATOM     47  H   UNL A   1      53.030  26.208  31.720  1.00  0.00     0.062 H 
ENDBRANCH  27  37
BRANCH  28  48
ATOM     48  C   UNL A   1      47.437  26.143  28.971  1.00  0.00    -0.016 A 
ATOM     49  C   UNL A   1      47.453  27.389  28.328  1.00  0.00    -0.053 A 
ATOM     50  C   UNL A   1      47.730  24.993  28.230  1.00  0.00    -0.053 A 
ATOM     51  C   UNL A   1      47.752  27.483  26.965  1.00  0.00    -0.043 A 
ATOM     52  H   UNL A   1      47.243  28.244  28.865  1.00  0.00     0.063 H 
ATOM     53  C   UNL A   1      48.051  25.087  26.872  1.00  0.00    -0.043 A 
ATOM     54  H   UNL A   1      47.708  24.069  28.688  1.00  0.00     0.063 H 
ATOM     55  C   UNL A   1      48.049  26.330  26.244  1.00  0.00     0.041 A 
ATOM     56  H   UNL A   1      47.753  28.402  26.497  1.00  0.00     0.064 H 
ATOM     57  H   UNL A   1      48.288  24.236  26.337  1.00  0.00     0.064 H 
ATOM     58  Cl  UNL A   1      48.382  26.435  24.559  1.00  0.00    -0.084 Cl
ENDBRANCH  28  48
ENDBRANCH  14  17
ENDBRANCH  11  14
ENDBRANCH   7  10
ENDBRANCH   4   7
ENDBRANCH   1   4
BRANCH   1  59
ATOM     59  C   UNL A   1      44.098  23.128  24.815  1.00  0.00    -0.052 C 
ATOM     60  H   UNL A   1      44.939  23.085  25.475  1.00  0.00     0.027 H 
ATOM     61  H   UNL A   1      44.343  23.028  23.778  1.00  0.00     0.027 H 
BRANCH  59  62
ATOM     62  C   UNL A   1      43.189  21.932  25.137  1.00  0.00    -0.036 C 
ATOM     63  H   UNL A   1      43.807  21.086  25.355  1.00  0.00     0.028 H 
ATOM     64  H   UNL A   1      42.566  21.775  24.282  1.00  0.00     0.028 H 
BRANCH  62  65
ATOM     65  C   UNL A   1      42.263  22.165  26.320  1.00  0.00     0.018 C 
ATOM     66  H   UNL A   1      42.509  23.105  26.769  1.00  0.00     0.049 H 
ATOM     67  H   UNL A   1      42.398  21.357  27.007  1.00  0.00     0.049 H 
BRANCH  65  68
ATOM     68  N   UNL A   1      40.860  22.188  25.927  1.00  0.00    -0.352 N 
ATOM     69  C   UNL A   1      39.881  23.086  26.298  1.00  0.00     0.251 C 
ATOM     70  H   UNL A   1      40.572  21.469  25.318  1.00  0.00     0.163 HD
ATOM     71  O   UNL A   1      38.698  22.807  26.188  1.00  0.00    -0.269 OA
BRANCH  69  72
ATOM     72  C   UNL A   1      40.288  24.390  26.852  1.00  0.00     0.039 A 
ATOM     73  C   UNL A   1      40.412  25.502  26.016  1.00  0.00    -0.049 A 
ATOM     74  C   UNL A   1      40.537  24.497  28.219  1.00  0.00    -0.049 A 
ATOM     75  C   UNL A   1      40.709  26.738  26.581  1.00  0.00    -0.053 A 
ATOM     76  H   UNL A   1      40.284  25.408  24.996  1.00  0.00     0.063 H 
ATOM     77  C   UNL A   1      40.708  25.736  28.792  1.00  0.00    -0.053 A 
ATOM     78  H   UNL A   1      40.595  23.647  28.802  1.00  0.00     0.063 H 
ATOM     79  C   UNL A   1      40.832  26.856  27.976  1.00  0.00    -0.014 A 
ATOM     80  H   UNL A   1      40.839  27.566  25.978  1.00  0.00     0.063 H 
ATOM     81  H   UNL A   1      40.743  25.835  29.818  1.00  0.00     0.063 H 
BRANCH  79  82
ATOM     82  C   UNL A   1      40.988  28.175  28.582  1.00  0.00     0.031 A 
ATOM     83  C   UNL A   1      42.204  28.925  28.160  1.00  0.00     0.074 A 
ATOM     84  C   UNL A   1      40.037  28.779  29.324  1.00  0.00     0.049 A 
ATOM     85  N   UNL A   1      43.206  29.288  28.894  1.00  0.00    -0.248 NA
ATOM     86  C   UNL A   1      42.378  29.222  26.730  1.00  0.00    -0.034 C 
ATOM     87  C   UNL A   1      38.660  28.344  29.584  1.00  0.00    -0.036 A 
ATOM     88  N   UNL A   1      40.090  29.991  29.944  1.00  0.00    -0.354 N 
ATOM     89  C   UNL A   1      44.068  29.999  28.061  1.00  0.00     0.074 A 
ATOM     90  C   UNL A   1      43.578  29.807  26.721  1.00  0.00    -0.034 C 
ATOM     91  H   UNL A   1      41.740  29.029  25.942  1.00  0.00     0.065 H 
ATOM     92  C   UNL A   1      37.953  29.369  30.109  1.00  0.00    -0.036 A 
ATOM     93  H   UNL A   1      38.288  27.400  29.394  1.00  0.00     0.065 H 
ATOM     94  C   UNL A   1      38.863  30.464  30.388  1.00  0.00     0.049 A 
ATOM     95  H   UNL A   1      40.930  30.489  30.067  1.00  0.00     0.167 HD
ATOM     96  C   UNL A   1      44.999  30.851  28.578  1.00  0.00     0.037 A 
ATOM     97  H   UNL A   1      44.087  30.085  25.867  1.00  0.00     0.065 H 
ATOM     98  H   UNL A   1      36.936  29.373  30.283  1.00  0.00     0.065 H 
ATOM     99  C   UNL A   1      38.612  31.679  30.931  1.00  0.00     0.037 A 
ATOM    100  C   UNL A   1      45.223  30.579  29.976  1.00  0.00     0.049 A 
ATOM    101  C   UNL A   1      39.902  32.220  31.422  1.00  0.00     0.074 A 
ATOM    102  C   UNL A   1      45.675  29.490  30.695  1.00  0.00    -0.036 A 
ATOM    103  N   UNL A   1      44.623  31.403  30.897  1.00  0.00    -0.354 N 
ATOM    104  N   UNL A   1      40.562  31.726  32.431  1.00  0.00    -0.248 NA
ATOM    105  C   UNL A   1      40.676  33.052  30.515  1.00  0.00    -0.034 C 
ATOM    106  C   UNL A   1      44.888  29.482  31.886  1.00  0.00    -0.036 A 
ATOM    107  H   UNL A   1      46.419  28.826  30.429  1.00  0.00     0.065 H 
ATOM    108  C   UNL A   1      44.053  30.600  31.850  1.00  0.00     0.049 A 
ATOM    109  H   UNL A   1      44.607  32.387  30.877  1.00  0.00     0.167 HD
ATOM    110  C   UNL A   1      41.892  31.810  32.053  1.00  0.00     0.074 A 
ATOM    111  C   UNL A   1      41.907  32.728  30.918  1.00  0.00    -0.034 C 
ATOM    112  H   UNL A   1      40.365  33.703  29.777  1.00  0.00     0.065 H 
ATOM    113  H   UNL A   1      44.929  28.778  32.639  1.00  0.00     0.065 H 
ATOM    114  C   UNL A   1      42.811  30.911  32.515  1.00  0.00     0.037 A 
ATOM    115  H   UNL A   1      42.770  33.086  30.478  1.00  0.00     0.065 H 
BRANCH  96 116
ATOM    116  C   UNL A   1      45.440  32.152  27.941  1.00  0.00     0.064 A 
ATOM    117  C   UNL A   1      44.462  33.122  27.626  1.00  0.00     0.173 A 
ATOM    118  C   UNL A   1      46.702  32.356  27.345  1.00  0.00     0.173 A 
ATOM    119  F   UNL A   1      43.224  33.040  28.138  1.00  0.00    -0.203 F 
ATOM    120  C   UNL A   1      44.697  34.139  26.697  1.00  0.00     0.198 A 
ATOM    121  C   UNL A   1      46.948  33.404  26.457  1.00  0.00     0.198 A 
ATOM    122  F   UNL A   1      47.716  31.500  27.502  1.00  0.00    -0.203 F 
ATOM    123  F   UNL A   1      43.693  34.944  26.324  1.00  0.00    -0.200 F 
ATOM    124  C   UNL A   1      45.937  34.271  26.103  1.00  0.00     0.200 A 
ATOM    125  F   UNL A   1      48.156  33.510  25.885  1.00  0.00    -0.200 F 
ATOM    126  F   UNL A   1      46.146  35.197  25.158  1.00  0.00    -0.200 F 
ENDBRANCH  96 116
BRANCH  99 127
ATOM    127  C   UNL A   1      37.396  32.515  30.822  1.00  0.00     0.064 A 
ATOM    128  C   UNL A   1      37.104  33.216  29.641  1.00  0.00     0.173 A 
ATOM    129  C   UNL A   1      36.355  32.406  31.763  1.00  0.00     0.173 A 
ATOM    130  F   UNL A   1      38.029  33.329  28.677  1.00  0.00    -0.203 F 
ATOM    131  C   UNL A   1      35.833  33.744  29.397  1.00  0.00     0.198 A 
ATOM    132  C   UNL A   1      35.087  32.936  31.519  1.00  0.00     0.198 A 
ATOM    133  F   UNL A   1      36.518  31.697  32.889  1.00  0.00    -0.203 F 
ATOM    134  F   UNL A   1      35.570  34.345  28.228  1.00  0.00    -0.200 F 
ATOM    135  C   UNL A   1      34.822  33.592  30.331  1.00  0.00     0.200 A 
ATOM    136  F   UNL A   1      34.102  32.746  32.406  1.00  0.00    -0.200 F 
ATOM    137  F   UNL A   1      33.584  34.034  30.071  1.00  0.00    -0.200 F 
ENDBRANCH  99 127
BRANCH 114 138
ATOM    138  C   UNL A   1      42.407  30.015  33.653  1.00  0.00     0.064 A 
ATOM    139  C   UNL A   1      41.881  28.721  33.495  1.00  0.00     0.173 A 
ATOM    140  C   UNL A   1      42.695  30.437  34.958  1.00  0.00     0.173 A 
ATOM    141  F   UNL A   1      41.670  28.204  32.278  1.00  0.00    -0.203 F 
ATOM    142  C   UNL A   1      41.616  27.908  34.595  1.00  0.00     0.198 A 
ATOM    143  C   UNL A   1      42.467  29.608  36.053  1.00  0.00     0.198 A 
ATOM    144  F   UNL A   1      43.249  31.642  35.169  1.00  0.00    -0.203 F 
ATOM    145  F   UNL A   1      41.099  26.683  34.418  1.00  0.00    -0.200 F 
ATOM    146  C   UNL A   1      41.916  28.350  35.873  1.00  0.00     0.200 A 
ATOM    147  F   UNL A   1      42.805  30.022  37.282  1.00  0.00    -0.200 F 
ATOM    148  F   UNL A   1      41.700  27.553  36.930  1.00  0.00    -0.200 F 
ENDBRANCH 114 138
ENDBRANCH  79  82
ENDBRANCH  69  72
ENDBRANCH  65  68
ENDBRANCH  62  65
ENDBRANCH  59  62
ENDBRANCH   1  59
TORSDOF 18
ENDMDL
MODEL 8
REMARK VINA RESULT:     -11.7      5.833     11.631
REMARK SMILES CC1(C)Cc2c(-c3ccccc3)c(-c3ccc(Cl)cc3)c(CC(=O)NCCCCCCNC(=O)c3ccc(-c4c5nc(c(-c6c(F)c(F)c(F)c(F)c6F)c6ccc([nH]6)c(-c6c(F)c(F)c(F)c(F)c6F)c6nc(c(-c7c(F)c(F)c(F)c(F)c7F)c7ccc4[nH]7)C=C6)C=C5)cc3)n2C1
REMARK SMILES IDX 28 1 27 4 26 7 25 10 23 11 24 12 22 14 21 17 2 18 4 19 99 20
REMARK SMILES IDX 5 21 98 24 6 27 13 28 1 29 3 33 7 37 8 38 12 39 9 40 11 42
REMARK SMILES IDX 10 44 14 48 15 49 20 50 16 51 19 53 17 55 18 58 29 59 30 62
REMARK SMILES IDX 31 65 32 68 33 69 34 71 35 72 36 73 97 74 37 75 96 77 38 79
REMARK SMILES IDX 39 82 40 83 90 84 41 85 95 86 89 87 91 88 42 89 94 90 88 92
REMARK SMILES IDX 87 94 43 96 75 99 55 100 74 101 56 102 59 103 73 104 92 105
REMARK SMILES IDX 57 106 58 108 72 110 93 111 60 114 44 116 45 117 53 118
REMARK SMILES IDX 46 119 47 120 51 121 54 122 48 123 49 124 52 125 50 126
REMARK SMILES IDX 76 127 77 128 85 129 78 130 79 131 83 132 86 133 80 134
REMARK SMILES IDX 81 135 84 136 82 137 61 138 62 139 70 140 63 141 64 142
REMARK SMILES IDX 68 143 71 144 65 145 66 146 69 147 67 148
REMARK H PARENT 28 2 28 3 27 5 27 6 26 8 26 9 25 13 22 15 22 16 4 22 4 23
REMARK H PARENT 99 25 99 26 1 30 1 31 1 32 3 34 3 35 3 36 8 41 12 43 9 45
REMARK H PARENT 11 46 10 47 15 52 20 54 16 56 19 57 29 60 29 61 30 63 30 64
REMARK H PARENT 31 66 31 67 32 70 36 76 97 78 37 80 96 81 95 91 89 93 91 95
REMARK H PARENT 94 97 88 98 56 107 59 109 92 112 57 113 93 115
REMARK Flexibility Score: inf
ROOT
ATOM      1  C   UNL A   1      43.690  31.953  26.836  1.00  0.00    -0.052 C 
ATOM      2  H   UNL A   1      42.992  32.731  27.068  1.00  0.00     0.027 H 
ATOM      3  H   UNL A   1      43.396  31.341  26.011  1.00  0.00     0.027 H 
ENDROOT
BRANCH   1   4
ATOM      4  C   UNL A   1      43.771  31.018  28.046  1.00  0.00    -0.036 C 
ATOM      5  H   UNL A   1      44.804  30.868  28.283  1.00  0.00     0.028 H 
ATOM      6  H   UNL A   1      43.225  31.494  28.833  1.00  0.00     0.028 H 
BRANCH   4   7
ATOM      7  C   UNL A   1      43.126  29.651  27.835  1.00  0.00     0.017 C 
ATOM      8  H   UNL A   1      43.766  28.902  28.256  1.00  0.00     0.049 H 
ATOM      9  H   UNL A   1      42.169  29.667  28.314  1.00  0.00     0.049 H 
BRANCH   7  10
ATOM     10  N   UNL A   1      42.911  29.344  26.442  1.00  0.00    -0.356 N 
ATOM     11  C   UNL A   1      42.971  28.136  25.807  1.00  0.00     0.225 C 
ATOM     12  O   UNL A   1      42.667  28.107  24.611  1.00  0.00    -0.275 OA
ATOM     13  H   UNL A   1      42.690  30.114  25.868  1.00  0.00     0.163 HD
BRANCH  11  14
ATOM     14  C   UNL A   1      43.313  26.862  26.568  1.00  0.00     0.068 C 
ATOM     15  H   UNL A   1      43.267  27.076  27.616  1.00  0.00     0.043 H 
ATOM     16  H   UNL A   1      42.602  26.123  26.262  1.00  0.00     0.043 H 
BRANCH  14  17
ATOM     17  C   UNL A   1      44.673  26.305  26.260  1.00  0.00     0.036 A 
ATOM     18  C   UNL A   1      44.914  22.978  24.652  1.00  0.00    -0.012 C 
ATOM     19  C   UNL A   1      46.336  23.622  24.561  1.00  0.00    -0.005 C 
ATOM     20  C   UNL A   1      43.964  24.188  24.896  1.00  0.00     0.028 C 
ATOM     21  C   UNL A   1      46.161  24.873  25.336  1.00  0.00     0.027 A 
ATOM     22  H   UNL A   1      46.605  23.828  23.546  1.00  0.00     0.034 H 
ATOM     23  H   UNL A   1      47.118  22.992  24.932  1.00  0.00     0.034 H 
ATOM     24  N   UNL A   1      44.844  25.173  25.517  1.00  0.00    -0.346 N 
ATOM     25  H   UNL A   1      43.161  23.923  25.550  1.00  0.00     0.050 H 
ATOM     26  H   UNL A   1      43.496  24.545  24.001  1.00  0.00     0.050 H 
ATOM     27  C   UNL A   1      46.907  25.836  25.958  1.00  0.00     0.011 A 
ATOM     28  C   UNL A   1      45.966  26.766  26.534  1.00  0.00     0.011 A 
BRANCH  18  29
ATOM     29  C   UNL A   1      44.545  22.232  23.370  1.00  0.00    -0.058 C 
ATOM     30  H   UNL A   1      44.756  22.851  22.524  1.00  0.00     0.024 H 
ATOM     31  H   UNL A   1      43.503  21.990  23.386  1.00  0.00     0.024 H 
ATOM     32  H   UNL A   1      45.120  21.331  23.305  1.00  0.00     0.024 H 
ENDBRANCH  18  29
BRANCH  18  33
ATOM     33  C   UNL A   1      44.868  21.990  25.833  1.00  0.00    -0.058 C 
ATOM     34  H   UNL A   1      45.403  22.401  26.664  1.00  0.00     0.024 H 
ATOM     35  H   UNL A   1      45.317  21.065  25.542  1.00  0.00     0.024 H 
ATOM     36  H   UNL A   1      43.850  21.820  26.115  1.00  0.00     0.024 H 
ENDBRANCH  18  33
BRANCH  27  37
ATOM     37  C   UNL A   1      48.355  25.849  26.011  1.00  0.00    -0.016 A 
ATOM     38  C   UNL A   1      49.037  25.251  27.074  1.00  0.00    -0.054 A 
ATOM     39  C   UNL A   1      49.078  26.406  24.950  1.00  0.00    -0.054 A 
ATOM     40  C   UNL A   1      50.432  25.203  27.067  1.00  0.00    -0.062 A 
ATOM     41  H   UNL A   1      48.510  24.847  27.864  1.00  0.00     0.063 H 
ATOM     42  C   UNL A   1      50.471  26.357  24.943  1.00  0.00    -0.062 A 
ATOM     43  H   UNL A   1      48.578  26.856  24.167  1.00  0.00     0.063 H 
ATOM     44  C   UNL A   1      51.146  25.751  26.000  1.00  0.00    -0.062 A 
ATOM     45  H   UNL A   1      50.936  24.762  27.853  1.00  0.00     0.062 H 
ATOM     46  H   UNL A   1      51.000  26.767  24.158  1.00  0.00     0.062 H 
ATOM     47  H   UNL A   1      52.178  25.707  25.995  1.00  0.00     0.062 H 
ENDBRANCH  27  37
BRANCH  28  48
ATOM     48  C   UNL A   1      46.311  27.988  27.252  1.00  0.00    -0.016 A 
ATOM     49  C   UNL A   1      46.808  29.087  26.539  1.00  0.00    -0.053 A 
ATOM     50  C   UNL A   1      46.317  28.027  28.650  1.00  0.00    -0.053 A 
ATOM     51  C   UNL A   1      47.309  30.205  27.213  1.00  0.00    -0.043 A 
ATOM     52  H   UNL A   1      46.804  29.072  25.507  1.00  0.00     0.063 H 
ATOM     53  C   UNL A   1      46.796  29.152  29.327  1.00  0.00    -0.043 A 
ATOM     54  H   UNL A   1      45.965  27.219  29.187  1.00  0.00     0.063 H 
ATOM     55  C   UNL A   1      47.300  30.232  28.605  1.00  0.00     0.041 A 
ATOM     56  H   UNL A   1      47.682  31.007  26.682  1.00  0.00     0.064 H 
ATOM     57  H   UNL A   1      46.776  29.184  30.358  1.00  0.00     0.064 H 
ATOM     58  Cl  UNL A   1      47.948  31.589  29.441  1.00  0.00    -0.084 Cl
ENDBRANCH  28  48
ENDBRANCH  14  17
ENDBRANCH  11  14
ENDBRANCH   7  10
ENDBRANCH   4   7
ENDBRANCH   1   4
BRANCH   1  59
ATOM     59  C   UNL A   1      45.013  32.616  26.420  1.00  0.00    -0.052 C 
ATOM     60  H   UNL A   1      45.711  31.836  26.199  1.00  0.00     0.027 H 
ATOM     61  H   UNL A   1      45.289  33.239  27.245  1.00  0.00     0.027 H 
BRANCH  59  62
ATOM     62  C   UNL A   1      44.956  33.550  25.202  1.00  0.00    -0.036 C 
ATOM     63  H   UNL A   1      44.371  33.078  24.440  1.00  0.00     0.028 H 
ATOM     64  H   UNL A   1      45.966  33.724  24.895  1.00  0.00     0.028 H 
BRANCH  62  65
ATOM     65  C   UNL A   1      44.345  34.910  25.499  1.00  0.00     0.018 C 
ATOM     66  H   UNL A   1      43.508  34.776  26.152  1.00  0.00     0.049 H 
ATOM     67  H   UNL A   1      44.049  35.348  24.569  1.00  0.00     0.049 H 
BRANCH  65  68
ATOM     68  N   UNL A   1      45.294  35.815  26.136  1.00  0.00    -0.352 N 
ATOM     69  C   UNL A   1      45.186  36.449  27.356  1.00  0.00     0.251 C 
ATOM     70  H   UNL A   1      46.119  35.998  25.630  1.00  0.00     0.163 HD
ATOM     71  O   UNL A   1      45.865  37.428  27.617  1.00  0.00    -0.269 OA
BRANCH  69  72
ATOM     72  C   UNL A   1      44.217  35.932  28.340  1.00  0.00     0.039 A 
ATOM     73  C   UNL A   1      42.949  36.508  28.448  1.00  0.00    -0.049 A 
ATOM     74  C   UNL A   1      44.583  34.859  29.151  1.00  0.00    -0.049 A 
ATOM     75  C   UNL A   1      42.026  35.941  29.321  1.00  0.00    -0.053 A 
ATOM     76  H   UNL A   1      42.701  37.339  27.889  1.00  0.00     0.063 H 
ATOM     77  C   UNL A   1      43.635  34.224  29.920  1.00  0.00    -0.053 A 
ATOM     78  H   UNL A   1      45.565  34.541  29.175  1.00  0.00     0.063 H 
ATOM     79  C   UNL A   1      42.366  34.781  30.038  1.00  0.00    -0.014 A 
ATOM     80  H   UNL A   1      41.095  36.370  29.441  1.00  0.00     0.063 H 
ATOM     81  H   UNL A   1      43.863  33.342  30.403  1.00  0.00     0.063 H 
BRANCH  79  82
ATOM     82  C   UNL A   1      41.350  34.095  30.834  1.00  0.00     0.031 A 
ATOM     83  C   UNL A   1      41.768  33.736  32.218  1.00  0.00     0.074 A 
ATOM     84  C   UNL A   1      40.067  33.947  30.447  1.00  0.00     0.049 A 
ATOM     85  N   UNL A   1      41.900  32.553  32.724  1.00  0.00    -0.248 NA
ATOM     86  C   UNL A   1      42.188  34.819  33.122  1.00  0.00    -0.034 C 
ATOM     87  C   UNL A   1      39.390  34.507  29.273  1.00  0.00    -0.036 A 
ATOM     88  N   UNL A   1      39.055  33.313  31.103  1.00  0.00    -0.354 N 
ATOM     89  C   UNL A   1      42.265  32.732  34.058  1.00  0.00     0.074 A 
ATOM     90  C   UNL A   1      42.560  34.134  34.206  1.00  0.00    -0.034 C 
ATOM     91  H   UNL A   1      42.192  35.838  32.960  1.00  0.00     0.065 H 
ATOM     92  C   UNL A   1      38.053  34.378  29.417  1.00  0.00    -0.036 A 
ATOM     93  H   UNL A   1      39.863  34.934  28.461  1.00  0.00     0.065 H 
ATOM     94  C   UNL A   1      37.790  33.573  30.596  1.00  0.00     0.049 A 
ATOM     95  H   UNL A   1      39.209  32.720  31.873  1.00  0.00     0.167 HD
ATOM     96  C   UNL A   1      42.096  31.735  34.971  1.00  0.00     0.037 A 
ATOM     97  H   UNL A   1      43.001  34.554  35.040  1.00  0.00     0.065 H 
ATOM     98  H   UNL A   1      37.337  34.783  28.794  1.00  0.00     0.065 H 
ATOM     99  C   UNL A   1      36.608  33.169  31.119  1.00  0.00     0.037 A 
ATOM    100  C   UNL A   1      41.926  30.462  34.315  1.00  0.00     0.049 A 
ATOM    101  C   UNL A   1      36.890  32.020  32.013  1.00  0.00     0.074 A 
ATOM    102  C   UNL A   1      42.700  29.692  33.470  1.00  0.00    -0.036 A 
ATOM    103  N   UNL A   1      40.653  29.958  34.208  1.00  0.00    -0.354 N 
ATOM    104  N   UNL A   1      37.288  30.852  31.594  1.00  0.00    -0.248 NA
ATOM    105  C   UNL A   1      37.141  32.300  33.417  1.00  0.00    -0.034 C 
ATOM    106  C   UNL A   1      41.778  29.122  32.542  1.00  0.00    -0.036 A 
ATOM    107  H   UNL A   1      43.723  29.558  33.502  1.00  0.00     0.065 H 
ATOM    108  C   UNL A   1      40.495  29.526  32.917  1.00  0.00     0.049 A 
ATOM    109  H   UNL A   1      39.979  29.914  34.924  1.00  0.00     0.167 HD
ATOM    110  C   UNL A   1      38.217  30.441  32.537  1.00  0.00     0.074 A 
ATOM    111  C   UNL A   1      38.006  31.319  33.685  1.00  0.00    -0.034 C 
ATOM    112  H   UNL A   1      36.762  33.041  34.028  1.00  0.00     0.065 H 
ATOM    113  H   UNL A   1      42.015  28.520  31.739  1.00  0.00     0.065 H 
ATOM    114  C   UNL A   1      39.252  29.621  32.191  1.00  0.00     0.037 A 
ATOM    115  H   UNL A   1      38.471  31.194  34.599  1.00  0.00     0.065 H 
BRANCH  96 116
ATOM    116  C   UNL A   1      41.719  31.937  36.424  1.00  0.00     0.064 A 
ATOM    117  C   UNL A   1      40.570  32.699  36.730  1.00  0.00     0.173 A 
ATOM    118  C   UNL A   1      42.587  31.697  37.510  1.00  0.00     0.173 A 
ATOM    119  F   UNL A   1      39.665  32.988  35.781  1.00  0.00    -0.203 F 
ATOM    120  C   UNL A   1      40.372  33.274  37.989  1.00  0.00     0.198 A 
ATOM    121  C   UNL A   1      42.360  32.229  38.779  1.00  0.00     0.198 A 
ATOM    122  F   UNL A   1      43.741  31.037  37.373  1.00  0.00    -0.203 F 
ATOM    123  F   UNL A   1      39.343  34.108  38.185  1.00  0.00    -0.200 F 
ATOM    124  C   UNL A   1      41.275  33.049  39.009  1.00  0.00     0.200 A 
ATOM    125  F   UNL A   1      43.253  32.007  39.754  1.00  0.00    -0.200 F 
ATOM    126  F   UNL A   1      41.131  33.656  40.194  1.00  0.00    -0.200 F 
ENDBRANCH  96 116
BRANCH  99 127
ATOM    127  C   UNL A   1      35.299  33.860  31.112  1.00  0.00     0.064 A 
ATOM    128  C   UNL A   1      34.971  34.798  32.103  1.00  0.00     0.173 A 
ATOM    129  C   UNL A   1      34.472  33.832  29.973  1.00  0.00     0.173 A 
ATOM    130  F   UNL A   1      35.734  34.915  33.200  1.00  0.00    -0.203 F 
ATOM    131  C   UNL A   1      33.901  35.684  31.949  1.00  0.00     0.198 A 
ATOM    132  C   UNL A   1      33.403  34.716  29.822  1.00  0.00     0.198 A 
ATOM    133  F   UNL A   1      34.747  33.018  28.944  1.00  0.00    -0.203 F 
ATOM    134  F   UNL A   1      33.661  36.614  32.884  1.00  0.00    -0.200 F 
ATOM    135  C   UNL A   1      33.126  35.651  30.802  1.00  0.00     0.200 A 
ATOM    136  F   UNL A   1      32.685  34.708  28.691  1.00  0.00    -0.200 F 
ATOM    137  F   UNL A   1      32.145  36.544  30.619  1.00  0.00    -0.200 F 
ENDBRANCH  99 127
BRANCH 114 138
ATOM    138  C   UNL A   1      39.197  28.950  30.846  1.00  0.00     0.064 A 
ATOM    139  C   UNL A   1      39.559  29.569  29.637  1.00  0.00     0.173 A 
ATOM    140  C   UNL A   1      38.898  27.582  30.804  1.00  0.00     0.173 A 
ATOM    141  F   UNL A   1      39.955  30.847  29.605  1.00  0.00    -0.203 F 
ATOM    142  C   UNL A   1      39.575  28.860  28.437  1.00  0.00     0.198 A 
ATOM    143  C   UNL A   1      38.953  26.866  29.611  1.00  0.00     0.198 A 
ATOM    144  F   UNL A   1      38.598  26.923  31.934  1.00  0.00    -0.203 F 
ATOM    145  F   UNL A   1      39.908  29.478  27.294  1.00  0.00    -0.200 F 
ATOM    146  C   UNL A   1      39.279  27.506  28.427  1.00  0.00     0.200 A 
ATOM    147  F   UNL A   1      38.714  25.548  29.615  1.00  0.00    -0.200 F 
ATOM    148  F   UNL A   1      39.334  26.814  27.280  1.00  0.00    -0.200 F 
ENDBRANCH 114 138
ENDBRANCH  79  82
ENDBRANCH  69  72
ENDBRANCH  65  68
ENDBRANCH  62  65
ENDBRANCH  59  62
ENDBRANCH   1  59
TORSDOF 18
ENDMDL
MODEL 9
REMARK VINA RESULT:     -11.7      4.594      9.590
REMARK SMILES CC1(C)Cc2c(-c3ccccc3)c(-c3ccc(Cl)cc3)c(CC(=O)NCCCCCCNC(=O)c3ccc(-c4c5nc(c(-c6c(F)c(F)c(F)c(F)c6F)c6ccc([nH]6)c(-c6c(F)c(F)c(F)c(F)c6F)c6nc(c(-c7c(F)c(F)c(F)c(F)c7F)c7ccc4[nH]7)C=C6)C=C5)cc3)n2C1
REMARK SMILES IDX 28 1 27 4 26 7 25 10 23 11 24 12 22 14 21 17 2 18 4 19 99 20
REMARK SMILES IDX 5 21 98 24 6 27 13 28 1 29 3 33 7 37 8 38 12 39 9 40 11 42
REMARK SMILES IDX 10 44 14 48 15 49 20 50 16 51 19 53 17 55 18 58 29 59 30 62
REMARK SMILES IDX 31 65 32 68 33 69 34 71 35 72 36 73 97 74 37 75 96 77 38 79
REMARK SMILES IDX 39 82 40 83 90 84 41 85 95 86 89 87 91 88 42 89 94 90 88 92
REMARK SMILES IDX 87 94 43 96 75 99 55 100 74 101 56 102 59 103 73 104 92 105
REMARK SMILES IDX 57 106 58 108 72 110 93 111 60 114 44 116 45 117 53 118
REMARK SMILES IDX 46 119 47 120 51 121 54 122 48 123 49 124 52 125 50 126
REMARK SMILES IDX 76 127 77 128 85 129 78 130 79 131 83 132 86 133 80 134
REMARK SMILES IDX 81 135 84 136 82 137 61 138 62 139 70 140 63 141 64 142
REMARK SMILES IDX 68 143 71 144 65 145 66 146 69 147 67 148
REMARK H PARENT 28 2 28 3 27 5 27 6 26 8 26 9 25 13 22 15 22 16 4 22 4 23
REMARK H PARENT 99 25 99 26 1 30 1 31 1 32 3 34 3 35 3 36 8 41 12 43 9 45
REMARK H PARENT 11 46 10 47 15 52 20 54 16 56 19 57 29 60 29 61 30 63 30 64
REMARK H PARENT 31 66 31 67 32 70 36 76 97 78 37 80 96 81 95 91 89 93 91 95
REMARK H PARENT 94 97 88 98 56 107 59 109 92 112 57 113 93 115
REMARK Flexibility Score: inf
ROOT
ATOM      1  C   UNL A   1      43.075  23.133  24.907  1.00  0.00    -0.052 C 
ATOM      2  H   UNL A   1      43.719  22.872  24.094  1.00  0.00     0.027 H 
ATOM      3  H   UNL A   1      42.036  23.121  24.656  1.00  0.00     0.027 H 
ENDROOT
BRANCH   1   4
ATOM      4  C   UNL A   1      43.393  24.573  25.316  1.00  0.00    -0.036 C 
ATOM      5  H   UNL A   1      42.647  25.213  24.891  1.00  0.00     0.028 H 
ATOM      6  H   UNL A   1      43.400  24.590  26.386  1.00  0.00     0.028 H 
BRANCH   4   7
ATOM      7  C   UNL A   1      44.762  25.074  24.865  1.00  0.00     0.017 C 
ATOM      8  H   UNL A   1      45.508  24.662  25.512  1.00  0.00     0.049 H 
ATOM      9  H   UNL A   1      44.903  24.762  23.851  1.00  0.00     0.049 H 
BRANCH   7  10
ATOM     10  N   UNL A   1      44.868  26.513  24.897  1.00  0.00    -0.356 N 
ATOM     11  C   UNL A   1      45.989  27.293  24.948  1.00  0.00     0.225 C 
ATOM     12  O   UNL A   1      45.833  28.515  24.886  1.00  0.00    -0.275 OA
ATOM     13  H   UNL A   1      44.013  27.001  24.880  1.00  0.00     0.163 HD
BRANCH  11  14
ATOM     14  C   UNL A   1      47.379  26.673  24.991  1.00  0.00     0.068 C 
ATOM     15  H   UNL A   1      47.295  25.643  24.711  1.00  0.00     0.043 H 
ATOM     16  H   UNL A   1      47.987  27.239  24.317  1.00  0.00     0.043 H 
BRANCH  14  17
ATOM     17  C   UNL A   1      48.045  26.742  26.335  1.00  0.00     0.036 A 
ATOM     18  C   UNL A   1      51.470  28.131  26.557  1.00  0.00    -0.012 C 
ATOM     19  C   UNL A   1      50.931  28.035  28.022  1.00  0.00    -0.005 C 
ATOM     20  C   UNL A   1      50.185  28.094  25.677  1.00  0.00     0.028 C 
ATOM     21  C   UNL A   1      49.627  27.358  27.830  1.00  0.00     0.027 A 
ATOM     22  H   UNL A   1      50.805  29.006  28.453  1.00  0.00     0.034 H 
ATOM     23  H   UNL A   1      51.590  27.520  28.689  1.00  0.00     0.034 H 
ATOM     24  N   UNL A   1      49.228  27.394  26.528  1.00  0.00    -0.346 N 
ATOM     25  H   UNL A   1      50.356  27.558  24.767  1.00  0.00     0.050 H 
ATOM     26  H   UNL A   1      49.851  29.066  25.376  1.00  0.00     0.050 H 
ATOM     27  C   UNL A   1      48.682  26.676  28.546  1.00  0.00     0.011 A 
ATOM     28  C   UNL A   1      47.658  26.296  27.604  1.00  0.00     0.011 A 
BRANCH  18  29
ATOM     29  C   UNL A   1      52.264  29.417  26.327  1.00  0.00    -0.058 C 
ATOM     30  H   UNL A   1      52.088  29.772  25.334  1.00  0.00     0.024 H 
ATOM     31  H   UNL A   1      53.308  29.219  26.455  1.00  0.00     0.024 H 
ATOM     32  H   UNL A   1      51.953  30.159  27.032  1.00  0.00     0.024 H 
ENDBRANCH  18  29
BRANCH  18  33
ATOM     33  C   UNL A   1      52.380  26.925  26.261  1.00  0.00    -0.058 C 
ATOM     34  H   UNL A   1      51.785  26.040  26.175  1.00  0.00     0.024 H 
ATOM     35  H   UNL A   1      53.085  26.805  27.056  1.00  0.00     0.024 H 
ATOM     36  H   UNL A   1      52.904  27.091  25.342  1.00  0.00     0.024 H 
ENDBRANCH  18  33
BRANCH  27  37
ATOM     37  C   UNL A   1      48.766  26.404  29.968  1.00  0.00    -0.016 A 
ATOM     38  C   UNL A   1      47.888  27.018  30.866  1.00  0.00    -0.054 A 
ATOM     39  C   UNL A   1      49.690  25.463  30.436  1.00  0.00    -0.054 A 
ATOM     40  C   UNL A   1      47.931  26.682  32.220  1.00  0.00    -0.062 A 
ATOM     41  H   UNL A   1      47.210  27.719  30.529  1.00  0.00     0.063 H 
ATOM     42  C   UNL A   1      49.731  25.127  31.788  1.00  0.00    -0.062 A 
ATOM     43  H   UNL A   1      50.345  25.014  29.776  1.00  0.00     0.063 H 
ATOM     44  C   UNL A   1      48.848  25.735  32.677  1.00  0.00    -0.062 A 
ATOM     45  H   UNL A   1      47.284  27.135  32.884  1.00  0.00     0.062 H 
ATOM     46  H   UNL A   1      50.414  24.432  32.129  1.00  0.00     0.062 H 
ATOM     47  H   UNL A   1      48.872  25.483  33.679  1.00  0.00     0.062 H 
ENDBRANCH  27  37
BRANCH  28  48
ATOM     48  C   UNL A   1      46.422  25.594  27.931  1.00  0.00    -0.016 A 
ATOM     49  C   UNL A   1      45.297  26.331  28.326  1.00  0.00    -0.053 A 
ATOM     50  C   UNL A   1      46.386  24.199  28.023  1.00  0.00    -0.053 A 
ATOM     51  C   UNL A   1      44.156  25.683  28.811  1.00  0.00    -0.043 A 
ATOM     52  H   UNL A   1      45.309  27.361  28.259  1.00  0.00     0.063 H 
ATOM     53  C   UNL A   1      45.240  23.548  28.487  1.00  0.00    -0.043 A 
ATOM     54  H   UNL A   1      47.213  23.646  27.748  1.00  0.00     0.063 H 
ATOM     55  C   UNL A   1      44.134  24.293  28.889  1.00  0.00     0.041 A 
ATOM     56  H   UNL A   1      43.335  26.232  29.109  1.00  0.00     0.064 H 
ATOM     57  H   UNL A   1      45.213  22.516  28.530  1.00  0.00     0.064 H 
ATOM     58  Cl  UNL A   1      42.748  23.492  29.518  1.00  0.00    -0.084 Cl
ENDBRANCH  28  48
ENDBRANCH  14  17
ENDBRANCH  11  14
ENDBRANCH   7  10
ENDBRANCH   4   7
ENDBRANCH   1   4
BRANCH   1  59
ATOM     59  C   UNL A   1      43.253  22.076  26.009  1.00  0.00    -0.052 C 
ATOM     60  H   UNL A   1      43.442  22.592  26.927  1.00  0.00     0.027 H 
ATOM     61  H   UNL A   1      44.057  21.452  25.676  1.00  0.00     0.027 H 
BRANCH  59  62
ATOM     62  C   UNL A   1      42.069  21.126  26.243  1.00  0.00    -0.036 C 
ATOM     63  H   UNL A   1      42.425  20.265  26.769  1.00  0.00     0.028 H 
ATOM     64  H   UNL A   1      41.670  20.883  25.280  1.00  0.00     0.028 H 
BRANCH  62  65
ATOM     65  C   UNL A   1      40.935  21.743  27.046  1.00  0.00     0.018 C 
ATOM     66  H   UNL A   1      41.278  22.662  27.475  1.00  0.00     0.049 H 
ATOM     67  H   UNL A   1      40.649  21.042  27.802  1.00  0.00     0.049 H 
BRANCH  65  68
ATOM     68  N   UNL A   1      39.763  22.018  26.226  1.00  0.00    -0.352 N 
ATOM     69  C   UNL A   1      38.955  23.136  26.234  1.00  0.00     0.251 C 
ATOM     70  H   UNL A   1      39.514  21.315  25.582  1.00  0.00     0.163 HD
ATOM     71  O   UNL A   1      37.830  23.103  25.762  1.00  0.00    -0.269 OA
BRANCH  69  72
ATOM     72  C   UNL A   1      39.468  24.377  26.843  1.00  0.00     0.039 A 
ATOM     73  C   UNL A   1      40.151  25.314  26.063  1.00  0.00    -0.049 A 
ATOM     74  C   UNL A   1      39.253  24.604  28.201  1.00  0.00    -0.049 A 
ATOM     75  C   UNL A   1      40.542  26.515  26.646  1.00  0.00    -0.053 A 
ATOM     76  H   UNL A   1      40.359  25.118  25.072  1.00  0.00     0.063 H 
ATOM     77  C   UNL A   1      39.529  25.837  28.745  1.00  0.00    -0.053 A 
ATOM     78  H   UNL A   1      38.888  23.846  28.800  1.00  0.00     0.063 H 
ATOM     79  C   UNL A   1      40.207  26.784  27.983  1.00  0.00    -0.014 A 
ATOM     80  H   UNL A   1      41.077  27.206  26.097  1.00  0.00     0.063 H 
ATOM     81  H   UNL A   1      39.235  26.059  29.708  1.00  0.00     0.063 H 
BRANCH  79  82
ATOM     82  C   UNL A   1      40.478  28.103  28.549  1.00  0.00     0.031 A 
ATOM     83  C   UNL A   1      41.702  28.774  28.028  1.00  0.00     0.074 A 
ATOM     84  C   UNL A   1      39.617  28.772  29.342  1.00  0.00     0.049 A 
ATOM     85  N   UNL A   1      42.771  29.092  28.683  1.00  0.00    -0.248 NA
ATOM     86  C   UNL A   1      41.791  29.035  26.583  1.00  0.00    -0.034 C 
ATOM     87  C   UNL A   1      38.240  28.421  29.706  1.00  0.00    -0.036 A 
ATOM     88  N   UNL A   1      39.781  29.990  29.931  1.00  0.00    -0.354 N 
ATOM     89  C   UNL A   1      43.612  29.738  27.778  1.00  0.00     0.074 A 
ATOM     90  C   UNL A   1      43.018  29.551  26.479  1.00  0.00    -0.034 C 
ATOM     91  H   UNL A   1      41.090  28.866  25.846  1.00  0.00     0.065 H 
ATOM     92  C   UNL A   1      37.630  29.494  30.256  1.00  0.00    -0.036 A 
ATOM     93  H   UNL A   1      37.803  27.497  29.562  1.00  0.00     0.065 H 
ATOM     94  C   UNL A   1      38.617  30.540  30.448  1.00  0.00     0.049 A 
ATOM     95  H   UNL A   1      40.654  30.441  29.984  1.00  0.00     0.167 HD
ATOM     96  C   UNL A   1      44.623  30.544  28.210  1.00  0.00     0.037 A 
ATOM     97  H   UNL A   1      43.480  29.784  25.585  1.00  0.00     0.065 H 
ATOM     98  H   UNL A   1      36.629  29.559  30.500  1.00  0.00     0.065 H 
ATOM     99  C   UNL A   1      38.472  31.777  30.980  1.00  0.00     0.037 A 
ATOM    100  C   UNL A   1      44.928  30.284  29.595  1.00  0.00     0.049 A 
ATOM    101  C   UNL A   1      39.822  32.252  31.370  1.00  0.00     0.074 A 
ATOM    102  C   UNL A   1      45.368  29.184  30.304  1.00  0.00    -0.036 A 
ATOM    103  N   UNL A   1      44.442  31.157  30.537  1.00  0.00    -0.354 N 
ATOM    104  N   UNL A   1      40.522  31.738  32.341  1.00  0.00    -0.248 NA
ATOM    105  C   UNL A   1      40.576  33.022  30.394  1.00  0.00    -0.034 C 
ATOM    106  C   UNL A   1      44.668  29.242  31.547  1.00  0.00    -0.036 A 
ATOM    107  H   UNL A   1      46.054  28.474  30.002  1.00  0.00     0.065 H 
ATOM    108  C   UNL A   1      43.896  30.405  31.544  1.00  0.00     0.049 A 
ATOM    109  H   UNL A   1      44.479  32.140  30.498  1.00  0.00     0.167 HD
ATOM    110  C   UNL A   1      41.826  31.740  31.871  1.00  0.00     0.074 A 
ATOM    111  C   UNL A   1      41.812  32.636  30.717  1.00  0.00    -0.034 C 
ATOM    112  H   UNL A   1      40.251  33.677  29.665  1.00  0.00     0.065 H 
ATOM    113  H   UNL A   1      44.722  28.550  32.310  1.00  0.00     0.065 H 
ATOM    114  C   UNL A   1      42.723  30.798  32.287  1.00  0.00     0.037 A 
ATOM    115  H   UNL A   1      42.661  32.936  30.211  1.00  0.00     0.065 H 
BRANCH  96 116
ATOM    116  C   UNL A   1      45.089  31.806  27.516  1.00  0.00     0.064 A 
ATOM    117  C   UNL A   1      46.381  31.833  26.946  1.00  0.00     0.173 A 
ATOM    118  C   UNL A   1      44.470  33.066  27.661  1.00  0.00     0.173 A 
ATOM    119  F   UNL A   1      47.069  30.698  26.751  1.00  0.00    -0.203 F 
ATOM    120  C   UNL A   1      47.042  33.031  26.660  1.00  0.00     0.198 A 
ATOM    121  C   UNL A   1      45.113  34.257  27.325  1.00  0.00     0.198 A 
ATOM    122  F   UNL A   1      43.269  33.214  28.231  1.00  0.00    -0.203 F 
ATOM    123  F   UNL A   1      48.320  33.006  26.259  1.00  0.00    -0.200 F 
ATOM    124  C   UNL A   1      46.412  34.243  26.863  1.00  0.00     0.200 A 
ATOM    125  F   UNL A   1      44.488  35.424  27.538  1.00  0.00    -0.200 F 
ATOM    126  F   UNL A   1      47.066  35.394  26.660  1.00  0.00    -0.200 F 
ENDBRANCH  96 116
BRANCH  99 127
ATOM    127  C   UNL A   1      37.301  32.679  30.938  1.00  0.00     0.064 A 
ATOM    128  C   UNL A   1      36.974  33.386  29.770  1.00  0.00     0.173 A 
ATOM    129  C   UNL A   1      36.316  32.636  31.943  1.00  0.00     0.173 A 
ATOM    130  F   UNL A   1      37.843  33.440  28.749  1.00  0.00    -0.203 F 
ATOM    131  C   UNL A   1      35.722  33.984  29.600  1.00  0.00     0.198 A 
ATOM    132  C   UNL A   1      35.067  33.234  31.772  1.00  0.00     0.198 A 
ATOM    133  F   UNL A   1      36.510  31.927  33.064  1.00  0.00    -0.203 F 
ATOM    134  F   UNL A   1      35.420  34.589  28.443  1.00  0.00    -0.200 F 
ATOM    135  C   UNL A   1      34.764  33.895  30.596  1.00  0.00     0.200 A 
ATOM    136  F   UNL A   1      34.130  33.107  32.721  1.00  0.00    -0.200 F 
ATOM    137  F   UNL A   1      33.540  34.404  30.408  1.00  0.00    -0.200 F 
ENDBRANCH  99 127
BRANCH 114 138
ATOM    138  C   UNL A   1      42.350  29.947  33.469  1.00  0.00     0.064 A 
ATOM    139  C   UNL A   1      41.756  28.676  33.375  1.00  0.00     0.173 A 
ATOM    140  C   UNL A   1      42.740  30.382  34.743  1.00  0.00     0.173 A 
ATOM    141  F   UNL A   1      41.445  28.144  32.187  1.00  0.00    -0.203 F 
ATOM    142  C   UNL A   1      41.523  27.901  34.509  1.00  0.00     0.198 A 
ATOM    143  C   UNL A   1      42.543  29.589  35.870  1.00  0.00     0.198 A 
ATOM    144  F   UNL A   1      43.361  31.563  34.890  1.00  0.00    -0.203 F 
ATOM    145  F   UNL A   1      40.940  26.698  34.394  1.00  0.00    -0.200 F 
ATOM    146  C   UNL A   1      41.925  28.354  35.755  1.00  0.00     0.200 A 
ATOM    147  F   UNL A   1      42.977  30.011  37.065  1.00  0.00    -0.200 F 
ATOM    148  F   UNL A   1      41.738  27.592  36.842  1.00  0.00    -0.200 F 
ENDBRANCH 114 138
ENDBRANCH  79  82
ENDBRANCH  69  72
ENDBRANCH  65  68
ENDBRANCH  62  65
ENDBRANCH  59  62
ENDBRANCH   1  59
TORSDOF 18
ENDMDL
MODEL 10
REMARK VINA RESULT:     -11.6      5.143     10.340
REMARK SMILES CC1(C)Cc2c(-c3ccccc3)c(-c3ccc(Cl)cc3)c(CC(=O)NCCCCCCNC(=O)c3ccc(-c4c5nc(c(-c6c(F)c(F)c(F)c(F)c6F)c6ccc([nH]6)c(-c6c(F)c(F)c(F)c(F)c6F)c6nc(c(-c7c(F)c(F)c(F)c(F)c7F)c7ccc4[nH]7)C=C6)C=C5)cc3)n2C1
REMARK SMILES IDX 28 1 27 4 26 7 25 10 23 11 24 12 22 14 21 17 2 18 4 19 99 20
REMARK SMILES IDX 5 21 98 24 6 27 13 28 1 29 3 33 7 37 8 38 12 39 9 40 11 42
REMARK SMILES IDX 10 44 14 48 15 49 20 50 16 51 19 53 17 55 18 58 29 59 30 62
REMARK SMILES IDX 31 65 32 68 33 69 34 71 35 72 36 73 97 74 37 75 96 77 38 79
REMARK SMILES IDX 39 82 40 83 90 84 41 85 95 86 89 87 91 88 42 89 94 90 88 92
REMARK SMILES IDX 87 94 43 96 75 99 55 100 74 101 56 102 59 103 73 104 92 105
REMARK SMILES IDX 57 106 58 108 72 110 93 111 60 114 44 116 45 117 53 118
REMARK SMILES IDX 46 119 47 120 51 121 54 122 48 123 49 124 52 125 50 126
REMARK SMILES IDX 76 127 77 128 85 129 78 130 79 131 83 132 86 133 80 134
REMARK SMILES IDX 81 135 84 136 82 137 61 138 62 139 70 140 63 141 64 142
REMARK SMILES IDX 68 143 71 144 65 145 66 146 69 147 67 148
REMARK H PARENT 28 2 28 3 27 5 27 6 26 8 26 9 25 13 22 15 22 16 4 22 4 23
REMARK H PARENT 99 25 99 26 1 30 1 31 1 32 3 34 3 35 3 36 8 41 12 43 9 45
REMARK H PARENT 11 46 10 47 15 52 20 54 16 56 19 57 29 60 29 61 30 63 30 64
REMARK H PARENT 31 66 31 67 32 70 36 76 97 78 37 80 96 81 95 91 89 93 91 95
REMARK H PARENT 94 97 88 98 56 107 59 109 92 112 57 113 93 115
REMARK Flexibility Score: inf
ROOT
ATOM      1  C   UNL A   1      45.619  24.782  27.011  1.00  0.00    -0.052 C 
ATOM      2  H   UNL A   1      44.964  24.328  27.725  1.00  0.00     0.027 H 
ATOM      3  H   UNL A   1      46.640  24.826  27.327  1.00  0.00     0.027 H 
ENDROOT
BRANCH   1   4
ATOM      4  C   UNL A   1      45.175  26.235  26.824  1.00  0.00    -0.036 C 
ATOM      5  H   UNL A   1      44.374  26.430  27.506  1.00  0.00     0.028 H 
ATOM      6  H   UNL A   1      46.037  26.842  27.007  1.00  0.00     0.028 H 
BRANCH   4   7
ATOM      7  C   UNL A   1      44.696  26.577  25.415  1.00  0.00     0.017 C 
ATOM      8  H   UNL A   1      44.882  25.738  24.777  1.00  0.00     0.049 H 
ATOM      9  H   UNL A   1      43.652  26.804  25.475  1.00  0.00     0.049 H 
BRANCH   7  10
ATOM     10  N   UNL A   1      45.362  27.732  24.865  1.00  0.00    -0.356 N 
ATOM     11  C   UNL A   1      46.508  27.793  24.122  1.00  0.00     0.225 C 
ATOM     12  O   UNL A   1      46.847  28.898  23.690  1.00  0.00    -0.275 OA
ATOM     13  H   UNL A   1      44.932  28.598  25.051  1.00  0.00     0.163 HD
BRANCH  11  14
ATOM     14  C   UNL A   1      47.285  26.532  23.768  1.00  0.00     0.068 C 
ATOM     15  H   UNL A   1      47.039  25.775  24.484  1.00  0.00     0.043 H 
ATOM     16  H   UNL A   1      47.003  26.269  22.770  1.00  0.00     0.043 H 
BRANCH  14  17
ATOM     17  C   UNL A   1      48.776  26.707  23.763  1.00  0.00     0.036 A 
ATOM     18  C   UNL A   1      50.526  26.996  20.513  1.00  0.00    -0.012 C 
ATOM     19  C   UNL A   1      51.555  27.414  21.612  1.00  0.00    -0.005 C 
ATOM     20  C   UNL A   1      49.142  27.148  21.210  1.00  0.00     0.028 C 
ATOM     21  C   UNL A   1      50.805  27.142  22.861  1.00  0.00     0.027 A 
ATOM     22  H   UNL A   1      51.811  28.450  21.531  1.00  0.00     0.034 H 
ATOM     23  H   UNL A   1      52.488  26.893  21.548  1.00  0.00     0.034 H 
ATOM     24  N   UNL A   1      49.471  26.993  22.623  1.00  0.00    -0.346 N 
ATOM     25  H   UNL A   1      48.461  26.389  20.888  1.00  0.00     0.050 H 
ATOM     26  H   UNL A   1      48.657  28.077  20.989  1.00  0.00     0.050 H 
ATOM     27  C   UNL A   1      51.022  26.969  24.200  1.00  0.00     0.011 A 
ATOM     28  C   UNL A   1      49.730  26.710  24.788  1.00  0.00     0.011 A 
BRANCH  18  29
ATOM     29  C   UNL A   1      50.624  27.886  19.274  1.00  0.00    -0.058 C 
ATOM     30  H   UNL A   1      50.997  28.849  19.555  1.00  0.00     0.024 H 
ATOM     31  H   UNL A   1      49.654  27.994  18.835  1.00  0.00     0.024 H 
ATOM     32  H   UNL A   1      51.289  27.439  18.565  1.00  0.00     0.024 H 
ENDBRANCH  18  29
BRANCH  18  33
ATOM     33  C   UNL A   1      50.779  25.535  20.095  1.00  0.00    -0.058 C 
ATOM     34  H   UNL A   1      50.853  24.922  20.969  1.00  0.00     0.024 H 
ATOM     35  H   UNL A   1      51.690  25.475  19.538  1.00  0.00     0.024 H 
ATOM     36  H   UNL A   1      49.966  25.192  19.488  1.00  0.00     0.024 H 
ENDBRANCH  18  33
BRANCH  27  37
ATOM     37  C   UNL A   1      52.323  27.024  24.836  1.00  0.00    -0.016 A 
ATOM     38  C   UNL A   1      53.168  25.911  24.833  1.00  0.00    -0.054 A 
ATOM     39  C   UNL A   1      52.763  28.228  25.400  1.00  0.00    -0.054 A 
ATOM     40  C   UNL A   1      54.448  26.009  25.380  1.00  0.00    -0.062 A 
ATOM     41  H   UNL A   1      52.846  25.019  24.427  1.00  0.00     0.063 H 
ATOM     42  C   UNL A   1      54.042  28.324  25.945  1.00  0.00    -0.062 A 
ATOM     43  H   UNL A   1      52.138  29.049  25.412  1.00  0.00     0.063 H 
ATOM     44  C   UNL A   1      54.885  27.215  25.930  1.00  0.00    -0.062 A 
ATOM     45  H   UNL A   1      55.073  25.187  25.379  1.00  0.00     0.062 H 
ATOM     46  H   UNL A   1      54.364  29.213  26.358  1.00  0.00     0.062 H 
ATOM     47  H   UNL A   1      55.836  27.285  26.328  1.00  0.00     0.062 H 
ENDBRANCH  27  37
BRANCH  28  48
ATOM     48  C   UNL A   1      49.468  26.516  26.209  1.00  0.00    -0.016 A 
ATOM     49  C   UNL A   1      49.629  25.241  26.770  1.00  0.00    -0.053 A 
ATOM     50  C   UNL A   1      48.898  27.531  26.984  1.00  0.00    -0.053 A 
ATOM     51  C   UNL A   1      49.220  24.984  28.083  1.00  0.00    -0.043 A 
ATOM     52  H   UNL A   1      50.052  24.485  26.210  1.00  0.00     0.063 H 
ATOM     53  C   UNL A   1      48.509  27.283  28.304  1.00  0.00    -0.043 A 
ATOM     54  H   UNL A   1      48.762  28.470  26.578  1.00  0.00     0.063 H 
ATOM     55  C   UNL A   1      48.662  26.008  28.844  1.00  0.00     0.041 A 
ATOM     56  H   UNL A   1      49.333  24.041  28.486  1.00  0.00     0.064 H 
ATOM     57  H   UNL A   1      48.110  28.043  28.877  1.00  0.00     0.064 H 
ATOM     58  Cl  UNL A   1      48.124  25.690  30.447  1.00  0.00    -0.084 Cl
ENDBRANCH  28  48
ENDBRANCH  14  17
ENDBRANCH  11  14
ENDBRANCH   7  10
ENDBRANCH   4   7
ENDBRANCH   1   4
BRANCH   1  59
ATOM     59  C   UNL A   1      45.608  23.916  25.741  1.00  0.00    -0.052 C 
ATOM     60  H   UNL A   1      46.575  23.468  25.645  1.00  0.00     0.027 H 
ATOM     61  H   UNL A   1      45.347  24.582  24.946  1.00  0.00     0.027 H 
BRANCH  59  62
ATOM     62  C   UNL A   1      44.564  22.790  25.691  1.00  0.00    -0.036 C 
ATOM     63  H   UNL A   1      44.234  22.590  26.689  1.00  0.00     0.028 H 
ATOM     64  H   UNL A   1      45.039  21.945  25.239  1.00  0.00     0.028 H 
BRANCH  62  65
ATOM     65  C   UNL A   1      43.347  23.118  24.841  1.00  0.00     0.018 C 
ATOM     66  H   UNL A   1      43.523  22.777  23.842  1.00  0.00     0.049 H 
ATOM     67  H   UNL A   1      43.201  24.177  24.872  1.00  0.00     0.049 H 
BRANCH  65  68
ATOM     68  N   UNL A   1      42.135  22.485  25.345  1.00  0.00    -0.352 N 
ATOM     69  C   UNL A   1      41.330  22.886  26.391  1.00  0.00     0.251 C 
ATOM     70  H   UNL A   1      41.853  21.665  24.879  1.00  0.00     0.163 HD
ATOM     71  O   UNL A   1      40.561  22.105  26.928  1.00  0.00    -0.269 OA
BRANCH  69  72
ATOM     72  C   UNL A   1      41.428  24.278  26.868  1.00  0.00     0.039 A 
ATOM     73  C   UNL A   1      40.859  25.317  26.127  1.00  0.00    -0.049 A 
ATOM     74  C   UNL A   1      42.086  24.538  28.069  1.00  0.00    -0.049 A 
ATOM     75  C   UNL A   1      40.888  26.607  26.647  1.00  0.00    -0.053 A 
ATOM     76  H   UNL A   1      40.424  25.129  25.210  1.00  0.00     0.063 H 
ATOM     77  C   UNL A   1      42.007  25.787  28.639  1.00  0.00    -0.053 A 
ATOM     78  H   UNL A   1      42.634  23.794  28.529  1.00  0.00     0.063 H 
ATOM     79  C   UNL A   1      41.442  26.834  27.918  1.00  0.00    -0.014 A 
ATOM     80  H   UNL A   1      40.504  27.394  26.101  1.00  0.00     0.063 H 
ATOM     81  H   UNL A   1      42.362  25.946  29.595  1.00  0.00     0.063 H 
BRANCH  79  82
ATOM     82  C   UNL A   1      41.334  28.155  28.532  1.00  0.00     0.031 A 
ATOM     83  C   UNL A   1      42.419  29.111  28.171  1.00  0.00     0.074 A 
ATOM     84  C   UNL A   1      40.257  28.575  29.227  1.00  0.00     0.049 A 
ATOM     85  N   UNL A   1      43.304  29.637  28.953  1.00  0.00    -0.248 NA
ATOM     86  C   UNL A   1      42.607  29.446  26.751  1.00  0.00    -0.034 C 
ATOM     87  C   UNL A   1      38.967  27.903  29.418  1.00  0.00    -0.036 A 
ATOM     88  N   UNL A   1      40.066  29.772  29.849  1.00  0.00    -0.354 N 
ATOM     89  C   UNL A   1      44.067  30.496  28.164  1.00  0.00     0.074 A 
ATOM     90  C   UNL A   1      43.684  30.233  26.801  1.00  0.00    -0.034 C 
ATOM     91  H   UNL A   1      42.051  29.152  25.932  1.00  0.00     0.065 H 
ATOM     92  C   UNL A   1      38.067  28.783  29.908  1.00  0.00    -0.036 A 
ATOM     93  H   UNL A   1      38.777  26.910  29.210  1.00  0.00     0.065 H 
ATOM     94  C   UNL A   1      38.756  30.018  30.232  1.00  0.00     0.049 A 
ATOM     95  H   UNL A   1      40.798  30.409  30.013  1.00  0.00     0.167 HD
ATOM     96  C   UNL A   1      44.808  31.493  28.726  1.00  0.00     0.037 A 
ATOM     97  H   UNL A   1      44.177  30.604  25.973  1.00  0.00     0.065 H 
ATOM     98  H   UNL A   1      37.058  28.607  30.032  1.00  0.00     0.065 H 
ATOM     99  C   UNL A   1      38.268  31.166  30.762  1.00  0.00     0.037 A 
ATOM    100  C   UNL A   1      45.008  31.252  30.134  1.00  0.00     0.049 A 
ATOM    101  C   UNL A   1      39.418  31.920  31.316  1.00  0.00     0.074 A 
ATOM    102  C   UNL A   1      45.609  30.253  30.874  1.00  0.00    -0.036 A 
ATOM    103  N   UNL A   1      44.229  31.950  31.024  1.00  0.00    -0.354 N 
ATOM    104  N   UNL A   1      40.104  31.540  32.357  1.00  0.00    -0.248 NA
ATOM    105  C   UNL A   1      40.077  32.884  30.449  1.00  0.00    -0.034 C 
ATOM    106  C   UNL A   1      44.779  30.097  32.024  1.00  0.00    -0.036 A 
ATOM    107  H   UNL A   1      46.471  29.733  30.645  1.00  0.00     0.065 H 
ATOM    108  C   UNL A   1      43.763  31.051  31.947  1.00  0.00     0.049 A 
ATOM    109  H   UNL A   1      44.041  32.916  31.004  1.00  0.00     0.167 HD
ATOM    110  C   UNL A   1      41.416  31.860  32.045  1.00  0.00     0.074 A 
ATOM    111  C   UNL A   1      41.325  32.778  30.912  1.00  0.00    -0.034 C 
ATOM    112  H   UNL A   1      39.692  33.477  29.697  1.00  0.00     0.065 H 
ATOM    113  H   UNL A   1      44.907  29.404  32.778  1.00  0.00     0.065 H 
ATOM    114  C   UNL A   1      42.455  31.133  32.551  1.00  0.00     0.037 A 
ATOM    115  H   UNL A   1      42.131  33.285  30.515  1.00  0.00     0.065 H 
BRANCH  96 116
ATOM    116  C   UNL A   1      45.043  32.858  28.112  1.00  0.00     0.064 A 
ATOM    117  C   UNL A   1      46.364  33.244  27.796  1.00  0.00     0.173 A 
ATOM    118  C   UNL A   1      44.095  33.903  28.116  1.00  0.00     0.173 A 
ATOM    119  F   UNL A   1      47.353  32.338  27.754  1.00  0.00    -0.203 F 
ATOM    120  C   UNL A   1      46.724  34.584  27.620  1.00  0.00     0.198 A 
ATOM    121  C   UNL A   1      44.450  35.233  27.888  1.00  0.00     0.198 A 
ATOM    122  F   UNL A   1      42.814  33.708  28.446  1.00  0.00    -0.203 F 
ATOM    123  F   UNL A   1      48.014  34.910  27.468  1.00  0.00    -0.200 F 
ATOM    124  C   UNL A   1      45.768  35.578  27.680  1.00  0.00     0.200 A 
ATOM    125  F   UNL A   1      43.509  36.185  27.958  1.00  0.00    -0.200 F 
ATOM    126  F   UNL A   1      46.118  36.867  27.585  1.00  0.00    -0.200 F 
ENDBRANCH  96 116
BRANCH  99 127
ATOM    127  C   UNL A   1      36.931  31.777  30.594  1.00  0.00     0.064 A 
ATOM    128  C   UNL A   1      36.027  31.842  31.666  1.00  0.00     0.173 A 
ATOM    129  C   UNL A   1      36.633  32.568  29.469  1.00  0.00     0.173 A 
ATOM    130  F   UNL A   1      36.262  31.150  32.790  1.00  0.00    -0.203 F 
ATOM    131  C   UNL A   1      34.907  32.679  31.631  1.00  0.00     0.198 A 
ATOM    132  C   UNL A   1      35.513  33.402  29.435  1.00  0.00     0.198 A 
ATOM    133  F   UNL A   1      37.472  32.625  28.426  1.00  0.00    -0.203 F 
ATOM    134  F   UNL A   1      34.105  32.769  32.700  1.00  0.00    -0.200 F 
ATOM    135  C   UNL A   1      34.660  33.469  30.520  1.00  0.00     0.200 A 
ATOM    136  F   UNL A   1      35.304  34.195  28.377  1.00  0.00    -0.200 F 
ATOM    137  F   UNL A   1      33.628  34.324  30.511  1.00  0.00    -0.200 F 
ENDBRANCH  99 127
BRANCH 114 138
ATOM    138  C   UNL A   1      42.160  30.170  33.667  1.00  0.00     0.064 A 
ATOM    139  C   UNL A   1      41.757  28.836  33.478  1.00  0.00     0.173 A 
ATOM    140  C   UNL A   1      42.433  30.579  34.979  1.00  0.00     0.173 A 
ATOM    141  F   UNL A   1      41.573  28.337  32.250  1.00  0.00    -0.203 F 
ATOM    142  C   UNL A   1      41.592  27.970  34.557  1.00  0.00     0.198 A 
ATOM    143  C   UNL A   1      42.305  29.701  36.052  1.00  0.00     0.198 A 
ATOM    144  F   UNL A   1      42.873  31.825  35.218  1.00  0.00    -0.203 F 
ATOM    145  F   UNL A   1      41.191  26.707  34.351  1.00  0.00    -0.200 F 
ATOM    146  C   UNL A   1      41.874  28.401  35.843  1.00  0.00     0.200 A 
ATOM    147  F   UNL A   1      42.625  30.109  37.287  1.00  0.00    -0.200 F 
ATOM    148  F   UNL A   1      41.754  27.557  36.878  1.00  0.00    -0.200 F 
ENDBRANCH 114 138
ENDBRANCH  79  82
ENDBRANCH  69  72
ENDBRANCH  65  68
ENDBRANCH  62  65
ENDBRANCH  59  62
ENDBRANCH   1  59
TORSDOF 18
ENDMDL
