MODEL 1
REMARK VINA RESULT:     -12.6      0.000      0.000
REMARK SMILES C[C@H](C(=O)NCCCCCCNC(=O)c1ccc(-c2c3nc(c(-c4c(F)c(F)c(F)c(F)c4F)c4ccc([nH]4)c(-c4c(F)c(F)c(F)c(F)c4F)c4nc(c(-c5c(F)c(F)c(F)c(F)c5F)c5ccc2[nH]5)C=C4)C=C3)cc1)c1ccc2c(c1)[nH]c1ccc(Cl)cc12
REMARK SMILES IDX 9 1 8 4 7 7 6 10 5 13 3 14 4 15 2 17 1 19 78 23 79 24 83 25
REMARK SMILES IDX 80 26 82 28 81 30 84 32 91 33 85 34 90 36 86 37 88 38 87 40
REMARK SMILES IDX 89 42 10 44 11 47 12 50 13 51 14 53 15 54 16 55 77 56 17 57
REMARK SMILES IDX 76 59 18 61 19 64 20 65 70 66 21 67 75 68 69 69 71 70 22 71
REMARK SMILES IDX 74 72 68 74 67 76 23 78 55 81 35 82 54 83 36 84 39 85 53 86
REMARK SMILES IDX 72 87 37 88 38 90 52 92 73 93 40 96 24 98 25 99 33 100
REMARK SMILES IDX 26 101 27 102 31 103 34 104 28 105 29 106 32 107 30 108
REMARK SMILES IDX 56 109 57 110 65 111 58 112 59 113 63 114 66 115 60 116
REMARK SMILES IDX 61 117 64 118 62 119 41 120 42 121 50 122 43 123 44 124
REMARK SMILES IDX 48 125 51 126 45 127 46 128 49 129 47 130
REMARK H PARENT 9 2 9 3 8 5 8 6 7 8 7 9 6 11 6 12 5 16 2 18 1 20 1 21 1 22
REMARK H PARENT 79 27 83 29 80 31 84 35 90 39 86 41 87 43 10 45 10 46 11 48
REMARK H PARENT 11 49 12 52 16 58 77 60 17 62 76 63 75 73 69 75 71 77 74 79
REMARK H PARENT 68 80 36 89 39 91 72 94 37 95 73 97
REMARK Flexibility Score: inf
ROOT
ATOM      1  C   UNL A   1      33.037  26.277  26.139  1.00  0.00    -0.052 C 
ATOM      2  H   UNL A   1      33.380  26.301  27.153  1.00  0.00     0.027 H 
ATOM      3  H   UNL A   1      32.306  25.523  25.928  1.00  0.00     0.027 H 
ENDROOT
BRANCH   1   4
ATOM      4  C   UNL A   1      34.235  25.926  25.255  1.00  0.00    -0.052 C 
ATOM      5  H   UNL A   1      33.866  25.775  24.262  1.00  0.00     0.027 H 
ATOM      6  H   UNL A   1      34.910  26.747  25.376  1.00  0.00     0.027 H 
BRANCH   4   7
ATOM      7  C   UNL A   1      35.057  24.690  25.629  1.00  0.00    -0.036 C 
ATOM      8  H   UNL A   1      35.483  24.305  24.727  1.00  0.00     0.028 H 
ATOM      9  H   UNL A   1      35.758  25.043  26.356  1.00  0.00     0.028 H 
BRANCH   7  10
ATOM     10  C   UNL A   1      34.334  23.539  26.320  1.00  0.00     0.017 C 
ATOM     11  H   UNL A   1      34.323  23.737  27.371  1.00  0.00     0.049 H 
ATOM     12  H   UNL A   1      33.357  23.496  25.885  1.00  0.00     0.049 H 
BRANCH  10  13
ATOM     13  N   UNL A   1      34.926  22.240  26.115  1.00  0.00    -0.356 N 
ATOM     14  C   UNL A   1      34.810  21.375  25.074  1.00  0.00     0.227 C 
ATOM     15  O   UNL A   1      35.704  20.516  25.016  1.00  0.00    -0.274 OA
ATOM     16  H   UNL A   1      35.506  21.929  26.847  1.00  0.00     0.163 HD
BRANCH  14  17
ATOM     17  C   UNL A   1      33.645  21.293  24.068  1.00  0.00     0.060 C 
ATOM     18  H   UNL A   1      34.080  21.047  23.122  1.00  0.00     0.045 H 
BRANCH  17  19
ATOM     19  C   UNL A   1      32.695  20.221  24.647  1.00  0.00    -0.049 C 
ATOM     20  H   UNL A   1      32.924  20.062  25.680  1.00  0.00     0.024 H 
ATOM     21  H   UNL A   1      32.820  19.304  24.110  1.00  0.00     0.024 H 
ATOM     22  H   UNL A   1      31.682  20.552  24.554  1.00  0.00     0.024 H 
ENDBRANCH  17  19
BRANCH  17  23
ATOM     23  C   UNL A   1      32.925  22.556  23.591  1.00  0.00    -0.034 A 
ATOM     24  C   UNL A   1      33.477  23.376  22.591  1.00  0.00    -0.057 A 
ATOM     25  C   UNL A   1      31.664  22.908  24.106  1.00  0.00    -0.034 A 
ATOM     26  C   UNL A   1      32.888  24.608  22.232  1.00  0.00    -0.052 A 
ATOM     27  H   UNL A   1      34.336  23.069  22.107  1.00  0.00     0.063 H 
ATOM     28  C   UNL A   1      31.079  24.118  23.721  1.00  0.00     0.047 A 
ATOM     29  H   UNL A   1      31.176  22.280  24.764  1.00  0.00     0.065 H 
ATOM     30  C   UNL A   1      31.676  25.006  22.835  1.00  0.00     0.007 A 
ATOM     31  H   UNL A   1      33.343  25.215  21.532  1.00  0.00     0.063 H 
ATOM     32  N   UNL A   1      29.884  24.665  24.114  1.00  0.00    -0.355 N 
ATOM     33  C   UNL A   1      30.852  26.185  22.808  1.00  0.00     0.009 A 
ATOM     34  C   UNL A   1      29.760  25.947  23.644  1.00  0.00     0.047 A 
ATOM     35  H   UNL A   1      29.208  24.200  24.659  1.00  0.00     0.167 HD
ATOM     36  C   UNL A   1      30.944  27.446  22.182  1.00  0.00    -0.033 A 
ATOM     37  C   UNL A   1      28.767  26.896  23.911  1.00  0.00    -0.036 A 
ATOM     38  C   UNL A   1      29.963  28.411  22.450  1.00  0.00     0.041 A 
ATOM     39  H   UNL A   1      31.721  27.656  21.536  1.00  0.00     0.065 H 
ATOM     40  C   UNL A   1      28.896  28.146  23.305  1.00  0.00    -0.041 A 
ATOM     41  H   UNL A   1      27.971  26.680  24.531  1.00  0.00     0.065 H 
ATOM     42  Cl  UNL A   1      30.085  29.969  21.723  1.00  0.00    -0.084 Cl
ATOM     43  H   UNL A   1      28.194  28.880  23.491  1.00  0.00     0.064 H 
ENDBRANCH  17  23
ENDBRANCH  14  17
ENDBRANCH  10  13
ENDBRANCH   7  10
ENDBRANCH   4   7
ENDBRANCH   1   4
BRANCH   1  44
ATOM     44  C   UNL A   1      32.331  27.602  25.859  1.00  0.00    -0.036 C 
ATOM     45  H   UNL A   1      31.743  27.847  26.719  1.00  0.00     0.028 H 
ATOM     46  H   UNL A   1      31.760  27.440  24.968  1.00  0.00     0.028 H 
BRANCH  44  47
ATOM     47  C   UNL A   1      33.230  28.792  25.556  1.00  0.00     0.018 C 
ATOM     48  H   UNL A   1      33.420  28.815  24.503  1.00  0.00     0.049 H 
ATOM     49  H   UNL A   1      34.128  28.662  26.125  1.00  0.00     0.049 H 
BRANCH  47  50
ATOM     50  N   UNL A   1      32.654  30.065  25.948  1.00  0.00    -0.352 N 
ATOM     51  C   UNL A   1      33.111  30.978  26.873  1.00  0.00     0.251 C 
ATOM     52  H   UNL A   1      31.819  30.311  25.489  1.00  0.00     0.163 HD
ATOM     53  O   UNL A   1      32.443  31.956  27.166  1.00  0.00    -0.269 OA
BRANCH  51  54
ATOM     54  C   UNL A   1      34.415  30.749  27.536  1.00  0.00     0.039 A 
ATOM     55  C   UNL A   1      35.310  31.815  27.657  1.00  0.00    -0.049 A 
ATOM     56  C   UNL A   1      34.746  29.490  28.045  1.00  0.00    -0.049 A 
ATOM     57  C   UNL A   1      36.512  31.637  28.347  1.00  0.00    -0.053 A 
ATOM     58  H   UNL A   1      35.084  32.732  27.238  1.00  0.00     0.063 H 
ATOM     59  C   UNL A   1      35.904  29.335  28.798  1.00  0.00    -0.053 A 
ATOM     60  H   UNL A   1      34.132  28.681  27.864  1.00  0.00     0.063 H 
ATOM     61  C   UNL A   1      36.803  30.404  28.950  1.00  0.00    -0.014 A 
ATOM     62  H   UNL A   1      37.188  32.415  28.414  1.00  0.00     0.063 H 
ATOM     63  H   UNL A   1      36.105  28.428  29.247  1.00  0.00     0.063 H 
BRANCH  61  64
ATOM     64  C   UNL A   1      38.051  30.178  29.721  1.00  0.00     0.031 A 
ATOM     65  C   UNL A   1      39.092  29.240  29.181  1.00  0.00     0.074 A 
ATOM     66  C   UNL A   1      38.202  30.726  30.942  1.00  0.00     0.049 A 
ATOM     67  N   UNL A   1      40.165  28.764  29.759  1.00  0.00    -0.248 NA
ATOM     68  C   UNL A   1      38.871  28.740  27.816  1.00  0.00    -0.034 C 
ATOM     69  C   UNL A   1      37.251  31.629  31.587  1.00  0.00    -0.036 A 
ATOM     70  N   UNL A   1      39.202  30.574  31.870  1.00  0.00    -0.354 N 
ATOM     71  C   UNL A   1      40.726  27.886  28.842  1.00  0.00     0.074 A 
ATOM     72  C   UNL A   1      39.849  27.856  27.692  1.00  0.00    -0.034 C 
ATOM     73  H   UNL A   1      38.145  29.008  27.133  1.00  0.00     0.065 H 
ATOM     74  C   UNL A   1      37.712  31.953  32.806  1.00  0.00    -0.036 A 
ATOM     75  H   UNL A   1      36.368  31.966  31.172  1.00  0.00     0.065 H 
ATOM     76  C   UNL A   1      38.965  31.242  33.047  1.00  0.00     0.049 A 
ATOM     77  H   UNL A   1      40.011  30.037  31.709  1.00  0.00     0.167 HD
ATOM     78  C   UNL A   1      41.878  27.180  28.945  1.00  0.00     0.037 A 
ATOM     79  H   UNL A   1      39.970  27.229  26.881  1.00  0.00     0.065 H 
ATOM     80  H   UNL A   1      37.255  32.601  33.467  1.00  0.00     0.065 H 
ATOM     81  C   UNL A   1      39.665  31.259  34.197  1.00  0.00     0.037 A 
ATOM     82  C   UNL A   1      42.754  27.234  30.084  1.00  0.00     0.049 A 
ATOM     83  C   UNL A   1      40.938  30.460  34.297  1.00  0.00     0.074 A 
ATOM     84  C   UNL A   1      43.974  26.606  30.265  1.00  0.00    -0.036 A 
ATOM     85  N   UNL A   1      42.498  27.953  31.243  1.00  0.00    -0.354 N 
ATOM     86  N   UNL A   1      41.492  29.675  33.405  1.00  0.00    -0.248 NA
ATOM     87  C   UNL A   1      41.684  30.554  35.559  1.00  0.00    -0.034 C 
ATOM     88  C   UNL A   1      44.429  26.901  31.555  1.00  0.00    -0.036 A 
ATOM     89  H   UNL A   1      44.463  26.022  29.569  1.00  0.00     0.065 H 
ATOM     90  C   UNL A   1      43.527  27.767  32.152  1.00  0.00     0.049 A 
ATOM     91  H   UNL A   1      41.703  28.513  31.396  1.00  0.00     0.167 HD
ATOM     92  C   UNL A   1      42.667  29.211  33.980  1.00  0.00     0.074 A 
ATOM     93  C   UNL A   1      42.746  29.801  35.300  1.00  0.00    -0.034 C 
ATOM     94  H   UNL A   1      41.446  31.070  36.420  1.00  0.00     0.065 H 
ATOM     95  H   UNL A   1      45.291  26.535  31.987  1.00  0.00     0.065 H 
ATOM     96  C   UNL A   1      43.600  28.378  33.456  1.00  0.00     0.037 A 
ATOM     97  H   UNL A   1      43.529  29.655  35.957  1.00  0.00     0.065 H 
BRANCH  78  98
ATOM     98  C   UNL A   1      42.238  26.277  27.798  1.00  0.00     0.064 A 
ATOM     99  C   UNL A   1      41.674  25.000  27.653  1.00  0.00     0.173 A 
ATOM    100  C   UNL A   1      43.164  26.695  26.830  1.00  0.00     0.173 A 
ATOM    101  F   UNL A   1      40.790  24.545  28.554  1.00  0.00    -0.203 F 
ATOM    102  C   UNL A   1      42.063  24.157  26.614  1.00  0.00     0.198 A 
ATOM    103  C   UNL A   1      43.521  25.864  25.770  1.00  0.00     0.198 A 
ATOM    104  F   UNL A   1      43.728  27.909  26.911  1.00  0.00    -0.203 F 
ATOM    105  F   UNL A   1      41.566  22.913  26.542  1.00  0.00    -0.200 F 
ATOM    106  C   UNL A   1      42.981  24.590  25.672  1.00  0.00     0.200 A 
ATOM    107  F   UNL A   1      44.396  26.293  24.851  1.00  0.00    -0.200 F 
ATOM    108  F   UNL A   1      43.356  23.778  24.675  1.00  0.00    -0.200 F 
ENDBRANCH  78  98
BRANCH  81 109
ATOM    109  C   UNL A   1      39.179  32.078  35.337  1.00  0.00     0.064 A 
ATOM    110  C   UNL A   1      38.431  31.499  36.372  1.00  0.00     0.173 A 
ATOM    111  C   UNL A   1      39.479  33.445  35.436  1.00  0.00     0.173 A 
ATOM    112  F   UNL A   1      38.103  30.200  36.314  1.00  0.00    -0.203 F 
ATOM    113  C   UNL A   1      37.995  32.257  37.457  1.00  0.00     0.198 A 
ATOM    114  C   UNL A   1      39.065  34.196  36.535  1.00  0.00     0.198 A 
ATOM    115  F   UNL A   1      40.199  34.046  34.476  1.00  0.00    -0.203 F 
ATOM    116  F   UNL A   1      37.255  31.685  38.417  1.00  0.00    -0.200 F 
ATOM    117  C   UNL A   1      38.320  33.602  37.542  1.00  0.00     0.200 A 
ATOM    118  F   UNL A   1      39.398  35.490  36.622  1.00  0.00    -0.200 F 
ATOM    119  F   UNL A   1      37.914  34.327  38.593  1.00  0.00    -0.200 F 
ENDBRANCH  81 109
BRANCH  96 120
ATOM    120  C   UNL A   1      44.825  28.096  34.278  1.00  0.00     0.064 A 
ATOM    121  C   UNL A   1      45.952  28.928  34.241  1.00  0.00     0.173 A 
ATOM    122  C   UNL A   1      44.832  27.018  35.178  1.00  0.00     0.173 A 
ATOM    123  F   UNL A   1      46.002  29.962  33.389  1.00  0.00    -0.203 F 
ATOM    124  C   UNL A   1      47.046  28.685  35.069  1.00  0.00     0.198 A 
ATOM    125  C   UNL A   1      45.914  26.797  36.025  1.00  0.00     0.198 A 
ATOM    126  F   UNL A   1      43.774  26.196  35.256  1.00  0.00    -0.203 F 
ATOM    127  F   UNL A   1      48.127  29.474  34.996  1.00  0.00    -0.200 F 
ATOM    128  C   UNL A   1      47.021  27.628  35.968  1.00  0.00     0.200 A 
ATOM    129  F   UNL A   1      45.878  25.786  36.904  1.00  0.00    -0.200 F 
ATOM    130  F   UNL A   1      48.066  27.410  36.778  1.00  0.00    -0.200 F 
ENDBRANCH  96 120
ENDBRANCH  61  64
ENDBRANCH  51  54
ENDBRANCH  47  50
ENDBRANCH  44  47
ENDBRANCH   1  44
TORSDOF 15
ENDMDL
MODEL 2
REMARK VINA RESULT:     -12.6      0.166      1.583
REMARK SMILES C[C@H](C(=O)NCCCCCCNC(=O)c1ccc(-c2c3nc(c(-c4c(F)c(F)c(F)c(F)c4F)c4ccc([nH]4)c(-c4c(F)c(F)c(F)c(F)c4F)c4nc(c(-c5c(F)c(F)c(F)c(F)c5F)c5ccc2[nH]5)C=C4)C=C3)cc1)c1ccc2c(c1)[nH]c1ccc(Cl)cc12
REMARK SMILES IDX 9 1 8 4 7 7 6 10 5 13 3 14 4 15 2 17 1 19 78 23 79 24 83 25
REMARK SMILES IDX 80 26 82 28 81 30 84 32 91 33 85 34 90 36 86 37 88 38 87 40
REMARK SMILES IDX 89 42 10 44 11 47 12 50 13 51 14 53 15 54 16 55 77 56 17 57
REMARK SMILES IDX 76 59 18 61 19 64 20 65 70 66 21 67 75 68 69 69 71 70 22 71
REMARK SMILES IDX 74 72 68 74 67 76 23 78 55 81 35 82 54 83 36 84 39 85 53 86
REMARK SMILES IDX 72 87 37 88 38 90 52 92 73 93 40 96 24 98 25 99 33 100
REMARK SMILES IDX 26 101 27 102 31 103 34 104 28 105 29 106 32 107 30 108
REMARK SMILES IDX 56 109 57 110 65 111 58 112 59 113 63 114 66 115 60 116
REMARK SMILES IDX 61 117 64 118 62 119 41 120 42 121 50 122 43 123 44 124
REMARK SMILES IDX 48 125 51 126 45 127 46 128 49 129 47 130
REMARK H PARENT 9 2 9 3 8 5 8 6 7 8 7 9 6 11 6 12 5 16 2 18 1 20 1 21 1 22
REMARK H PARENT 79 27 83 29 80 31 84 35 90 39 86 41 87 43 10 45 10 46 11 48
REMARK H PARENT 11 49 12 52 16 58 77 60 17 62 76 63 75 73 69 75 71 77 74 79
REMARK H PARENT 68 80 36 89 39 91 72 94 37 95 73 97
REMARK Flexibility Score: inf
ROOT
ATOM      1  C   UNL A   1      33.094  26.273  26.124  1.00  0.00    -0.052 C 
ATOM      2  H   UNL A   1      33.425  26.326  27.141  1.00  0.00     0.027 H 
ATOM      3  H   UNL A   1      32.367  25.512  25.926  1.00  0.00     0.027 H 
ENDROOT
BRANCH   1   4
ATOM      4  C   UNL A   1      34.303  25.900  25.264  1.00  0.00    -0.052 C 
ATOM      5  H   UNL A   1      33.951  25.751  24.265  1.00  0.00     0.027 H 
ATOM      6  H   UNL A   1      34.989  26.711  25.396  1.00  0.00     0.027 H 
BRANCH   4   7
ATOM      7  C   UNL A   1      35.099  24.654  25.659  1.00  0.00    -0.036 C 
ATOM      8  H   UNL A   1      35.545  24.264  24.768  1.00  0.00     0.028 H 
ATOM      9  H   UNL A   1      35.784  24.996  26.406  1.00  0.00     0.028 H 
BRANCH   7  10
ATOM     10  C   UNL A   1      34.342  23.510  26.326  1.00  0.00     0.017 C 
ATOM     11  H   UNL A   1      34.306  23.705  27.377  1.00  0.00     0.049 H 
ATOM     12  H   UNL A   1      33.377  23.481  25.865  1.00  0.00     0.049 H 
BRANCH  10  13
ATOM     13  N   UNL A   1      34.922  22.204  26.132  1.00  0.00    -0.356 N 
ATOM     14  C   UNL A   1      34.802  21.333  25.096  1.00  0.00     0.227 C 
ATOM     15  O   UNL A   1      35.687  20.464  25.048  1.00  0.00    -0.274 OA
ATOM     16  H   UNL A   1      35.496  21.892  26.869  1.00  0.00     0.163 HD
BRANCH  14  17
ATOM     17  C   UNL A   1      33.640  21.256  24.086  1.00  0.00     0.060 C 
ATOM     18  H   UNL A   1      34.077  21.006  23.142  1.00  0.00     0.045 H 
BRANCH  17  19
ATOM     19  C   UNL A   1      32.682  20.190  24.663  1.00  0.00    -0.049 C 
ATOM     20  H   UNL A   1      32.818  20.124  25.723  1.00  0.00     0.024 H 
ATOM     21  H   UNL A   1      32.894  19.240  24.218  1.00  0.00     0.024 H 
ATOM     22  H   UNL A   1      31.670  20.464  24.450  1.00  0.00     0.024 H 
ENDBRANCH  17  19
BRANCH  17  23
ATOM     23  C   UNL A   1      32.929  22.522  23.605  1.00  0.00    -0.034 A 
ATOM     24  C   UNL A   1      33.491  23.340  22.610  1.00  0.00    -0.057 A 
ATOM     25  C   UNL A   1      31.665  22.879  24.113  1.00  0.00    -0.034 A 
ATOM     26  C   UNL A   1      32.909  24.575  22.247  1.00  0.00    -0.052 A 
ATOM     27  H   UNL A   1      34.351  23.030  22.131  1.00  0.00     0.063 H 
ATOM     28  C   UNL A   1      31.087  24.091  23.724  1.00  0.00     0.047 A 
ATOM     29  H   UNL A   1      31.170  22.253  24.766  1.00  0.00     0.065 H 
ATOM     30  C   UNL A   1      31.694  24.978  22.843  1.00  0.00     0.007 A 
ATOM     31  H   UNL A   1      33.371  25.181  21.551  1.00  0.00     0.063 H 
ATOM     32  N   UNL A   1      29.893  24.643  24.109  1.00  0.00    -0.355 N 
ATOM     33  C   UNL A   1      30.875  26.160  22.811  1.00  0.00     0.009 A 
ATOM     34  C   UNL A   1      29.776  25.926  23.640  1.00  0.00     0.047 A 
ATOM     35  H   UNL A   1      29.211  24.181  24.649  1.00  0.00     0.167 HD
ATOM     36  C   UNL A   1      30.977  27.422  22.187  1.00  0.00    -0.033 A 
ATOM     37  C   UNL A   1      28.786  26.879  23.901  1.00  0.00    -0.036 A 
ATOM     38  C   UNL A   1      29.998  28.391  22.449  1.00  0.00     0.041 A 
ATOM     39  H   UNL A   1      31.760  27.628  21.547  1.00  0.00     0.065 H 
ATOM     40  C   UNL A   1      28.924  28.129  23.296  1.00  0.00    -0.041 A 
ATOM     41  H   UNL A   1      27.984  26.666  24.515  1.00  0.00     0.065 H 
ATOM     42  Cl  UNL A   1      30.132  29.948  21.724  1.00  0.00    -0.084 Cl
ATOM     43  H   UNL A   1      28.224  28.866  23.478  1.00  0.00     0.064 H 
ENDBRANCH  17  23
ENDBRANCH  14  17
ENDBRANCH  10  13
ENDBRANCH   7  10
ENDBRANCH   4   7
ENDBRANCH   1   4
BRANCH   1  44
ATOM     44  C   UNL A   1      32.388  27.587  25.799  1.00  0.00    -0.036 C 
ATOM     45  H   UNL A   1      31.754  27.831  26.626  1.00  0.00     0.028 H 
ATOM     46  H   UNL A   1      31.867  27.413  24.881  1.00  0.00     0.028 H 
BRANCH  44  47
ATOM     47  C   UNL A   1      33.289  28.786  25.535  1.00  0.00     0.018 C 
ATOM     48  H   UNL A   1      33.489  28.836  24.485  1.00  0.00     0.049 H 
ATOM     49  H   UNL A   1      34.182  28.643  26.109  1.00  0.00     0.049 H 
BRANCH  47  50
ATOM     50  N   UNL A   1      32.708  30.048  25.954  1.00  0.00    -0.352 N 
ATOM     51  C   UNL A   1      33.163  30.945  26.895  1.00  0.00     0.251 C 
ATOM     52  H   UNL A   1      31.869  30.298  25.502  1.00  0.00     0.163 HD
ATOM     53  O   UNL A   1      32.490  31.914  27.210  1.00  0.00    -0.269 OA
BRANCH  51  54
ATOM     54  C   UNL A   1      34.470  30.711  27.549  1.00  0.00     0.039 A 
ATOM     55  C   UNL A   1      35.372  31.772  27.658  1.00  0.00    -0.049 A 
ATOM     56  C   UNL A   1      34.797  29.452  28.060  1.00  0.00    -0.049 A 
ATOM     57  C   UNL A   1      36.578  31.589  28.340  1.00  0.00    -0.053 A 
ATOM     58  H   UNL A   1      35.149  32.688  27.237  1.00  0.00     0.063 H 
ATOM     59  C   UNL A   1      35.960  29.293  28.805  1.00  0.00    -0.053 A 
ATOM     60  H   UNL A   1      34.177  28.646  27.887  1.00  0.00     0.063 H 
ATOM     61  C   UNL A   1      36.867  30.357  28.946  1.00  0.00    -0.014 A 
ATOM     62  H   UNL A   1      37.260  32.363  28.399  1.00  0.00     0.063 H 
ATOM     63  H   UNL A   1      36.159  28.387  29.256  1.00  0.00     0.063 H 
BRANCH  61  64
ATOM     64  C   UNL A   1      38.120  30.126  29.708  1.00  0.00     0.031 A 
ATOM     65  C   UNL A   1      39.152  29.183  29.161  1.00  0.00     0.074 A 
ATOM     66  C   UNL A   1      38.281  30.675  30.927  1.00  0.00     0.049 A 
ATOM     67  N   UNL A   1      40.227  28.703  29.733  1.00  0.00    -0.248 NA
ATOM     68  C   UNL A   1      38.920  28.682  27.798  1.00  0.00    -0.034 C 
ATOM     69  C   UNL A   1      37.339  31.583  31.578  1.00  0.00    -0.036 A 
ATOM     70  N   UNL A   1      39.288  30.519  31.848  1.00  0.00    -0.354 N 
ATOM     71  C   UNL A   1      40.778  27.821  28.812  1.00  0.00     0.074 A 
ATOM     72  C   UNL A   1      39.892  27.794  27.668  1.00  0.00    -0.034 C 
ATOM     73  H   UNL A   1      38.190  28.953  27.121  1.00  0.00     0.065 H 
ATOM     74  C   UNL A   1      37.810  31.906  32.794  1.00  0.00    -0.036 A 
ATOM     75  H   UNL A   1      36.454  31.923  31.169  1.00  0.00     0.065 H 
ATOM     76  C   UNL A   1      39.062  31.189  33.026  1.00  0.00     0.049 A 
ATOM     77  H   UNL A   1      40.093  29.979  31.682  1.00  0.00     0.167 HD
ATOM     78  C   UNL A   1      41.927  27.110  28.907  1.00  0.00     0.037 A 
ATOM     79  H   UNL A   1      40.005  27.166  26.858  1.00  0.00     0.065 H 
ATOM     80  H   UNL A   1      37.361  32.557  33.457  1.00  0.00     0.065 H 
ATOM     81  C   UNL A   1      39.770  31.205  34.171  1.00  0.00     0.037 A 
ATOM     82  C   UNL A   1      42.812  27.161  30.040  1.00  0.00     0.049 A 
ATOM     83  C   UNL A   1      41.040  30.401  34.262  1.00  0.00     0.074 A 
ATOM     84  C   UNL A   1      44.031  26.529  30.213  1.00  0.00    -0.036 A 
ATOM     85  N   UNL A   1      42.567  27.883  31.200  1.00  0.00    -0.354 N 
ATOM     86  N   UNL A   1      41.584  29.612  33.368  1.00  0.00    -0.248 NA
ATOM     87  C   UNL A   1      41.796  30.492  35.519  1.00  0.00    -0.034 C 
ATOM     88  C   UNL A   1      44.496  26.823  31.499  1.00  0.00    -0.036 A 
ATOM     89  H   UNL A   1      44.512  25.942  29.515  1.00  0.00     0.065 H 
ATOM     90  C   UNL A   1      43.602  27.694  32.102  1.00  0.00     0.049 A 
ATOM     91  H   UNL A   1      41.776  28.447  31.358  1.00  0.00     0.167 HD
ATOM     92  C   UNL A   1      42.762  29.144  33.934  1.00  0.00     0.074 A 
ATOM     93  C   UNL A   1      42.853  29.735  35.254  1.00  0.00    -0.034 C 
ATOM     94  H   UNL A   1      41.566  31.010  36.381  1.00  0.00     0.065 H 
ATOM     95  H   UNL A   1      45.360  26.454  31.926  1.00  0.00     0.065 H 
ATOM     96  C   UNL A   1      43.687  28.306  33.405  1.00  0.00     0.037 A 
ATOM     97  H   UNL A   1      43.640  29.586  35.904  1.00  0.00     0.065 H 
BRANCH  78  98
ATOM     98  C   UNL A   1      42.275  26.205  27.759  1.00  0.00     0.064 A 
ATOM     99  C   UNL A   1      41.700  24.932  27.616  1.00  0.00     0.173 A 
ATOM    100  C   UNL A   1      43.200  26.615  26.788  1.00  0.00     0.173 A 
ATOM    101  F   UNL A   1      40.816  24.485  28.522  1.00  0.00    -0.203 F 
ATOM    102  C   UNL A   1      42.077  24.086  26.576  1.00  0.00     0.198 A 
ATOM    103  C   UNL A   1      43.546  25.781  25.726  1.00  0.00     0.198 A 
ATOM    104  F   UNL A   1      43.775  27.825  26.866  1.00  0.00    -0.203 F 
ATOM    105  F   UNL A   1      41.570  22.846  26.506  1.00  0.00    -0.200 F 
ATOM    106  C   UNL A   1      42.995  24.512  25.630  1.00  0.00     0.200 A 
ATOM    107  F   UNL A   1      44.421  26.203  24.803  1.00  0.00    -0.200 F 
ATOM    108  F   UNL A   1      43.359  23.696  24.631  1.00  0.00    -0.200 F 
ENDBRANCH  78  98
BRANCH  81 109
ATOM    109  C   UNL A   1      39.296  32.028  35.314  1.00  0.00     0.064 A 
ATOM    110  C   UNL A   1      39.607  33.392  35.396  1.00  0.00     0.173 A 
ATOM    111  C   UNL A   1      38.498  31.479  36.328  1.00  0.00     0.173 A 
ATOM    112  F   UNL A   1      40.383  33.960  34.460  1.00  0.00    -0.203 F 
ATOM    113  C   UNL A   1      39.144  34.175  36.452  1.00  0.00     0.198 A 
ATOM    114  C   UNL A   1      38.012  32.269  37.369  1.00  0.00     0.198 A 
ATOM    115  F   UNL A   1      38.165  30.180  36.292  1.00  0.00    -0.203 F 
ATOM    116  F   UNL A   1      39.481  35.470  36.521  1.00  0.00    -0.200 F 
ATOM    117  C   UNL A   1      38.339  33.614  37.432  1.00  0.00     0.200 A 
ATOM    118  F   UNL A   1      37.221  31.727  38.304  1.00  0.00    -0.200 F 
ATOM    119  F   UNL A   1      37.881  34.370  38.439  1.00  0.00    -0.200 F 
ENDBRANCH  81 109
BRANCH  96 120
ATOM    120  C   UNL A   1      44.917  28.019  34.218  1.00  0.00     0.064 A 
ATOM    121  C   UNL A   1      45.009  26.899  35.055  1.00  0.00     0.173 A 
ATOM    122  C   UNL A   1      46.050  28.838  34.088  1.00  0.00     0.173 A 
ATOM    123  F   UNL A   1      43.951  26.092  35.225  1.00  0.00    -0.203 F 
ATOM    124  C   UNL A   1      46.188  26.615  35.741  1.00  0.00     0.198 A 
ATOM    125  C   UNL A   1      47.235  28.534  34.751  1.00  0.00     0.198 A 
ATOM    126  F   UNL A   1      46.015  29.919  33.294  1.00  0.00    -0.203 F 
ATOM    127  F   UNL A   1      46.245  25.557  36.561  1.00  0.00    -0.200 F 
ATOM    128  C   UNL A   1      47.303  27.425  35.579  1.00  0.00     0.200 A 
ATOM    129  F   UNL A   1      48.315  29.310  34.578  1.00  0.00    -0.200 F 
ATOM    130  F   UNL A   1      48.442  27.138  36.224  1.00  0.00    -0.200 F 
ENDBRANCH  96 120
ENDBRANCH  61  64
ENDBRANCH  51  54
ENDBRANCH  47  50
ENDBRANCH  44  47
ENDBRANCH   1  44
TORSDOF 15
ENDMDL
MODEL 3
REMARK VINA RESULT:     -12.3      2.885      8.804
REMARK SMILES C[C@H](C(=O)NCCCCCCNC(=O)c1ccc(-c2c3nc(c(-c4c(F)c(F)c(F)c(F)c4F)c4ccc([nH]4)c(-c4c(F)c(F)c(F)c(F)c4F)c4nc(c(-c5c(F)c(F)c(F)c(F)c5F)c5ccc2[nH]5)C=C4)C=C3)cc1)c1ccc2c(c1)[nH]c1ccc(Cl)cc12
REMARK SMILES IDX 9 1 8 4 7 7 6 10 5 13 3 14 4 15 2 17 1 19 78 23 79 24 83 25
REMARK SMILES IDX 80 26 82 28 81 30 84 32 91 33 85 34 90 36 86 37 88 38 87 40
REMARK SMILES IDX 89 42 10 44 11 47 12 50 13 51 14 53 15 54 16 55 77 56 17 57
REMARK SMILES IDX 76 59 18 61 19 64 20 65 70 66 21 67 75 68 69 69 71 70 22 71
REMARK SMILES IDX 74 72 68 74 67 76 23 78 55 81 35 82 54 83 36 84 39 85 53 86
REMARK SMILES IDX 72 87 37 88 38 90 52 92 73 93 40 96 24 98 25 99 33 100
REMARK SMILES IDX 26 101 27 102 31 103 34 104 28 105 29 106 32 107 30 108
REMARK SMILES IDX 56 109 57 110 65 111 58 112 59 113 63 114 66 115 60 116
REMARK SMILES IDX 61 117 64 118 62 119 41 120 42 121 50 122 43 123 44 124
REMARK SMILES IDX 48 125 51 126 45 127 46 128 49 129 47 130
REMARK H PARENT 9 2 9 3 8 5 8 6 7 8 7 9 6 11 6 12 5 16 2 18 1 20 1 21 1 22
REMARK H PARENT 79 27 83 29 80 31 84 35 90 39 86 41 87 43 10 45 10 46 11 48
REMARK H PARENT 11 49 12 52 16 58 77 60 17 62 76 63 75 73 69 75 71 77 74 79
REMARK H PARENT 68 80 36 89 39 91 72 94 37 95 73 97
REMARK Flexibility Score: inf
ROOT
ATOM      1  C   UNL A   1      34.434  33.478  29.247  1.00  0.00    -0.052 C 
ATOM      2  H   UNL A   1      35.189  34.037  29.761  1.00  0.00     0.027 H 
ATOM      3  H   UNL A   1      34.015  32.666  29.804  1.00  0.00     0.027 H 
ENDROOT
BRANCH   1   4
ATOM      4  C   UNL A   1      35.093  32.825  28.030  1.00  0.00    -0.052 C 
ATOM      5  H   UNL A   1      34.714  33.316  27.158  1.00  0.00     0.027 H 
ATOM      6  H   UNL A   1      36.144  32.935  28.200  1.00  0.00     0.027 H 
BRANCH   4   7
ATOM      7  C   UNL A   1      34.890  31.321  27.833  1.00  0.00    -0.036 C 
ATOM      8  H   UNL A   1      35.655  30.979  27.169  1.00  0.00     0.028 H 
ATOM      9  H   UNL A   1      34.920  30.912  28.821  1.00  0.00     0.028 H 
BRANCH   7  10
ATOM     10  C   UNL A   1      33.553  30.855  27.266  1.00  0.00     0.017 C 
ATOM     11  H   UNL A   1      33.089  30.219  27.990  1.00  0.00     0.049 H 
ATOM     12  H   UNL A   1      32.991  31.741  27.056  1.00  0.00     0.049 H 
BRANCH  10  13
ATOM     13  N   UNL A   1      33.642  30.127  26.023  1.00  0.00    -0.356 N 
ATOM     14  C   UNL A   1      33.181  28.893  25.693  1.00  0.00     0.227 C 
ATOM     15  O   UNL A   1      33.088  28.687  24.472  1.00  0.00    -0.274 OA
ATOM     16  H   UNL A   1      34.112  30.600  25.299  1.00  0.00     0.163 HD
BRANCH  14  17
ATOM     17  C   UNL A   1      32.892  27.726  26.659  1.00  0.00     0.060 C 
ATOM     18  H   UNL A   1      33.765  27.616  27.267  1.00  0.00     0.045 H 
BRANCH  17  19
ATOM     19  C   UNL A   1      31.615  28.148  27.420  1.00  0.00    -0.049 C 
ATOM     20  H   UNL A   1      31.769  28.025  28.472  1.00  0.00     0.024 H 
ATOM     21  H   UNL A   1      30.794  27.537  27.107  1.00  0.00     0.024 H 
ATOM     22  H   UNL A   1      31.395  29.173  27.209  1.00  0.00     0.024 H 
ENDBRANCH  17  19
BRANCH  17  23
ATOM     23  C   UNL A   1      32.859  26.280  26.160  1.00  0.00    -0.034 A 
ATOM     24  C   UNL A   1      31.642  25.602  25.971  1.00  0.00    -0.057 A 
ATOM     25  C   UNL A   1      34.047  25.602  25.830  1.00  0.00    -0.034 A 
ATOM     26  C   UNL A   1      31.601  24.231  25.635  1.00  0.00    -0.052 A 
ATOM     27  H   UNL A   1      30.756  26.119  26.081  1.00  0.00     0.063 H 
ATOM     28  C   UNL A   1      33.990  24.252  25.471  1.00  0.00     0.047 A 
ATOM     29  H   UNL A   1      34.953  26.096  25.855  1.00  0.00     0.065 H 
ATOM     30  C   UNL A   1      32.805  23.528  25.411  1.00  0.00     0.007 A 
ATOM     31  H   UNL A   1      30.694  23.744  25.553  1.00  0.00     0.063 H 
ATOM     32  N   UNL A   1      35.012  23.400  25.140  1.00  0.00    -0.355 N 
ATOM     33  C   UNL A   1      33.165  22.159  25.158  1.00  0.00     0.009 A 
ATOM     34  C   UNL A   1      34.554  22.113  25.027  1.00  0.00     0.047 A 
ATOM     35  H   UNL A   1      35.947  23.676  25.002  1.00  0.00     0.167 HD
ATOM     36  C   UNL A   1      32.451  20.946  25.062  1.00  0.00    -0.033 A 
ATOM     37  C   UNL A   1      35.275  20.930  24.829  1.00  0.00    -0.036 A 
ATOM     38  C   UNL A   1      33.161  19.752  24.875  1.00  0.00     0.041 A 
ATOM     39  H   UNL A   1      31.421  20.938  25.127  1.00  0.00     0.065 H 
ATOM     40  C   UNL A   1      34.549  19.740  24.767  1.00  0.00    -0.041 A 
ATOM     41  H   UNL A   1      36.302  20.938  24.731  1.00  0.00     0.065 H 
ATOM     42  Cl  UNL A   1      32.303  18.260  24.795  1.00  0.00    -0.084 Cl
ATOM     43  H   UNL A   1      35.046  18.844  24.640  1.00  0.00     0.064 H 
ENDBRANCH  17  23
ENDBRANCH  14  17
ENDBRANCH  10  13
ENDBRANCH   7  10
ENDBRANCH   4   7
ENDBRANCH   1   4
BRANCH   1  44
ATOM     44  C   UNL A   1      33.263  34.421  28.980  1.00  0.00    -0.036 C 
ATOM     45  H   UNL A   1      32.406  34.029  29.488  1.00  0.00     0.028 H 
ATOM     46  H   UNL A   1      33.163  34.460  27.915  1.00  0.00     0.028 H 
BRANCH  44  47
ATOM     47  C   UNL A   1      33.448  35.865  29.425  1.00  0.00     0.018 C 
ATOM     48  H   UNL A   1      33.259  36.505  28.588  1.00  0.00     0.049 H 
ATOM     49  H   UNL A   1      34.451  35.958  29.788  1.00  0.00     0.049 H 
BRANCH  47  50
ATOM     50  N   UNL A   1      32.563  36.252  30.509  1.00  0.00    -0.352 N 
ATOM     51  C   UNL A   1      32.623  35.914  31.842  1.00  0.00     0.251 C 
ATOM     52  H   UNL A   1      31.814  36.839  30.255  1.00  0.00     0.163 HD
ATOM     53  O   UNL A   1      31.729  36.236  32.609  1.00  0.00    -0.269 OA
BRANCH  51  54
ATOM     54  C   UNL A   1      33.773  35.125  32.341  1.00  0.00     0.039 A 
ATOM     55  C   UNL A   1      33.551  33.830  32.816  1.00  0.00    -0.049 A 
ATOM     56  C   UNL A   1      35.064  35.660  32.327  1.00  0.00    -0.049 A 
ATOM     57  C   UNL A   1      34.634  33.044  33.218  1.00  0.00    -0.053 A 
ATOM     58  H   UNL A   1      32.590  33.455  32.869  1.00  0.00     0.063 H 
ATOM     59  C   UNL A   1      36.146  34.851  32.653  1.00  0.00    -0.053 A 
ATOM     60  H   UNL A   1      35.212  36.649  32.075  1.00  0.00     0.063 H 
ATOM     61  C   UNL A   1      35.943  33.537  33.109  1.00  0.00    -0.014 A 
ATOM     62  H   UNL A   1      34.471  32.097  33.596  1.00  0.00     0.063 H 
ATOM     63  H   UNL A   1      37.106  35.218  32.560  1.00  0.00     0.063 H 
BRANCH  61  64
ATOM     64  C   UNL A   1      37.126  32.728  33.494  1.00  0.00     0.031 A 
ATOM     65  C   UNL A   1      37.836  33.025  34.783  1.00  0.00     0.074 A 
ATOM     66  C   UNL A   1      37.621  31.807  32.644  1.00  0.00     0.049 A 
ATOM     67  N   UNL A   1      38.978  32.567  35.229  1.00  0.00    -0.248 NA
ATOM     68  C   UNL A   1      37.188  33.999  35.673  1.00  0.00    -0.034 C 
ATOM     69  C   UNL A   1      37.039  31.449  31.352  1.00  0.00    -0.036 A 
ATOM     70  N   UNL A   1      38.748  31.028  32.732  1.00  0.00    -0.354 N 
ATOM     71  C   UNL A   1      39.199  33.224  36.432  1.00  0.00     0.074 A 
ATOM     72  C   UNL A   1      38.101  34.146  36.621  1.00  0.00    -0.034 C 
ATOM     73  H   UNL A   1      36.265  34.451  35.583  1.00  0.00     0.065 H 
ATOM     74  C   UNL A   1      37.812  30.519  30.766  1.00  0.00    -0.036 A 
ATOM     75  H   UNL A   1      36.173  31.845  30.954  1.00  0.00     0.065 H 
ATOM     76  C   UNL A   1      38.968  30.254  31.619  1.00  0.00     0.049 A 
ATOM     77  H   UNL A   1      39.342  31.025  33.517  1.00  0.00     0.167 HD
ATOM     78  C   UNL A   1      40.220  33.060  37.308  1.00  0.00     0.037 A 
ATOM     79  H   UNL A   1      38.036  34.828  37.393  1.00  0.00     0.065 H 
ATOM     80  H   UNL A   1      37.619  30.065  29.859  1.00  0.00     0.065 H 
ATOM     81  C   UNL A   1      39.996  29.441  31.310  1.00  0.00     0.037 A 
ATOM     82  C   UNL A   1      41.296  32.123  37.122  1.00  0.00     0.049 A 
ATOM     83  C   UNL A   1      41.127  29.279  32.292  1.00  0.00     0.074 A 
ATOM     84  C   UNL A   1      42.346  31.835  37.976  1.00  0.00    -0.036 A 
ATOM     85  N   UNL A   1      41.463  31.328  35.998  1.00  0.00    -0.354 N 
ATOM     86  N   UNL A   1      41.302  29.860  33.453  1.00  0.00    -0.248 NA
ATOM     87  C   UNL A   1      42.199  28.344  31.922  1.00  0.00    -0.034 C 
ATOM     88  C   UNL A   1      43.179  30.906  37.343  1.00  0.00    -0.036 A 
ATOM     89  H   UNL A   1      42.490  32.235  38.915  1.00  0.00     0.065 H 
ATOM     90  C   UNL A   1      42.612  30.564  36.125  1.00  0.00     0.049 A 
ATOM     91  H   UNL A   1      40.855  31.308  35.224  1.00  0.00     0.167 HD
ATOM     92  C   UNL A   1      42.479  29.337  33.971  1.00  0.00     0.074 A 
ATOM     93  C   UNL A   1      42.979  28.391  32.994  1.00  0.00    -0.034 C 
ATOM     94  H   UNL A   1      42.314  27.794  31.057  1.00  0.00     0.065 H 
ATOM     95  H   UNL A   1      44.066  30.537  37.720  1.00  0.00     0.065 H 
ATOM     96  C   UNL A   1      43.086  29.611  35.152  1.00  0.00     0.037 A 
ATOM     97  H   UNL A   1      43.834  27.826  33.117  1.00  0.00     0.065 H 
BRANCH  78  98
ATOM     98  C   UNL A   1      40.222  33.928  38.535  1.00  0.00     0.064 A 
ATOM     99  C   UNL A   1      39.543  33.560  39.707  1.00  0.00     0.173 A 
ATOM    100  C   UNL A   1      40.911  35.150  38.538  1.00  0.00     0.173 A 
ATOM    101  F   UNL A   1      38.859  32.406  39.757  1.00  0.00    -0.203 F 
ATOM    102  C   UNL A   1      39.510  34.404  40.814  1.00  0.00     0.198 A 
ATOM    103  C   UNL A   1      40.909  35.974  39.661  1.00  0.00     0.198 A 
ATOM    104  F   UNL A   1      41.586  35.551  37.450  1.00  0.00    -0.203 F 
ATOM    105  F   UNL A   1      38.791  34.062  41.894  1.00  0.00    -0.200 F 
ATOM    106  C   UNL A   1      40.197  35.607  40.793  1.00  0.00     0.200 A 
ATOM    107  F   UNL A   1      41.588  37.130  39.643  1.00  0.00    -0.200 F 
ATOM    108  F   UNL A   1      40.163  36.420  41.858  1.00  0.00    -0.200 F 
ENDBRANCH  78  98
BRANCH  81 109
ATOM    109  C   UNL A   1      39.987  28.708  30.018  1.00  0.00     0.064 A 
ATOM    110  C   UNL A   1      40.577  29.261  28.873  1.00  0.00     0.173 A 
ATOM    111  C   UNL A   1      39.422  27.429  29.907  1.00  0.00     0.173 A 
ATOM    112  F   UNL A   1      41.114  30.490  28.924  1.00  0.00    -0.203 F 
ATOM    113  C   UNL A   1      40.594  28.568  27.664  1.00  0.00     0.198 A 
ATOM    114  C   UNL A   1      39.465  26.725  28.704  1.00  0.00     0.198 A 
ATOM    115  F   UNL A   1      38.853  26.851  30.975  1.00  0.00    -0.203 F 
ATOM    116  F   UNL A   1      41.138  29.133  26.577  1.00  0.00    -0.200 F 
ATOM    117  C   UNL A   1      40.047  27.296  27.584  1.00  0.00     0.200 A 
ATOM    118  F   UNL A   1      38.951  25.490  28.636  1.00  0.00    -0.200 F 
ATOM    119  F   UNL A   1      40.078  26.623  26.426  1.00  0.00    -0.200 F 
ENDBRANCH  81 109
BRANCH  96 120
ATOM    120  C   UNL A   1      44.327  28.839  35.496  1.00  0.00     0.064 A 
ATOM    121  C   UNL A   1      44.275  27.615  36.177  1.00  0.00     0.173 A 
ATOM    122  C   UNL A   1      45.581  29.296  35.059  1.00  0.00     0.173 A 
ATOM    123  F   UNL A   1      43.104  27.141  36.628  1.00  0.00    -0.203 F 
ATOM    124  C   UNL A   1      45.435  26.883  36.419  1.00  0.00     0.198 A 
ATOM    125  C   UNL A   1      46.733  28.547  35.275  1.00  0.00     0.198 A 
ATOM    126  F   UNL A   1      45.682  30.458  34.397  1.00  0.00    -0.203 F 
ATOM    127  F   UNL A   1      45.368  25.731  37.100  1.00  0.00    -0.200 F 
ATOM    128  C   UNL A   1      46.660  27.342  35.957  1.00  0.00     0.200 A 
ATOM    129  F   UNL A   1      47.912  28.986  34.813  1.00  0.00    -0.200 F 
ATOM    130  F   UNL A   1      47.771  26.625  36.172  1.00  0.00    -0.200 F 
ENDBRANCH  96 120
ENDBRANCH  61  64
ENDBRANCH  51  54
ENDBRANCH  47  50
ENDBRANCH  44  47
ENDBRANCH   1  44
TORSDOF 15
ENDMDL
MODEL 4
REMARK VINA RESULT:     -12.2      4.523      9.660
REMARK SMILES C[C@H](C(=O)NCCCCCCNC(=O)c1ccc(-c2c3nc(c(-c4c(F)c(F)c(F)c(F)c4F)c4ccc([nH]4)c(-c4c(F)c(F)c(F)c(F)c4F)c4nc(c(-c5c(F)c(F)c(F)c(F)c5F)c5ccc2[nH]5)C=C4)C=C3)cc1)c1ccc2c(c1)[nH]c1ccc(Cl)cc12
REMARK SMILES IDX 9 1 8 4 7 7 6 10 5 13 3 14 4 15 2 17 1 19 78 23 79 24 83 25
REMARK SMILES IDX 80 26 82 28 81 30 84 32 91 33 85 34 90 36 86 37 88 38 87 40
REMARK SMILES IDX 89 42 10 44 11 47 12 50 13 51 14 53 15 54 16 55 77 56 17 57
REMARK SMILES IDX 76 59 18 61 19 64 20 65 70 66 21 67 75 68 69 69 71 70 22 71
REMARK SMILES IDX 74 72 68 74 67 76 23 78 55 81 35 82 54 83 36 84 39 85 53 86
REMARK SMILES IDX 72 87 37 88 38 90 52 92 73 93 40 96 24 98 25 99 33 100
REMARK SMILES IDX 26 101 27 102 31 103 34 104 28 105 29 106 32 107 30 108
REMARK SMILES IDX 56 109 57 110 65 111 58 112 59 113 63 114 66 115 60 116
REMARK SMILES IDX 61 117 64 118 62 119 41 120 42 121 50 122 43 123 44 124
REMARK SMILES IDX 48 125 51 126 45 127 46 128 49 129 47 130
REMARK H PARENT 9 2 9 3 8 5 8 6 7 8 7 9 6 11 6 12 5 16 2 18 1 20 1 21 1 22
REMARK H PARENT 79 27 83 29 80 31 84 35 90 39 86 41 87 43 10 45 10 46 11 48
REMARK H PARENT 11 49 12 52 16 58 77 60 17 62 76 63 75 73 69 75 71 77 74 79
REMARK H PARENT 68 80 36 89 39 91 72 94 37 95 73 97
REMARK Flexibility Score: inf
ROOT
ATOM      1  C   UNL A   1      37.067  21.088  24.658  1.00  0.00    -0.052 C 
ATOM      2  H   UNL A   1      37.495  21.970  25.089  1.00  0.00     0.027 H 
ATOM      3  H   UNL A   1      36.994  21.098  23.590  1.00  0.00     0.027 H 
ENDROOT
BRANCH   1   4
ATOM      4  C   UNL A   1      35.624  20.986  25.154  1.00  0.00    -0.052 C 
ATOM      5  H   UNL A   1      34.984  21.208  24.325  1.00  0.00     0.027 H 
ATOM      6  H   UNL A   1      35.542  19.994  25.546  1.00  0.00     0.027 H 
BRANCH   4   7
ATOM      7  C   UNL A   1      35.203  21.895  26.312  1.00  0.00    -0.036 C 
ATOM      8  H   UNL A   1      36.052  22.011  26.952  1.00  0.00     0.028 H 
ATOM      9  H   UNL A   1      34.856  22.790  25.840  1.00  0.00     0.028 H 
BRANCH   7  10
ATOM     10  C   UNL A   1      34.036  21.441  27.181  1.00  0.00     0.017 C 
ATOM     11  H   UNL A   1      33.470  20.722  26.628  1.00  0.00     0.049 H 
ATOM     12  H   UNL A   1      34.466  21.045  28.077  1.00  0.00     0.049 H 
BRANCH  10  13
ATOM     13  N   UNL A   1      33.141  22.494  27.594  1.00  0.00    -0.356 N 
ATOM     14  C   UNL A   1      32.253  23.227  26.872  1.00  0.00     0.227 C 
ATOM     15  O   UNL A   1      31.382  23.795  27.550  1.00  0.00    -0.274 OA
ATOM     16  H   UNL A   1      33.180  22.719  28.552  1.00  0.00     0.163 HD
BRANCH  14  17
ATOM     17  C   UNL A   1      32.302  23.504  25.357  1.00  0.00     0.060 C 
ATOM     18  H   UNL A   1      33.321  23.733  25.126  1.00  0.00     0.045 H 
BRANCH  17  19
ATOM     19  C   UNL A   1      31.758  22.217  24.699  1.00  0.00    -0.049 C 
ATOM     20  H   UNL A   1      31.153  21.684  25.403  1.00  0.00     0.024 H 
ATOM     21  H   UNL A   1      32.576  21.598  24.392  1.00  0.00     0.024 H 
ATOM     22  H   UNL A   1      31.167  22.474  23.845  1.00  0.00     0.024 H 
ENDBRANCH  17  19
BRANCH  17  23
ATOM     23  C   UNL A   1      31.712  24.788  24.771  1.00  0.00    -0.034 A 
ATOM     24  C   UNL A   1      32.520  25.908  24.505  1.00  0.00    -0.057 A 
ATOM     25  C   UNL A   1      30.347  24.870  24.437  1.00  0.00    -0.034 A 
ATOM     26  C   UNL A   1      31.969  27.139  24.086  1.00  0.00    -0.052 A 
ATOM     27  H   UNL A   1      33.542  25.827  24.620  1.00  0.00     0.063 H 
ATOM     28  C   UNL A   1      29.820  26.087  23.996  1.00  0.00     0.047 A 
ATOM     29  H   UNL A   1      29.740  24.039  24.518  1.00  0.00     0.065 H 
ATOM     30  C   UNL A   1      30.580  27.242  23.857  1.00  0.00     0.007 A 
ATOM     31  H   UNL A   1      32.580  27.959  23.948  1.00  0.00     0.063 H 
ATOM     32  N   UNL A   1      28.531  26.396  23.645  1.00  0.00    -0.355 N 
ATOM     33  C   UNL A   1      29.668  28.306  23.532  1.00  0.00     0.009 A 
ATOM     34  C   UNL A   1      28.392  27.745  23.441  1.00  0.00     0.047 A 
ATOM     35  H   UNL A   1      27.803  25.739  23.552  1.00  0.00     0.167 HD
ATOM     36  C   UNL A   1      29.793  29.698  23.342  1.00  0.00    -0.033 A 
ATOM     37  C   UNL A   1      27.234  28.490  23.193  1.00  0.00    -0.036 A 
ATOM     38  C   UNL A   1      28.639  30.459  23.105  1.00  0.00     0.041 A 
ATOM     39  H   UNL A   1      30.720  30.151  23.376  1.00  0.00     0.065 H 
ATOM     40  C   UNL A   1      27.380  29.868  23.038  1.00  0.00    -0.041 A 
ATOM     41  H   UNL A   1      26.309  28.037  23.127  1.00  0.00     0.065 H 
ATOM     42  Cl  UNL A   1      28.775  32.165  22.910  1.00  0.00    -0.084 Cl
ATOM     43  H   UNL A   1      26.547  30.456  22.873  1.00  0.00     0.064 H 
ENDBRANCH  17  23
ENDBRANCH  14  17
ENDBRANCH  10  13
ENDBRANCH   7  10
ENDBRANCH   4   7
ENDBRANCH   1   4
BRANCH   1  44
ATOM     44  C   UNL A   1      37.997  19.920  24.979  1.00  0.00    -0.036 C 
ATOM     45  H   UNL A   1      38.348  19.517  24.052  1.00  0.00     0.028 H 
ATOM     46  H   UNL A   1      37.411  19.239  25.561  1.00  0.00     0.028 H 
BRANCH  44  47
ATOM     47  C   UNL A   1      39.213  20.244  25.835  1.00  0.00     0.018 C 
ATOM     48  H   UNL A   1      38.883  20.438  26.835  1.00  0.00     0.049 H 
ATOM     49  H   UNL A   1      39.691  21.096  25.396  1.00  0.00     0.049 H 
BRANCH  47  50
ATOM     50  N   UNL A   1      40.194  19.175  25.873  1.00  0.00    -0.352 N 
ATOM     51  C   UNL A   1      41.552  19.248  26.083  1.00  0.00     0.251 C 
ATOM     52  H   UNL A   1      39.837  18.268  25.729  1.00  0.00     0.163 HD
ATOM     53  O   UNL A   1      42.256  18.257  25.972  1.00  0.00    -0.269 OA
BRANCH  51  54
ATOM     54  C   UNL A   1      42.166  20.554  26.418  1.00  0.00     0.039 A 
ATOM     55  C   UNL A   1      42.594  21.387  25.381  1.00  0.00    -0.049 A 
ATOM     56  C   UNL A   1      42.305  20.956  27.749  1.00  0.00    -0.049 A 
ATOM     57  C   UNL A   1      43.104  22.655  25.676  1.00  0.00    -0.053 A 
ATOM     58  H   UNL A   1      42.534  21.068  24.401  1.00  0.00     0.063 H 
ATOM     59  C   UNL A   1      42.739  22.245  28.036  1.00  0.00    -0.053 A 
ATOM     60  H   UNL A   1      42.086  20.300  28.514  1.00  0.00     0.063 H 
ATOM     61  C   UNL A   1      43.151  23.105  27.003  1.00  0.00    -0.014 A 
ATOM     62  H   UNL A   1      43.448  23.262  24.914  1.00  0.00     0.063 H 
ATOM     63  H   UNL A   1      42.760  22.572  29.014  1.00  0.00     0.063 H 
BRANCH  61  64
ATOM     64  C   UNL A   1      43.654  24.455  27.361  1.00  0.00     0.031 A 
ATOM     65  C   UNL A   1      42.696  25.481  27.895  1.00  0.00     0.074 A 
ATOM     66  C   UNL A   1      44.934  24.789  27.109  1.00  0.00     0.049 A 
ATOM     67  N   UNL A   1      42.879  26.760  28.106  1.00  0.00    -0.248 NA
ATOM     68  C   UNL A   1      41.337  25.009  28.197  1.00  0.00    -0.034 C 
ATOM     69  C   UNL A   1      45.951  23.891  26.566  1.00  0.00    -0.036 A 
ATOM     70  N   UNL A   1      45.586  25.989  27.250  1.00  0.00    -0.354 N 
ATOM     71  C   UNL A   1      41.651  27.248  28.531  1.00  0.00     0.074 A 
ATOM     72  C   UNL A   1      40.720  26.140  28.500  1.00  0.00    -0.034 C 
ATOM     73  H   UNL A   1      40.962  24.048  28.178  1.00  0.00     0.065 H 
ATOM     74  C   UNL A   1      47.101  24.570  26.419  1.00  0.00    -0.036 A 
ATOM     75  H   UNL A   1      45.810  22.896  26.333  1.00  0.00     0.065 H 
ATOM     76  C   UNL A   1      46.888  25.960  26.812  1.00  0.00     0.049 A 
ATOM     77  H   UNL A   1      45.163  26.793  27.628  1.00  0.00     0.167 HD
ATOM     78  C   UNL A   1      41.332  28.504  28.927  1.00  0.00     0.037 A 
ATOM     79  H   UNL A   1      39.709  26.221  28.690  1.00  0.00     0.065 H 
ATOM     80  H   UNL A   1      47.992  24.172  26.083  1.00  0.00     0.065 H 
ATOM     81  C   UNL A   1      47.798  26.948  26.714  1.00  0.00     0.037 A 
ATOM     82  C   UNL A   1      42.270  29.593  28.976  1.00  0.00     0.049 A 
ATOM     83  C   UNL A   1      47.423  28.341  27.149  1.00  0.00     0.074 A 
ATOM     84  C   UNL A   1      42.066  30.889  29.418  1.00  0.00    -0.036 A 
ATOM     85  N   UNL A   1      43.591  29.515  28.559  1.00  0.00    -0.354 N 
ATOM     86  N   UNL A   1      46.276  28.783  27.602  1.00  0.00    -0.248 NA
ATOM     87  C   UNL A   1      48.470  29.368  27.063  1.00  0.00    -0.034 C 
ATOM     88  C   UNL A   1      43.249  31.609  29.215  1.00  0.00    -0.036 A 
ATOM     89  H   UNL A   1      41.195  31.259  29.826  1.00  0.00     0.065 H 
ATOM     90  C   UNL A   1      44.209  30.746  28.712  1.00  0.00     0.049 A 
ATOM     91  H   UNL A   1      44.026  28.705  28.206  1.00  0.00     0.167 HD
ATOM     92  C   UNL A   1      46.470  30.127  27.892  1.00  0.00     0.074 A 
ATOM     93  C   UNL A   1      47.847  30.430  27.560  1.00  0.00    -0.034 C 
ATOM     94  H   UNL A   1      49.436  29.286  26.711  1.00  0.00     0.065 H 
ATOM     95  H   UNL A   1      43.382  32.613  29.410  1.00  0.00     0.065 H 
ATOM     96  C   UNL A   1      45.588  31.025  28.395  1.00  0.00     0.037 A 
ATOM     97  H   UNL A   1      48.288  31.353  27.693  1.00  0.00     0.065 H 
BRANCH  78  98
ATOM     98  C   UNL A   1      39.904  28.762  29.319  1.00  0.00     0.064 A 
ATOM     99  C   UNL A   1      39.452  28.587  30.636  1.00  0.00     0.173 A 
ATOM    100  C   UNL A   1      38.971  29.188  28.361  1.00  0.00     0.173 A 
ATOM    101  F   UNL A   1      40.299  28.172  31.591  1.00  0.00    -0.203 F 
ATOM    102  C   UNL A   1      38.113  28.777  30.968  1.00  0.00     0.198 A 
ATOM    103  C   UNL A   1      37.641  29.416  28.704  1.00  0.00     0.198 A 
ATOM    104  F   UNL A   1      39.347  29.383  27.088  1.00  0.00    -0.203 F 
ATOM    105  F   UNL A   1      37.693  28.530  32.217  1.00  0.00    -0.200 F 
ATOM    106  C   UNL A   1      37.210  29.196  30.005  1.00  0.00     0.200 A 
ATOM    107  F   UNL A   1      36.773  29.838  27.774  1.00  0.00    -0.200 F 
ATOM    108  F   UNL A   1      35.921  29.377  30.324  1.00  0.00    -0.200 F 
ENDBRANCH  78  98
BRANCH  81 109
ATOM    109  C   UNL A   1      49.157  26.643  26.196  1.00  0.00     0.064 A 
ATOM    110  C   UNL A   1      49.498  26.919  24.865  1.00  0.00     0.173 A 
ATOM    111  C   UNL A   1      50.151  26.104  27.026  1.00  0.00     0.173 A 
ATOM    112  F   UNL A   1      48.576  27.418  24.027  1.00  0.00    -0.203 F 
ATOM    113  C   UNL A   1      50.778  26.659  24.380  1.00  0.00     0.198 A 
ATOM    114  C   UNL A   1      51.439  25.870  26.547  1.00  0.00     0.198 A 
ATOM    115  F   UNL A   1      49.878  25.829  28.310  1.00  0.00    -0.203 F 
ATOM    116  F   UNL A   1      51.069  26.903  23.095  1.00  0.00    -0.200 F 
ATOM    117  C   UNL A   1      51.750  26.143  25.225  1.00  0.00     0.200 A 
ATOM    118  F   UNL A   1      52.379  25.389  27.371  1.00  0.00    -0.200 F 
ATOM    119  F   UNL A   1      52.986  25.908  24.763  1.00  0.00    -0.200 F 
ENDBRANCH  81 109
BRANCH  96 120
ATOM    120  C   UNL A   1      46.090  32.412  28.682  1.00  0.00     0.064 A 
ATOM    121  C   UNL A   1      46.689  32.747  29.904  1.00  0.00     0.173 A 
ATOM    122  C   UNL A   1      46.043  33.395  27.681  1.00  0.00     0.173 A 
ATOM    123  F   UNL A   1      46.746  31.847  30.898  1.00  0.00    -0.203 F 
ATOM    124  C   UNL A   1      47.213  34.019  30.117  1.00  0.00     0.198 A 
ATOM    125  C   UNL A   1      46.595  34.655  27.887  1.00  0.00     0.198 A 
ATOM    126  F   UNL A   1      45.486  33.122  26.492  1.00  0.00    -0.203 F 
ATOM    127  F   UNL A   1      47.753  34.329  31.304  1.00  0.00    -0.200 F 
ATOM    128  C   UNL A   1      47.177  34.968  29.105  1.00  0.00     0.200 A 
ATOM    129  F   UNL A   1      46.573  35.564  26.901  1.00  0.00    -0.200 F 
ATOM    130  F   UNL A   1      47.701  36.185  29.306  1.00  0.00    -0.200 F 
ENDBRANCH  96 120
ENDBRANCH  61  64
ENDBRANCH  51  54
ENDBRANCH  47  50
ENDBRANCH  44  47
ENDBRANCH   1  44
TORSDOF 15
ENDMDL
MODEL 5
REMARK VINA RESULT:     -12.2      4.817     10.099
REMARK SMILES C[C@H](C(=O)NCCCCCCNC(=O)c1ccc(-c2c3nc(c(-c4c(F)c(F)c(F)c(F)c4F)c4ccc([nH]4)c(-c4c(F)c(F)c(F)c(F)c4F)c4nc(c(-c5c(F)c(F)c(F)c(F)c5F)c5ccc2[nH]5)C=C4)C=C3)cc1)c1ccc2c(c1)[nH]c1ccc(Cl)cc12
REMARK SMILES IDX 9 1 8 4 7 7 6 10 5 13 3 14 4 15 2 17 1 19 78 23 79 24 83 25
REMARK SMILES IDX 80 26 82 28 81 30 84 32 91 33 85 34 90 36 86 37 88 38 87 40
REMARK SMILES IDX 89 42 10 44 11 47 12 50 13 51 14 53 15 54 16 55 77 56 17 57
REMARK SMILES IDX 76 59 18 61 19 64 20 65 70 66 21 67 75 68 69 69 71 70 22 71
REMARK SMILES IDX 74 72 68 74 67 76 23 78 55 81 35 82 54 83 36 84 39 85 53 86
REMARK SMILES IDX 72 87 37 88 38 90 52 92 73 93 40 96 24 98 25 99 33 100
REMARK SMILES IDX 26 101 27 102 31 103 34 104 28 105 29 106 32 107 30 108
REMARK SMILES IDX 56 109 57 110 65 111 58 112 59 113 63 114 66 115 60 116
REMARK SMILES IDX 61 117 64 118 62 119 41 120 42 121 50 122 43 123 44 124
REMARK SMILES IDX 48 125 51 126 45 127 46 128 49 129 47 130
REMARK H PARENT 9 2 9 3 8 5 8 6 7 8 7 9 6 11 6 12 5 16 2 18 1 20 1 21 1 22
REMARK H PARENT 79 27 83 29 80 31 84 35 90 39 86 41 87 43 10 45 10 46 11 48
REMARK H PARENT 11 49 12 52 16 58 77 60 17 62 76 63 75 73 69 75 71 77 74 79
REMARK H PARENT 68 80 36 89 39 91 72 94 37 95 73 97
REMARK Flexibility Score: inf
ROOT
ATOM      1  C   UNL A   1      36.683  20.964  24.987  1.00  0.00    -0.052 C 
ATOM      2  H   UNL A   1      35.866  20.547  24.435  1.00  0.00     0.027 H 
ATOM      3  H   UNL A   1      36.503  21.091  26.034  1.00  0.00     0.027 H 
ENDROOT
BRANCH   1   4
ATOM      4  C   UNL A   1      36.928  22.376  24.452  1.00  0.00    -0.052 C 
ATOM      5  H   UNL A   1      37.502  22.902  25.186  1.00  0.00     0.027 H 
ATOM      6  H   UNL A   1      37.411  22.228  23.509  1.00  0.00     0.027 H 
BRANCH   4   7
ATOM      7  C   UNL A   1      35.703  23.236  24.128  1.00  0.00    -0.036 C 
ATOM      8  H   UNL A   1      35.840  23.628  23.142  1.00  0.00     0.028 H 
ATOM      9  H   UNL A   1      34.870  22.576  24.250  1.00  0.00     0.028 H 
BRANCH   7  10
ATOM     10  C   UNL A   1      35.400  24.413  25.049  1.00  0.00     0.017 C 
ATOM     11  H   UNL A   1      35.064  24.022  25.986  1.00  0.00     0.049 H 
ATOM     12  H   UNL A   1      36.306  24.976  25.123  1.00  0.00     0.049 H 
BRANCH  10  13
ATOM     13  N   UNL A   1      34.396  25.325  24.558  1.00  0.00    -0.356 N 
ATOM     14  C   UNL A   1      33.117  25.529  24.969  1.00  0.00     0.227 C 
ATOM     15  O   UNL A   1      32.625  26.608  24.604  1.00  0.00    -0.274 OA
ATOM     16  H   UNL A   1      34.682  25.889  23.803  1.00  0.00     0.163 HD
BRANCH  14  17
ATOM     17  C   UNL A   1      32.216  24.524  25.715  1.00  0.00     0.060 C 
ATOM     18  H   UNL A   1      32.451  24.623  26.754  1.00  0.00     0.045 H 
BRANCH  17  19
ATOM     19  C   UNL A   1      30.774  24.924  25.332  1.00  0.00    -0.049 C 
ATOM     20  H   UNL A   1      30.526  25.855  25.796  1.00  0.00     0.024 H 
ATOM     21  H   UNL A   1      30.093  24.168  25.665  1.00  0.00     0.024 H 
ATOM     22  H   UNL A   1      30.700  25.025  24.269  1.00  0.00     0.024 H 
ENDBRANCH  17  19
BRANCH  17  23
ATOM     23  C   UNL A   1      32.478  23.019  25.632  1.00  0.00    -0.034 A 
ATOM     24  C   UNL A   1      33.033  22.315  26.714  1.00  0.00    -0.057 A 
ATOM     25  C   UNL A   1      32.124  22.286  24.483  1.00  0.00    -0.034 A 
ATOM     26  C   UNL A   1      33.397  20.954  26.607  1.00  0.00    -0.052 A 
ATOM     27  H   UNL A   1      33.179  22.805  27.610  1.00  0.00     0.063 H 
ATOM     28  C   UNL A   1      32.465  20.933  24.401  1.00  0.00     0.047 A 
ATOM     29  H   UNL A   1      31.620  22.743  23.708  1.00  0.00     0.065 H 
ATOM     30  C   UNL A   1      33.137  20.253  25.410  1.00  0.00     0.007 A 
ATOM     31  H   UNL A   1      33.851  20.476  27.400  1.00  0.00     0.063 H 
ATOM     32  N   UNL A   1      32.245  20.045  23.380  1.00  0.00    -0.355 N 
ATOM     33  C   UNL A   1      33.436  18.941  24.901  1.00  0.00     0.009 A 
ATOM     34  C   UNL A   1      32.892  18.860  23.618  1.00  0.00     0.047 A 
ATOM     35  H   UNL A   1      31.696  20.233  22.584  1.00  0.00     0.167 HD
ATOM     36  C   UNL A   1      34.148  17.825  25.389  1.00  0.00    -0.033 A 
ATOM     37  C   UNL A   1      33.032  17.744  22.786  1.00  0.00    -0.036 A 
ATOM     38  C   UNL A   1      34.307  16.704  24.562  1.00  0.00     0.041 A 
ATOM     39  H   UNL A   1      34.546  17.833  26.342  1.00  0.00     0.065 H 
ATOM     40  C   UNL A   1      33.765  16.665  23.280  1.00  0.00    -0.041 A 
ATOM     41  H   UNL A   1      32.609  17.719  21.845  1.00  0.00     0.065 H 
ATOM     42  Cl  UNL A   1      35.207  15.350  25.133  1.00  0.00    -0.084 Cl
ATOM     43  H   UNL A   1      33.908  15.829  22.689  1.00  0.00     0.064 H 
ENDBRANCH  17  23
ENDBRANCH  14  17
ENDBRANCH  10  13
ENDBRANCH   7  10
ENDBRANCH   4   7
ENDBRANCH   1   4
BRANCH   1  44
ATOM     44  C   UNL A   1      37.847  19.978  24.903  1.00  0.00    -0.036 C 
ATOM     45  H   UNL A   1      38.145  19.911  23.877  1.00  0.00     0.028 H 
ATOM     46  H   UNL A   1      37.477  19.062  25.314  1.00  0.00     0.028 H 
BRANCH  44  47
ATOM     47  C   UNL A   1      39.081  20.325  25.723  1.00  0.00     0.018 C 
ATOM     48  H   UNL A   1      38.770  20.570  26.718  1.00  0.00     0.049 H 
ATOM     49  H   UNL A   1      39.564  21.147  25.237  1.00  0.00     0.049 H 
BRANCH  47  50
ATOM     50  N   UNL A   1      40.047  19.243  25.797  1.00  0.00    -0.352 N 
ATOM     51  C   UNL A   1      41.400  19.302  26.045  1.00  0.00     0.251 C 
ATOM     52  H   UNL A   1      39.683  18.340  25.650  1.00  0.00     0.163 HD
ATOM     53  O   UNL A   1      42.094  18.301  25.961  1.00  0.00    -0.269 OA
BRANCH  51  54
ATOM     54  C   UNL A   1      42.020  20.603  26.387  1.00  0.00     0.039 A 
ATOM     55  C   UNL A   1      42.349  21.488  25.357  1.00  0.00    -0.049 A 
ATOM     56  C   UNL A   1      42.263  20.949  27.718  1.00  0.00    -0.049 A 
ATOM     57  C   UNL A   1      42.863  22.750  25.665  1.00  0.00    -0.053 A 
ATOM     58  H   UNL A   1      42.213  21.210  24.371  1.00  0.00     0.063 H 
ATOM     59  C   UNL A   1      42.700  22.232  28.027  1.00  0.00    -0.053 A 
ATOM     60  H   UNL A   1      42.117  20.256  28.469  1.00  0.00     0.063 H 
ATOM     61  C   UNL A   1      43.013  23.143  27.003  1.00  0.00    -0.014 A 
ATOM     62  H   UNL A   1      43.134  23.396  24.906  1.00  0.00     0.063 H 
ATOM     63  H   UNL A   1      42.797  22.517  29.013  1.00  0.00     0.063 H 
BRANCH  61  64
ATOM     64  C   UNL A   1      43.524  24.485  27.379  1.00  0.00     0.031 A 
ATOM     65  C   UNL A   1      42.572  25.512  27.921  1.00  0.00     0.074 A 
ATOM     66  C   UNL A   1      44.808  24.813  27.136  1.00  0.00     0.049 A 
ATOM     67  N   UNL A   1      42.763  26.787  28.148  1.00  0.00    -0.248 NA
ATOM     68  C   UNL A   1      41.208  25.046  28.212  1.00  0.00    -0.034 C 
ATOM     69  C   UNL A   1      45.821  23.914  26.586  1.00  0.00    -0.036 A 
ATOM     70  N   UNL A   1      45.468  26.006  27.294  1.00  0.00    -0.354 N 
ATOM     71  C   UNL A   1      41.536  27.279  28.574  1.00  0.00     0.074 A 
ATOM     72  C   UNL A   1      40.598  26.178  28.526  1.00  0.00    -0.034 C 
ATOM     73  H   UNL A   1      40.827  24.088  28.180  1.00  0.00     0.065 H 
ATOM     74  C   UNL A   1      46.976  24.586  26.452  1.00  0.00    -0.036 A 
ATOM     75  H   UNL A   1      45.673  22.923  26.342  1.00  0.00     0.065 H 
ATOM     76  C   UNL A   1      46.771  25.974  26.860  1.00  0.00     0.049 A 
ATOM     77  H   UNL A   1      45.049  26.809  27.680  1.00  0.00     0.167 HD
ATOM     78  C   UNL A   1      41.225  28.532  28.983  1.00  0.00     0.037 A 
ATOM     79  H   UNL A   1      39.587  26.264  28.712  1.00  0.00     0.065 H 
ATOM     80  H   UNL A   1      47.866  24.186  26.115  1.00  0.00     0.065 H 
ATOM     81  C   UNL A   1      47.689  26.956  26.777  1.00  0.00     0.037 A 
ATOM     82  C   UNL A   1      42.171  29.614  29.048  1.00  0.00     0.049 A 
ATOM     83  C   UNL A   1      47.322  28.346  27.227  1.00  0.00     0.074 A 
ATOM     84  C   UNL A   1      41.975  30.906  29.505  1.00  0.00    -0.036 A 
ATOM     85  N   UNL A   1      43.493  29.531  28.636  1.00  0.00    -0.354 N 
ATOM     86  N   UNL A   1      46.176  28.791  27.682  1.00  0.00    -0.248 NA
ATOM     87  C   UNL A   1      48.377  29.367  27.158  1.00  0.00    -0.034 C 
ATOM     88  C   UNL A   1      43.163  31.619  29.316  1.00  0.00    -0.036 A 
ATOM     89  H   UNL A   1      41.104  31.277  29.913  1.00  0.00     0.065 H 
ATOM     90  C   UNL A   1      44.119  30.755  28.806  1.00  0.00     0.049 A 
ATOM     91  H   UNL A   1      43.923  28.722  28.275  1.00  0.00     0.167 HD
ATOM     92  C   UNL A   1      46.379  30.130  27.988  1.00  0.00     0.074 A 
ATOM     93  C   UNL A   1      47.759  30.427  27.665  1.00  0.00    -0.034 C 
ATOM     94  H   UNL A   1      49.343  29.282  26.808  1.00  0.00     0.065 H 
ATOM     95  H   UNL A   1      43.303  32.620  29.522  1.00  0.00     0.065 H 
ATOM     96  C   UNL A   1      45.501  31.029  28.498  1.00  0.00     0.037 A 
ATOM     97  H   UNL A   1      48.206  31.345  27.810  1.00  0.00     0.065 H 
BRANCH  78  98
ATOM     98  C   UNL A   1      39.797  28.796  29.372  1.00  0.00     0.064 A 
ATOM     99  C   UNL A   1      39.334  28.590  30.681  1.00  0.00     0.173 A 
ATOM    100  C   UNL A   1      38.876  29.259  28.420  1.00  0.00     0.173 A 
ATOM    101  F   UNL A   1      40.170  28.139  31.630  1.00  0.00    -0.203 F 
ATOM    102  C   UNL A   1      37.995  28.787  31.009  1.00  0.00     0.198 A 
ATOM    103  C   UNL A   1      37.546  29.493  28.761  1.00  0.00     0.198 A 
ATOM    104  F   UNL A   1      39.263  29.484  27.155  1.00  0.00    -0.203 F 
ATOM    105  F   UNL A   1      37.563  28.511  32.248  1.00  0.00    -0.200 F 
ATOM    106  C   UNL A   1      37.104  29.243  30.052  1.00  0.00     0.200 A 
ATOM    107  F   UNL A   1      36.690  29.950  27.837  1.00  0.00    -0.200 F 
ATOM    108  F   UNL A   1      35.815  29.430  30.367  1.00  0.00    -0.200 F 
ENDBRANCH  78  98
BRANCH  81 109
ATOM    109  C   UNL A   1      49.047  26.647  26.262  1.00  0.00     0.064 A 
ATOM    110  C   UNL A   1      49.394  26.932  24.934  1.00  0.00     0.173 A 
ATOM    111  C   UNL A   1      50.035  26.095  27.090  1.00  0.00     0.173 A 
ATOM    112  F   UNL A   1      48.479  27.443  24.097  1.00  0.00    -0.203 F 
ATOM    113  C   UNL A   1      50.675  26.668  24.451  1.00  0.00     0.198 A 
ATOM    114  C   UNL A   1      51.324  25.857  26.614  1.00  0.00     0.198 A 
ATOM    115  F   UNL A   1      49.757  25.812  28.371  1.00  0.00    -0.203 F 
ATOM    116  F   UNL A   1      50.971  26.922  23.169  1.00  0.00    -0.200 F 
ATOM    117  C   UNL A   1      51.641  26.140  25.295  1.00  0.00     0.200 A 
ATOM    118  F   UNL A   1      52.258  25.364  27.437  1.00  0.00    -0.200 F 
ATOM    119  F   UNL A   1      52.877  25.901  24.835  1.00  0.00    -0.200 F 
ENDBRANCH  81 109
BRANCH  96 120
ATOM    120  C   UNL A   1      46.012  32.408  28.803  1.00  0.00     0.064 A 
ATOM    121  C   UNL A   1      45.933  33.452  27.872  1.00  0.00     0.173 A 
ATOM    122  C   UNL A   1      46.511  32.703  30.082  1.00  0.00     0.173 A 
ATOM    123  F   UNL A   1      45.477  33.220  26.632  1.00  0.00    -0.203 F 
ATOM    124  C   UNL A   1      46.345  34.740  28.207  1.00  0.00     0.198 A 
ATOM    125  C   UNL A   1      46.893  33.997  30.422  1.00  0.00     0.198 A 
ATOM    126  F   UNL A   1      46.600  31.740  31.011  1.00  0.00    -0.203 F 
ATOM    127  F   UNL A   1      46.292  35.718  27.292  1.00  0.00    -0.200 F 
ATOM    128  C   UNL A   1      46.813  35.014  29.484  1.00  0.00     0.200 A 
ATOM    129  F   UNL A   1      47.329  34.261  31.663  1.00  0.00    -0.200 F 
ATOM    130  F   UNL A   1      47.190  36.258  29.810  1.00  0.00    -0.200 F 
ENDBRANCH  96 120
ENDBRANCH  61  64
ENDBRANCH  51  54
ENDBRANCH  47  50
ENDBRANCH  44  47
ENDBRANCH   1  44
TORSDOF 15
ENDMDL
MODEL 6
REMARK VINA RESULT:     -12.2      2.466      4.406
REMARK SMILES C[C@H](C(=O)NCCCCCCNC(=O)c1ccc(-c2c3nc(c(-c4c(F)c(F)c(F)c(F)c4F)c4ccc([nH]4)c(-c4c(F)c(F)c(F)c(F)c4F)c4nc(c(-c5c(F)c(F)c(F)c(F)c5F)c5ccc2[nH]5)C=C4)C=C3)cc1)c1ccc2c(c1)[nH]c1ccc(Cl)cc12
REMARK SMILES IDX 9 1 8 4 7 7 6 10 5 13 3 14 4 15 2 17 1 19 78 23 79 24 83 25
REMARK SMILES IDX 80 26 82 28 81 30 84 32 91 33 85 34 90 36 86 37 88 38 87 40
REMARK SMILES IDX 89 42 10 44 11 47 12 50 13 51 14 53 15 54 16 55 77 56 17 57
REMARK SMILES IDX 76 59 18 61 19 64 20 65 70 66 21 67 75 68 69 69 71 70 22 71
REMARK SMILES IDX 74 72 68 74 67 76 23 78 55 81 35 82 54 83 36 84 39 85 53 86
REMARK SMILES IDX 72 87 37 88 38 90 52 92 73 93 40 96 24 98 25 99 33 100
REMARK SMILES IDX 26 101 27 102 31 103 34 104 28 105 29 106 32 107 30 108
REMARK SMILES IDX 56 109 57 110 65 111 58 112 59 113 63 114 66 115 60 116
REMARK SMILES IDX 61 117 64 118 62 119 41 120 42 121 50 122 43 123 44 124
REMARK SMILES IDX 48 125 51 126 45 127 46 128 49 129 47 130
REMARK H PARENT 9 2 9 3 8 5 8 6 7 8 7 9 6 11 6 12 5 16 2 18 1 20 1 21 1 22
REMARK H PARENT 79 27 83 29 80 31 84 35 90 39 86 41 87 43 10 45 10 46 11 48
REMARK H PARENT 11 49 12 52 16 58 77 60 17 62 76 63 75 73 69 75 71 77 74 79
REMARK H PARENT 68 80 36 89 39 91 72 94 37 95 73 97
REMARK Flexibility Score: inf
ROOT
ATOM      1  C   UNL A   1      31.693  30.726  26.190  1.00  0.00    -0.052 C 
ATOM      2  H   UNL A   1      30.770  30.387  25.767  1.00  0.00     0.027 H 
ATOM      3  H   UNL A   1      32.472  30.917  25.481  1.00  0.00     0.027 H 
ENDROOT
BRANCH   1   4
ATOM      4  C   UNL A   1      32.233  29.602  27.077  1.00  0.00    -0.052 C 
ATOM      5  H   UNL A   1      31.992  29.850  28.090  1.00  0.00     0.027 H 
ATOM      6  H   UNL A   1      31.772  28.713  26.698  1.00  0.00     0.027 H 
BRANCH   4   7
ATOM      7  C   UNL A   1      33.735  29.312  27.023  1.00  0.00    -0.036 C 
ATOM      8  H   UNL A   1      34.224  30.214  26.721  1.00  0.00     0.028 H 
ATOM      9  H   UNL A   1      33.978  28.961  28.003  1.00  0.00     0.028 H 
BRANCH   7  10
ATOM     10  C   UNL A   1      34.209  28.203  26.089  1.00  0.00     0.017 C 
ATOM     11  H   UNL A   1      35.234  27.994  26.317  1.00  0.00     0.049 H 
ATOM     12  H   UNL A   1      33.558  27.371  26.257  1.00  0.00     0.049 H 
BRANCH  10  13
ATOM     13  N   UNL A   1      34.118  28.512  24.683  1.00  0.00    -0.356 N 
ATOM     14  C   UNL A   1      33.084  28.360  23.815  1.00  0.00     0.227 C 
ATOM     15  O   UNL A   1      33.177  29.037  22.779  1.00  0.00    -0.274 OA
ATOM     16  H   UNL A   1      34.935  28.894  24.289  1.00  0.00     0.163 HD
BRANCH  14  17
ATOM     17  C   UNL A   1      31.912  27.367  23.942  1.00  0.00     0.060 C 
ATOM     18  H   UNL A   1      31.641  27.350  24.977  1.00  0.00     0.045 H 
BRANCH  17  19
ATOM     19  C   UNL A   1      30.823  27.913  22.991  1.00  0.00    -0.049 C 
ATOM     20  H   UNL A   1      29.867  27.849  23.469  1.00  0.00     0.024 H 
ATOM     21  H   UNL A   1      30.811  27.334  22.091  1.00  0.00     0.024 H 
ATOM     22  H   UNL A   1      31.035  28.935  22.754  1.00  0.00     0.024 H 
ENDBRANCH  17  19
BRANCH  17  23
ATOM     23  C   UNL A   1      32.139  25.860  23.810  1.00  0.00    -0.034 A 
ATOM     24  C   UNL A   1      31.155  25.018  23.262  1.00  0.00    -0.057 A 
ATOM     25  C   UNL A   1      33.362  25.276  24.192  1.00  0.00    -0.034 A 
ATOM     26  C   UNL A   1      31.299  23.614  23.252  1.00  0.00    -0.052 A 
ATOM     27  H   UNL A   1      30.304  25.439  22.857  1.00  0.00     0.063 H 
ATOM     28  C   UNL A   1      33.503  23.886  24.150  1.00  0.00     0.047 A 
ATOM     29  H   UNL A   1      34.148  25.870  24.500  1.00  0.00     0.065 H 
ATOM     30  C   UNL A   1      32.489  23.029  23.738  1.00  0.00     0.007 A 
ATOM     31  H   UNL A   1      30.539  23.017  22.891  1.00  0.00     0.063 H 
ATOM     32  N   UNL A   1      34.582  23.115  24.496  1.00  0.00    -0.355 N 
ATOM     33  C   UNL A   1      32.954  21.689  23.975  1.00  0.00     0.009 A 
ATOM     34  C   UNL A   1      34.253  21.784  24.480  1.00  0.00     0.047 A 
ATOM     35  H   UNL A   1      35.472  23.468  24.724  1.00  0.00     0.167 HD
ATOM     36  C   UNL A   1      32.387  20.404  23.846  1.00  0.00    -0.033 A 
ATOM     37  C   UNL A   1      35.010  20.678  24.882  1.00  0.00    -0.036 A 
ATOM     38  C   UNL A   1      33.130  19.288  24.255  1.00  0.00     0.041 A 
ATOM     39  H   UNL A   1      31.439  20.286  23.454  1.00  0.00     0.065 H 
ATOM     40  C   UNL A   1      34.417  19.421  24.771  1.00  0.00    -0.041 A 
ATOM     41  H   UNL A   1      35.970  20.789  25.244  1.00  0.00     0.065 H 
ATOM     42  Cl  UNL A   1      32.433  17.716  24.138  1.00  0.00    -0.084 Cl
ATOM     43  H   UNL A   1      34.936  18.581  25.075  1.00  0.00     0.064 H 
ENDBRANCH  17  23
ENDBRANCH  14  17
ENDBRANCH  10  13
ENDBRANCH   7  10
ENDBRANCH   4   7
ENDBRANCH   1   4
BRANCH   1  44
ATOM     44  C   UNL A   1      31.428  32.072  26.860  1.00  0.00    -0.036 C 
ATOM     45  H   UNL A   1      30.794  31.898  27.705  1.00  0.00     0.028 H 
ATOM     46  H   UNL A   1      30.990  32.688  26.102  1.00  0.00     0.028 H 
BRANCH  44  47
ATOM     47  C   UNL A   1      32.653  32.833  27.347  1.00  0.00     0.018 C 
ATOM     48  H   UNL A   1      33.389  32.825  26.570  1.00  0.00     0.049 H 
ATOM     49  H   UNL A   1      32.996  32.344  28.235  1.00  0.00     0.049 H 
BRANCH  47  50
ATOM     50  N   UNL A   1      32.372  34.213  27.700  1.00  0.00    -0.352 N 
ATOM     51  C   UNL A   1      32.994  35.016  28.629  1.00  0.00     0.251 C 
ATOM     52  H   UNL A   1      31.633  34.635  27.204  1.00  0.00     0.163 HD
ATOM     53  O   UNL A   1      32.559  36.128  28.884  1.00  0.00    -0.269 OA
BRANCH  51  54
ATOM     54  C   UNL A   1      34.185  34.508  29.347  1.00  0.00     0.039 A 
ATOM     55  C   UNL A   1      34.011  33.847  30.565  1.00  0.00    -0.049 A 
ATOM     56  C   UNL A   1      35.465  34.675  28.812  1.00  0.00    -0.049 A 
ATOM     57  C   UNL A   1      35.116  33.294  31.218  1.00  0.00    -0.053 A 
ATOM     58  H   UNL A   1      33.070  33.767  30.982  1.00  0.00     0.063 H 
ATOM     59  C   UNL A   1      36.552  34.058  29.421  1.00  0.00    -0.053 A 
ATOM     60  H   UNL A   1      35.603  35.252  27.968  1.00  0.00     0.063 H 
ATOM     61  C   UNL A   1      36.390  33.367  30.635  1.00  0.00    -0.014 A 
ATOM     62  H   UNL A   1      34.996  32.829  32.132  1.00  0.00     0.063 H 
ATOM     63  H   UNL A   1      37.483  34.108  28.980  1.00  0.00     0.063 H 
BRANCH  61  64
ATOM     64  C   UNL A   1      37.587  32.767  31.275  1.00  0.00     0.031 A 
ATOM     65  C   UNL A   1      38.293  31.628  30.597  1.00  0.00     0.074 A 
ATOM     66  C   UNL A   1      37.972  33.168  32.501  1.00  0.00     0.049 A 
ATOM     67  N   UNL A   1      39.240  30.847  31.050  1.00  0.00    -0.248 NA
ATOM     68  C   UNL A   1      37.843  31.301  29.235  1.00  0.00    -0.034 C 
ATOM     69  C   UNL A   1      37.351  34.242  33.274  1.00  0.00    -0.036 A 
ATOM     70  N   UNL A   1      38.963  32.693  33.325  1.00  0.00    -0.354 N 
ATOM     71  C   UNL A   1      39.473  29.919  30.044  1.00  0.00     0.074 A 
ATOM     72  C   UNL A   1      38.535  30.202  28.980  1.00  0.00    -0.034 C 
ATOM     73  H   UNL A   1      37.165  31.798  28.637  1.00  0.00     0.065 H 
ATOM     74  C   UNL A   1      37.974  34.347  34.459  1.00  0.00    -0.036 A 
ATOM     75  H   UNL A   1      36.561  34.828  32.959  1.00  0.00     0.065 H 
ATOM     76  C   UNL A   1      39.004  33.315  34.548  1.00  0.00     0.049 A 
ATOM     77  H   UNL A   1      39.583  31.975  33.064  1.00  0.00     0.167 HD
ATOM     78  C   UNL A   1      40.397  28.929  30.006  1.00  0.00     0.037 A 
ATOM     79  H   UNL A   1      38.421  29.624  28.133  1.00  0.00     0.065 H 
ATOM     80  H   UNL A   1      37.759  35.044  35.189  1.00  0.00     0.065 H 
ATOM     81  C   UNL A   1      39.769  33.067  35.629  1.00  0.00     0.037 A 
ATOM     82  C   UNL A   1      41.341  28.670  31.061  1.00  0.00     0.049 A 
ATOM     83  C   UNL A   1      40.785  31.956  35.572  1.00  0.00     0.074 A 
ATOM     84  C   UNL A   1      42.358  27.732  31.098  1.00  0.00    -0.036 A 
ATOM     85  N   UNL A   1      41.377  29.348  32.271  1.00  0.00    -0.354 N 
ATOM     86  N   UNL A   1      41.038  31.118  34.597  1.00  0.00    -0.248 NA
ATOM     87  C   UNL A   1      41.623  31.761  36.763  1.00  0.00    -0.034 C 
ATOM     88  C   UNL A   1      42.972  27.806  32.353  1.00  0.00    -0.036 A 
ATOM     89  H   UNL A   1      42.618  27.091  30.333  1.00  0.00     0.065 H 
ATOM     90  C   UNL A   1      42.384  28.834  33.071  1.00  0.00     0.049 A 
ATOM     91  H   UNL A   1      40.775  30.086  32.524  1.00  0.00     0.167 HD
ATOM     92  C   UNL A   1      42.086  30.322  35.037  1.00  0.00     0.074 A 
ATOM     93  C   UNL A   1      42.421  30.775  36.372  1.00  0.00    -0.034 C 
ATOM     94  H   UNL A   1      41.599  32.259  37.666  1.00  0.00     0.065 H 
ATOM     95  H   UNL A   1      43.735  27.196  32.686  1.00  0.00     0.065 H 
ATOM     96  C   UNL A   1      42.718  29.311  34.391  1.00  0.00     0.037 A 
ATOM     97  H   UNL A   1      43.184  30.383  36.945  1.00  0.00     0.065 H 
BRANCH  78  98
ATOM     98  C   UNL A   1      40.413  28.047  28.789  1.00  0.00     0.064 A 
ATOM     99  C   UNL A   1      39.714  26.830  28.745  1.00  0.00     0.173 A 
ATOM    100  C   UNL A   1      41.143  28.422  27.651  1.00  0.00     0.173 A 
ATOM    101  F   UNL A   1      39.008  26.418  29.809  1.00  0.00    -0.203 F 
ATOM    102  C   UNL A   1      39.786  26.000  27.629  1.00  0.00     0.198 A 
ATOM    103  C   UNL A   1      41.181  27.607  26.521  1.00  0.00     0.198 A 
ATOM    104  F   UNL A   1      41.822  29.578  27.631  1.00  0.00    -0.203 F 
ATOM    105  F   UNL A   1      39.171  24.809  27.642  1.00  0.00    -0.200 F 
ATOM    106  C   UNL A   1      40.515  26.390  26.517  1.00  0.00     0.200 A 
ATOM    107  F   UNL A   1      41.872  27.995  25.441  1.00  0.00    -0.200 F 
ATOM    108  F   UNL A   1      40.586  25.590  25.445  1.00  0.00    -0.200 F 
ENDBRANCH  78  98
BRANCH  81 109
ATOM    109  C   UNL A   1      39.610  33.903  36.847  1.00  0.00     0.064 A 
ATOM    110  C   UNL A   1      40.234  35.154  36.947  1.00  0.00     0.173 A 
ATOM    111  C   UNL A   1      38.806  33.487  37.918  1.00  0.00     0.173 A 
ATOM    112  F   UNL A   1      41.028  35.587  35.956  1.00  0.00    -0.203 F 
ATOM    113  C   UNL A   1      40.068  35.953  38.076  1.00  0.00     0.198 A 
ATOM    114  C   UNL A   1      38.618  34.300  39.035  1.00  0.00     0.198 A 
ATOM    115  F   UNL A   1      38.180  32.302  37.868  1.00  0.00    -0.203 F 
ATOM    116  F   UNL A   1      40.701  37.132  38.160  1.00  0.00    -0.200 F 
ATOM    117  C   UNL A   1      39.252  35.529  39.115  1.00  0.00     0.200 A 
ATOM    118  F   UNL A   1      37.815  33.894  40.027  1.00  0.00    -0.200 F 
ATOM    119  F   UNL A   1      39.080  36.305  40.194  1.00  0.00    -0.200 F 
ENDBRANCH  81 109
BRANCH  96 120
ATOM    120  C   UNL A   1      43.882  28.659  35.081  1.00  0.00     0.064 A 
ATOM    121  C   UNL A   1      43.723  27.533  35.900  1.00  0.00     0.173 A 
ATOM    122  C   UNL A   1      45.186  29.124  34.847  1.00  0.00     0.173 A 
ATOM    123  F   UNL A   1      42.498  27.057  36.166  1.00  0.00    -0.203 F 
ATOM    124  C   UNL A   1      44.828  26.902  36.469  1.00  0.00     0.198 A 
ATOM    125  C   UNL A   1      46.288  28.473  35.392  1.00  0.00     0.198 A 
ATOM    126  F   UNL A   1      45.391  30.195  34.065  1.00  0.00    -0.203 F 
ATOM    127  F   UNL A   1      44.652  25.846  37.275  1.00  0.00    -0.200 F 
ATOM    128  C   UNL A   1      46.109  27.365  36.204  1.00  0.00     0.200 A 
ATOM    129  F   UNL A   1      47.526  28.913  35.121  1.00  0.00    -0.200 F 
ATOM    130  F   UNL A   1      47.171  26.744  36.736  1.00  0.00    -0.200 F 
ENDBRANCH  96 120
ENDBRANCH  61  64
ENDBRANCH  51  54
ENDBRANCH  47  50
ENDBRANCH  44  47
ENDBRANCH   1  44
TORSDOF 15
ENDMDL
MODEL 7
REMARK VINA RESULT:     -12.2      2.625      4.374
REMARK SMILES C[C@H](C(=O)NCCCCCCNC(=O)c1ccc(-c2c3nc(c(-c4c(F)c(F)c(F)c(F)c4F)c4ccc([nH]4)c(-c4c(F)c(F)c(F)c(F)c4F)c4nc(c(-c5c(F)c(F)c(F)c(F)c5F)c5ccc2[nH]5)C=C4)C=C3)cc1)c1ccc2c(c1)[nH]c1ccc(Cl)cc12
REMARK SMILES IDX 9 1 8 4 7 7 6 10 5 13 3 14 4 15 2 17 1 19 78 23 79 24 83 25
REMARK SMILES IDX 80 26 82 28 81 30 84 32 91 33 85 34 90 36 86 37 88 38 87 40
REMARK SMILES IDX 89 42 10 44 11 47 12 50 13 51 14 53 15 54 16 55 77 56 17 57
REMARK SMILES IDX 76 59 18 61 19 64 20 65 70 66 21 67 75 68 69 69 71 70 22 71
REMARK SMILES IDX 74 72 68 74 67 76 23 78 55 81 35 82 54 83 36 84 39 85 53 86
REMARK SMILES IDX 72 87 37 88 38 90 52 92 73 93 40 96 24 98 25 99 33 100
REMARK SMILES IDX 26 101 27 102 31 103 34 104 28 105 29 106 32 107 30 108
REMARK SMILES IDX 56 109 57 110 65 111 58 112 59 113 63 114 66 115 60 116
REMARK SMILES IDX 61 117 64 118 62 119 41 120 42 121 50 122 43 123 44 124
REMARK SMILES IDX 48 125 51 126 45 127 46 128 49 129 47 130
REMARK H PARENT 9 2 9 3 8 5 8 6 7 8 7 9 6 11 6 12 5 16 2 18 1 20 1 21 1 22
REMARK H PARENT 79 27 83 29 80 31 84 35 90 39 86 41 87 43 10 45 10 46 11 48
REMARK H PARENT 11 49 12 52 16 58 77 60 17 62 76 63 75 73 69 75 71 77 74 79
REMARK H PARENT 68 80 36 89 39 91 72 94 37 95 73 97
REMARK Flexibility Score: inf
ROOT
ATOM      1  C   UNL A   1      31.719  30.320  26.463  1.00  0.00    -0.052 C 
ATOM      2  H   UNL A   1      32.734  30.075  26.702  1.00  0.00     0.027 H 
ATOM      3  H   UNL A   1      30.987  29.908  27.127  1.00  0.00     0.027 H 
ENDROOT
BRANCH   1   4
ATOM      4  C   UNL A   1      31.406  29.705  25.098  1.00  0.00    -0.052 C 
ATOM      5  H   UNL A   1      30.839  28.814  25.271  1.00  0.00     0.027 H 
ATOM      6  H   UNL A   1      30.896  30.479  24.563  1.00  0.00     0.027 H 
BRANCH   4   7
ATOM      7  C   UNL A   1      32.586  29.328  24.199  1.00  0.00    -0.036 C 
ATOM      8  H   UNL A   1      32.184  28.998  23.265  1.00  0.00     0.028 H 
ATOM      9  H   UNL A   1      33.186  30.213  24.156  1.00  0.00     0.028 H 
BRANCH   7  10
ATOM     10  C   UNL A   1      33.536  28.243  24.694  1.00  0.00     0.017 C 
ATOM     11  H   UNL A   1      34.378  28.722  25.150  1.00  0.00     0.049 H 
ATOM     12  H   UNL A   1      32.973  27.638  25.373  1.00  0.00     0.049 H 
BRANCH  10  13
ATOM     13  N   UNL A   1      34.028  27.353  23.671  1.00  0.00    -0.356 N 
ATOM     14  C   UNL A   1      33.437  26.282  23.079  1.00  0.00     0.227 C 
ATOM     15  O   UNL A   1      33.949  25.942  22.001  1.00  0.00    -0.274 OA
ATOM     16  H   UNL A   1      34.938  27.552  23.351  1.00  0.00     0.163 HD
BRANCH  14  17
ATOM     17  C   UNL A   1      32.309  25.410  23.666  1.00  0.00     0.060 C 
ATOM     18  H   UNL A   1      32.211  25.695  24.692  1.00  0.00     0.045 H 
BRANCH  17  19
ATOM     19  C   UNL A   1      31.076  25.709  22.785  1.00  0.00    -0.049 C 
ATOM     20  H   UNL A   1      31.386  25.840  21.769  1.00  0.00     0.024 H 
ATOM     21  H   UNL A   1      30.599  26.604  23.129  1.00  0.00     0.024 H 
ATOM     22  H   UNL A   1      30.387  24.893  22.845  1.00  0.00     0.024 H 
ENDBRANCH  17  19
BRANCH  17  23
ATOM     23  C   UNL A   1      32.525  23.919  23.932  1.00  0.00    -0.034 A 
ATOM     24  C   UNL A   1      33.234  23.474  25.062  1.00  0.00    -0.057 A 
ATOM     25  C   UNL A   1      31.977  22.944  23.076  1.00  0.00    -0.034 A 
ATOM     26  C   UNL A   1      33.549  22.111  25.253  1.00  0.00    -0.052 A 
ATOM     27  H   UNL A   1      33.532  24.163  25.770  1.00  0.00     0.063 H 
ATOM     28  C   UNL A   1      32.273  21.596  23.293  1.00  0.00     0.047 A 
ATOM     29  H   UNL A   1      31.363  23.223  22.295  1.00  0.00     0.065 H 
ATOM     30  C   UNL A   1      33.086  21.150  24.328  1.00  0.00     0.007 A 
ATOM     31  H   UNL A   1      34.116  21.819  26.064  1.00  0.00     0.063 H 
ATOM     32  N   UNL A   1      31.874  20.496  22.577  1.00  0.00    -0.355 N 
ATOM     33  C   UNL A   1      33.273  19.737  24.132  1.00  0.00     0.009 A 
ATOM     34  C   UNL A   1      32.528  19.371  23.010  1.00  0.00     0.047 A 
ATOM     35  H   UNL A   1      31.208  20.512  21.852  1.00  0.00     0.167 HD
ATOM     36  C   UNL A   1      34.033  18.738  24.776  1.00  0.00    -0.033 A 
ATOM     37  C   UNL A   1      32.510  18.077  22.479  1.00  0.00    -0.036 A 
ATOM     38  C   UNL A   1      34.034  17.439  24.249  1.00  0.00     0.041 A 
ATOM     39  H   UNL A   1      34.579  18.959  25.624  1.00  0.00     0.065 H 
ATOM     40  C   UNL A   1      33.292  17.113  23.117  1.00  0.00    -0.041 A 
ATOM     41  H   UNL A   1      31.941  17.844  21.651  1.00  0.00     0.065 H 
ATOM     42  Cl  UNL A   1      34.988  16.219  25.005  1.00  0.00    -0.084 Cl
ATOM     43  H   UNL A   1      33.321  16.150  22.745  1.00  0.00     0.064 H 
ENDBRANCH  17  23
ENDBRANCH  14  17
ENDBRANCH  10  13
ENDBRANCH   7  10
ENDBRANCH   4   7
ENDBRANCH   1   4
BRANCH   1  44
ATOM     44  C   UNL A   1      31.566  31.833  26.595  1.00  0.00    -0.036 C 
ATOM     45  H   UNL A   1      30.688  32.023  27.178  1.00  0.00     0.028 H 
ATOM     46  H   UNL A   1      31.518  32.205  25.593  1.00  0.00     0.028 H 
BRANCH  44  47
ATOM     47  C   UNL A   1      32.726  32.572  27.249  1.00  0.00     0.018 C 
ATOM     48  H   UNL A   1      33.550  32.581  26.566  1.00  0.00     0.049 H 
ATOM     49  H   UNL A   1      32.959  32.054  28.157  1.00  0.00     0.049 H 
BRANCH  47  50
ATOM     50  N   UNL A   1      32.409  33.943  27.606  1.00  0.00    -0.352 N 
ATOM     51  C   UNL A   1      32.991  34.749  28.558  1.00  0.00     0.251 C 
ATOM     52  H   UNL A   1      31.674  34.354  27.096  1.00  0.00     0.163 HD
ATOM     53  O   UNL A   1      32.528  35.850  28.811  1.00  0.00    -0.269 OA
BRANCH  51  54
ATOM     54  C   UNL A   1      34.175  34.258  29.300  1.00  0.00     0.039 A 
ATOM     55  C   UNL A   1      33.982  33.523  30.472  1.00  0.00    -0.049 A 
ATOM     56  C   UNL A   1      35.467  34.514  28.833  1.00  0.00    -0.049 A 
ATOM     57  C   UNL A   1      35.084  32.986  31.143  1.00  0.00    -0.053 A 
ATOM     58  H   UNL A   1      33.029  33.376  30.841  1.00  0.00     0.063 H 
ATOM     59  C   UNL A   1      36.555  33.916  29.457  1.00  0.00    -0.053 A 
ATOM     60  H   UNL A   1      35.611  35.143  28.028  1.00  0.00     0.063 H 
ATOM     61  C   UNL A   1      36.376  33.152  30.623  1.00  0.00    -0.014 A 
ATOM     62  H   UNL A   1      34.948  32.467  32.025  1.00  0.00     0.063 H 
ATOM     63  H   UNL A   1      37.501  34.033  29.061  1.00  0.00     0.063 H 
BRANCH  61  64
ATOM     64  C   UNL A   1      37.573  32.573  31.283  1.00  0.00     0.031 A 
ATOM     65  C   UNL A   1      38.291  31.425  30.634  1.00  0.00     0.074 A 
ATOM     66  C   UNL A   1      37.947  33.004  32.504  1.00  0.00     0.049 A 
ATOM     67  N   UNL A   1      39.241  30.661  31.110  1.00  0.00    -0.248 NA
ATOM     68  C   UNL A   1      37.852  31.067  29.278  1.00  0.00    -0.034 C 
ATOM     69  C   UNL A   1      37.314  34.089  33.249  1.00  0.00    -0.036 A 
ATOM     70  N   UNL A   1      38.936  32.553  33.343  1.00  0.00    -0.354 N 
ATOM     71  C   UNL A   1      39.486  29.713  30.126  1.00  0.00     0.074 A 
ATOM     72  C   UNL A   1      38.554  29.967  29.050  1.00  0.00    -0.034 C 
ATOM     73  H   UNL A   1      37.175  31.546  28.664  1.00  0.00     0.065 H 
ATOM     74  C   UNL A   1      37.928  34.223  34.436  1.00  0.00    -0.036 A 
ATOM     75  H   UNL A   1      36.522  34.662  32.917  1.00  0.00     0.065 H 
ATOM     76  C   UNL A   1      38.965  33.201  34.554  1.00  0.00     0.049 A 
ATOM     77  H   UNL A   1      39.563  31.834  33.102  1.00  0.00     0.167 HD
ATOM     78  C   UNL A   1      40.418  28.729  30.115  1.00  0.00     0.037 A 
ATOM     79  H   UNL A   1      38.449  29.371  28.214  1.00  0.00     0.065 H 
ATOM     80  H   UNL A   1      37.704  34.934  35.150  1.00  0.00     0.065 H 
ATOM     81  C   UNL A   1      39.725  32.981  35.644  1.00  0.00     0.037 A 
ATOM     82  C   UNL A   1      41.356  28.499  31.181  1.00  0.00     0.049 A 
ATOM     83  C   UNL A   1      40.748  31.876  35.617  1.00  0.00     0.074 A 
ATOM     84  C   UNL A   1      42.379  27.569  31.245  1.00  0.00    -0.036 A 
ATOM     85  N   UNL A   1      41.379  29.203  32.377  1.00  0.00    -0.354 N 
ATOM     86  N   UNL A   1      41.013  31.019  34.662  1.00  0.00    -0.248 NA
ATOM     87  C   UNL A   1      41.580  31.712  36.818  1.00  0.00    -0.034 C 
ATOM     88  C   UNL A   1      42.985  27.673  32.502  1.00  0.00    -0.036 A 
ATOM     89  H   UNL A   1      42.648  26.914  30.495  1.00  0.00     0.065 H 
ATOM     90  C   UNL A   1      42.385  28.713  33.194  1.00  0.00     0.049 A 
ATOM     91  H   UNL A   1      40.771  29.941  32.610  1.00  0.00     0.167 HD
ATOM     92  C   UNL A   1      42.064  30.240  35.126  1.00  0.00     0.074 A 
ATOM     93  C   UNL A   1      42.387  30.724  36.453  1.00  0.00    -0.034 C 
ATOM     94  H   UNL A   1      41.546  32.229  37.710  1.00  0.00     0.065 H 
ATOM     95  H   UNL A   1      43.750  27.077  32.852  1.00  0.00     0.065 H 
ATOM     96  C   UNL A   1      42.707  29.220  34.505  1.00  0.00     0.037 A 
ATOM     97  H   UNL A   1      43.149  30.349  37.039  1.00  0.00     0.065 H 
BRANCH  78  98
ATOM     98  C   UNL A   1      40.448  27.821  28.917  1.00  0.00     0.064 A 
ATOM     99  C   UNL A   1      41.239  28.102  27.792  1.00  0.00     0.173 A 
ATOM    100  C   UNL A   1      39.671  26.653  28.893  1.00  0.00     0.173 A 
ATOM    101  F   UNL A   1      41.994  29.211  27.758  1.00  0.00    -0.203 F 
ATOM    102  C   UNL A   1      41.210  27.278  26.670  1.00  0.00     0.198 A 
ATOM    103  C   UNL A   1      39.675  25.810  27.785  1.00  0.00     0.198 A 
ATOM    104  F   UNL A   1      38.903  26.327  29.944  1.00  0.00    -0.203 F 
ATOM    105  F   UNL A   1      41.917  27.610  25.579  1.00  0.00    -0.200 F 
ATOM    106  C   UNL A   1      40.433  26.131  26.668  1.00  0.00     0.200 A 
ATOM    107  F   UNL A   1      38.936  24.692  27.792  1.00  0.00    -0.200 F 
ATOM    108  F   UNL A   1      40.405  25.340  25.587  1.00  0.00    -0.200 F 
ENDBRANCH  78  98
BRANCH  81 109
ATOM    109  C   UNL A   1      39.551  33.841  36.843  1.00  0.00     0.064 A 
ATOM    110  C   UNL A   1      38.735  33.436  37.908  1.00  0.00     0.173 A 
ATOM    111  C   UNL A   1      40.222  35.067  36.966  1.00  0.00     0.173 A 
ATOM    112  F   UNL A   1      38.058  32.279  37.829  1.00  0.00    -0.203 F 
ATOM    113  C   UNL A   1      38.589  34.226  39.046  1.00  0.00     0.198 A 
ATOM    114  C   UNL A   1      40.096  35.844  38.116  1.00  0.00     0.198 A 
ATOM    115  F   UNL A   1      41.022  35.498  35.979  1.00  0.00    -0.203 F 
ATOM    116  F   UNL A   1      37.778  33.828  40.036  1.00  0.00    -0.200 F 
ATOM    117  C   UNL A   1      39.277  35.425  39.153  1.00  0.00     0.200 A 
ATOM    118  F   UNL A   1      40.778  36.993  38.223  1.00  0.00    -0.200 F 
ATOM    119  F   UNL A   1      39.149  36.178  40.254  1.00  0.00    -0.200 F 
ENDBRANCH  81 109
BRANCH  96 120
ATOM    120  C   UNL A   1      43.870  28.591  35.217  1.00  0.00     0.064 A 
ATOM    121  C   UNL A   1      45.174  29.089  35.094  1.00  0.00     0.173 A 
ATOM    122  C   UNL A   1      43.655  27.522  36.102  1.00  0.00     0.173 A 
ATOM    123  F   UNL A   1      45.435  30.100  34.251  1.00  0.00    -0.203 F 
ATOM    124  C   UNL A   1      46.223  28.534  35.823  1.00  0.00     0.198 A 
ATOM    125  C   UNL A   1      44.700  26.990  36.851  1.00  0.00     0.198 A 
ATOM    126  F   UNL A   1      42.424  27.013  36.260  1.00  0.00    -0.203 F 
ATOM    127  F   UNL A   1      47.468  29.004  35.667  1.00  0.00    -0.200 F 
ATOM    128  C   UNL A   1      45.983  27.493  36.710  1.00  0.00     0.200 A 
ATOM    129  F   UNL A   1      44.461  25.996  37.719  1.00  0.00    -0.200 F 
ATOM    130  F   UNL A   1      46.990  26.975  37.425  1.00  0.00    -0.200 F 
ENDBRANCH  96 120
ENDBRANCH  61  64
ENDBRANCH  51  54
ENDBRANCH  47  50
ENDBRANCH  44  47
ENDBRANCH   1  44
TORSDOF 15
ENDMDL
MODEL 8
REMARK VINA RESULT:     -12.2      4.907     10.638
REMARK SMILES C[C@H](C(=O)NCCCCCCNC(=O)c1ccc(-c2c3nc(c(-c4c(F)c(F)c(F)c(F)c4F)c4ccc([nH]4)c(-c4c(F)c(F)c(F)c(F)c4F)c4nc(c(-c5c(F)c(F)c(F)c(F)c5F)c5ccc2[nH]5)C=C4)C=C3)cc1)c1ccc2c(c1)[nH]c1ccc(Cl)cc12
REMARK SMILES IDX 9 1 8 4 7 7 6 10 5 13 3 14 4 15 2 17 1 19 78 23 79 24 83 25
REMARK SMILES IDX 80 26 82 28 81 30 84 32 91 33 85 34 90 36 86 37 88 38 87 40
REMARK SMILES IDX 89 42 10 44 11 47 12 50 13 51 14 53 15 54 16 55 77 56 17 57
REMARK SMILES IDX 76 59 18 61 19 64 20 65 70 66 21 67 75 68 69 69 71 70 22 71
REMARK SMILES IDX 74 72 68 74 67 76 23 78 55 81 35 82 54 83 36 84 39 85 53 86
REMARK SMILES IDX 72 87 37 88 38 90 52 92 73 93 40 96 24 98 25 99 33 100
REMARK SMILES IDX 26 101 27 102 31 103 34 104 28 105 29 106 32 107 30 108
REMARK SMILES IDX 56 109 57 110 65 111 58 112 59 113 63 114 66 115 60 116
REMARK SMILES IDX 61 117 64 118 62 119 41 120 42 121 50 122 43 123 44 124
REMARK SMILES IDX 48 125 51 126 45 127 46 128 49 129 47 130
REMARK H PARENT 9 2 9 3 8 5 8 6 7 8 7 9 6 11 6 12 5 16 2 18 1 20 1 21 1 22
REMARK H PARENT 79 27 83 29 80 31 84 35 90 39 86 41 87 43 10 45 10 46 11 48
REMARK H PARENT 11 49 12 52 16 58 77 60 17 62 76 63 75 73 69 75 71 77 74 79
REMARK H PARENT 68 80 36 89 39 91 72 94 37 95 73 97
REMARK Flexibility Score: inf
ROOT
ATOM      1  C   UNL A   1      36.663  32.791  30.028  1.00  0.00    -0.052 C 
ATOM      2  H   UNL A   1      36.722  32.925  31.089  1.00  0.00     0.027 H 
ATOM      3  H   UNL A   1      36.916  31.810  29.682  1.00  0.00     0.027 H 
ENDROOT
BRANCH   1   4
ATOM      4  C   UNL A   1      37.699  33.717  29.388  1.00  0.00    -0.052 C 
ATOM      5  H   UNL A   1      38.385  33.101  28.844  1.00  0.00     0.027 H 
ATOM      6  H   UNL A   1      37.125  34.399  28.797  1.00  0.00     0.027 H 
BRANCH   4   7
ATOM      7  C   UNL A   1      38.524  34.611  30.317  1.00  0.00    -0.036 C 
ATOM      8  H   UNL A   1      39.546  34.308  30.227  1.00  0.00     0.028 H 
ATOM      9  H   UNL A   1      38.309  35.607  29.994  1.00  0.00     0.028 H 
BRANCH   7  10
ATOM     10  C   UNL A   1      38.176  34.604  31.801  1.00  0.00     0.017 C 
ATOM     11  H   UNL A   1      38.146  33.587  32.131  1.00  0.00     0.049 H 
ATOM     12  H   UNL A   1      38.930  35.187  32.288  1.00  0.00     0.049 H 
BRANCH  10  13
ATOM     13  N   UNL A   1      36.913  35.218  32.131  1.00  0.00    -0.356 N 
ATOM     14  C   UNL A   1      36.051  34.962  33.149  1.00  0.00     0.227 C 
ATOM     15  O   UNL A   1      35.243  35.875  33.382  1.00  0.00    -0.274 OA
ATOM     16  H   UNL A   1      36.631  35.938  31.522  1.00  0.00     0.163 HD
BRANCH  14  17
ATOM     17  C   UNL A   1      35.910  33.639  33.928  1.00  0.00     0.060 C 
ATOM     18  H   UNL A   1      35.817  33.906  34.960  1.00  0.00     0.045 H 
BRANCH  17  19
ATOM     19  C   UNL A   1      34.669  32.950  33.320  1.00  0.00    -0.049 C 
ATOM     20  H   UNL A   1      34.770  32.906  32.255  1.00  0.00     0.024 H 
ATOM     21  H   UNL A   1      33.790  33.507  33.571  1.00  0.00     0.024 H 
ATOM     22  H   UNL A   1      34.583  31.957  33.710  1.00  0.00     0.024 H 
ENDBRANCH  17  19
BRANCH  17  23
ATOM     23  C   UNL A   1      37.104  32.701  34.110  1.00  0.00    -0.034 A 
ATOM     24  C   UNL A   1      38.211  33.074  34.893  1.00  0.00    -0.057 A 
ATOM     25  C   UNL A   1      37.109  31.416  33.536  1.00  0.00    -0.034 A 
ATOM     26  C   UNL A   1      39.373  32.273  34.966  1.00  0.00    -0.052 A 
ATOM     27  H   UNL A   1      38.174  33.955  35.429  1.00  0.00     0.063 H 
ATOM     28  C   UNL A   1      38.255  30.622  33.640  1.00  0.00     0.047 A 
ATOM     29  H   UNL A   1      36.275  31.063  33.043  1.00  0.00     0.065 H 
ATOM     30  C   UNL A   1      39.410  31.031  34.296  1.00  0.00     0.007 A 
ATOM     31  H   UNL A   1      40.191  32.595  35.506  1.00  0.00     0.063 H 
ATOM     32  N   UNL A   1      38.486  29.366  33.141  1.00  0.00    -0.355 N 
ATOM     33  C   UNL A   1      40.404  30.019  34.060  1.00  0.00     0.009 A 
ATOM     34  C   UNL A   1      39.800  29.011  33.307  1.00  0.00     0.047 A 
ATOM     35  H   UNL A   1      37.801  28.796  32.721  1.00  0.00     0.167 HD
ATOM     36  C   UNL A   1      41.770  29.876  34.381  1.00  0.00    -0.033 A 
ATOM     37  C   UNL A   1      40.479  27.881  32.838  1.00  0.00    -0.036 A 
ATOM     38  C   UNL A   1      42.467  28.755  33.908  1.00  0.00     0.041 A 
ATOM     39  H   UNL A   1      42.251  30.585  34.957  1.00  0.00     0.065 H 
ATOM     40  C   UNL A   1      41.836  27.777  33.143  1.00  0.00    -0.041 A 
ATOM     41  H   UNL A   1      39.994  27.153  32.289  1.00  0.00     0.065 H 
ATOM     42  Cl  UNL A   1      44.145  28.588  34.260  1.00  0.00    -0.084 Cl
ATOM     43  H   UNL A   1      42.377  26.967  32.799  1.00  0.00     0.064 H 
ENDBRANCH  17  23
ENDBRANCH  14  17
ENDBRANCH  10  13
ENDBRANCH   7  10
ENDBRANCH   4   7
ENDBRANCH   1   4
BRANCH   1  44
ATOM     44  C   UNL A   1      35.205  32.992  29.618  1.00  0.00    -0.036 C 
ATOM     45  H   UNL A   1      34.915  33.978  29.916  1.00  0.00     0.028 H 
ATOM     46  H   UNL A   1      34.660  32.208  30.103  1.00  0.00     0.028 H 
BRANCH  44  47
ATOM     47  C   UNL A   1      34.898  32.844  28.135  1.00  0.00     0.018 C 
ATOM     48  H   UNL A   1      35.822  32.733  27.606  1.00  0.00     0.049 H 
ATOM     49  H   UNL A   1      34.364  33.722  27.834  1.00  0.00     0.049 H 
BRANCH  47  50
ATOM     50  N   UNL A   1      34.053  31.704  27.831  1.00  0.00    -0.352 N 
ATOM     51  C   UNL A   1      34.389  30.371  27.749  1.00  0.00     0.251 C 
ATOM     52  H   UNL A   1      33.106  31.912  27.659  1.00  0.00     0.163 HD
ATOM     53  O   UNL A   1      33.574  29.545  27.370  1.00  0.00    -0.269 OA
BRANCH  51  54
ATOM     54  C   UNL A   1      35.764  29.946  28.097  1.00  0.00     0.039 A 
ATOM     55  C   UNL A   1      36.786  30.126  27.162  1.00  0.00    -0.049 A 
ATOM     56  C   UNL A   1      36.042  29.383  29.346  1.00  0.00    -0.049 A 
ATOM     57  C   UNL A   1      38.102  29.802  27.501  1.00  0.00    -0.053 A 
ATOM     58  H   UNL A   1      36.569  30.497  26.223  1.00  0.00     0.063 H 
ATOM     59  C   UNL A   1      37.360  29.135  29.710  1.00  0.00    -0.053 A 
ATOM     60  H   UNL A   1      35.272  29.155  29.994  1.00  0.00     0.063 H 
ATOM     61  C   UNL A   1      38.403  29.334  28.789  1.00  0.00    -0.014 A 
ATOM     62  H   UNL A   1      38.856  29.907  26.803  1.00  0.00     0.063 H 
ATOM     63  H   UNL A   1      37.574  28.801  30.662  1.00  0.00     0.063 H 
BRANCH  61  64
ATOM     64  C   UNL A   1      39.790  29.007  29.206  1.00  0.00     0.031 A 
ATOM     65  C   UNL A   1      40.592  30.026  29.964  1.00  0.00     0.074 A 
ATOM     66  C   UNL A   1      40.359  27.851  28.815  1.00  0.00     0.049 A 
ATOM     67  N   UNL A   1      41.864  30.023  30.272  1.00  0.00    -0.248 NA
ATOM     68  C   UNL A   1      39.868  31.229  30.401  1.00  0.00    -0.034 C 
ATOM     69  C   UNL A   1      39.695  26.796  28.053  1.00  0.00    -0.036 A 
ATOM     70  N   UNL A   1      41.641  27.387  28.983  1.00  0.00    -0.354 N 
ATOM     71  C   UNL A   1      42.097  31.236  30.907  1.00  0.00     0.074 A 
ATOM     72  C   UNL A   1      40.849  31.968  30.894  1.00  0.00    -0.034 C 
ATOM     73  H   UNL A   1      38.861  31.442  30.339  1.00  0.00     0.065 H 
ATOM     74  C   UNL A   1      40.573  25.807  27.817  1.00  0.00    -0.036 A 
ATOM     75  H   UNL A   1      38.711  26.808  27.745  1.00  0.00     0.065 H 
ATOM     76  C   UNL A   1      41.872  26.180  28.370  1.00  0.00     0.049 A 
ATOM     77  H   UNL A   1      42.329  27.874  29.493  1.00  0.00     0.167 HD
ATOM     78  C   UNL A   1      43.245  31.690  31.464  1.00  0.00     0.037 A 
ATOM     79  H   UNL A   1      40.739  32.939  31.227  1.00  0.00     0.065 H 
ATOM     80  H   UNL A   1      40.363  24.924  27.326  1.00  0.00     0.065 H 
ATOM     81  C   UNL A   1      43.008  25.467  28.246  1.00  0.00     0.037 A 
ATOM     82  C   UNL A   1      44.475  30.944  31.491  1.00  0.00     0.049 A 
ATOM     83  C   UNL A   1      44.278  25.993  28.863  1.00  0.00     0.074 A 
ATOM     84  C   UNL A   1      45.679  31.285  32.082  1.00  0.00    -0.036 A 
ATOM     85  N   UNL A   1      44.659  29.705  30.892  1.00  0.00    -0.354 N 
ATOM     86  N   UNL A   1      44.479  27.114  29.511  1.00  0.00    -0.248 NA
ATOM     87  C   UNL A   1      45.476  25.151  28.736  1.00  0.00    -0.034 C 
ATOM     88  C   UNL A   1      46.607  30.279  31.792  1.00  0.00    -0.036 A 
ATOM     89  H   UNL A   1      45.860  32.133  32.639  1.00  0.00     0.065 H 
ATOM     90  C   UNL A   1      45.964  29.279  31.079  1.00  0.00     0.049 A 
ATOM     91  H   UNL A   1      43.966  29.204  30.405  1.00  0.00     0.167 HD
ATOM     92  C   UNL A   1      45.811  27.099  29.901  1.00  0.00     0.074 A 
ATOM     93  C   UNL A   1      46.373  25.855  29.416  1.00  0.00    -0.034 C 
ATOM     94  H   UNL A   1      45.590  24.249  28.249  1.00  0.00     0.065 H 
ATOM     95  H   UNL A   1      47.602  30.282  32.064  1.00  0.00     0.065 H 
ATOM     96  C   UNL A   1      46.503  28.028  30.606  1.00  0.00     0.037 A 
ATOM     97  H   UNL A   1      47.347  25.554  29.577  1.00  0.00     0.065 H 
BRANCH  78  98
ATOM     98  C   UNL A   1      43.221  33.065  32.071  1.00  0.00     0.064 A 
ATOM     99  C   UNL A   1      43.101  33.263  33.455  1.00  0.00     0.173 A 
ATOM    100  C   UNL A   1      43.316  34.202  31.254  1.00  0.00     0.173 A 
ATOM    101  F   UNL A   1      42.998  32.211  34.282  1.00  0.00    -0.203 F 
ATOM    102  C   UNL A   1      43.025  34.546  33.993  1.00  0.00     0.198 A 
ATOM    103  C   UNL A   1      43.279  35.483  31.800  1.00  0.00     0.198 A 
ATOM    104  F   UNL A   1      43.443  34.074  29.925  1.00  0.00    -0.203 F 
ATOM    105  F   UNL A   1      42.834  34.707  35.310  1.00  0.00    -0.200 F 
ATOM    106  C   UNL A   1      43.118  35.654  33.167  1.00  0.00     0.200 A 
ATOM    107  F   UNL A   1      43.387  36.554  31.000  1.00  0.00    -0.200 F 
ATOM    108  F   UNL A   1      43.042  36.888  33.685  1.00  0.00    -0.200 F 
ENDBRANCH  78  98
BRANCH  81 109
ATOM    109  C   UNL A   1      42.984  24.171  27.520  1.00  0.00     0.064 A 
ATOM    110  C   UNL A   1      42.619  22.987  28.176  1.00  0.00     0.173 A 
ATOM    111  C   UNL A   1      43.290  24.093  26.154  1.00  0.00     0.173 A 
ATOM    112  F   UNL A   1      42.335  23.007  29.487  1.00  0.00    -0.203 F 
ATOM    113  C   UNL A   1      42.569  21.772  27.494  1.00  0.00     0.198 A 
ATOM    114  C   UNL A   1      43.213  22.882  25.467  1.00  0.00     0.198 A 
ATOM    115  F   UNL A   1      43.637  25.199  25.478  1.00  0.00    -0.203 F 
ATOM    116  F   UNL A   1      42.247  20.650  28.152  1.00  0.00    -0.200 F 
ATOM    117  C   UNL A   1      42.858  21.723  26.139  1.00  0.00     0.200 A 
ATOM    118  F   UNL A   1      43.475  22.843  24.154  1.00  0.00    -0.200 F 
ATOM    119  F   UNL A   1      42.795  20.558  25.480  1.00  0.00    -0.200 F 
ENDBRANCH  81 109
BRANCH  96 120
ATOM    120  C   UNL A   1      47.930  27.719  30.957  1.00  0.00     0.064 A 
ATOM    121  C   UNL A   1      48.998  28.120  30.143  1.00  0.00     0.173 A 
ATOM    122  C   UNL A   1      48.232  27.084  32.173  1.00  0.00     0.173 A 
ATOM    123  F   UNL A   1      48.764  28.718  28.965  1.00  0.00    -0.203 F 
ATOM    124  C   UNL A   1      50.316  27.887  30.528  1.00  0.00     0.198 A 
ATOM    125  C   UNL A   1      49.550  26.880  32.568  1.00  0.00     0.198 A 
ATOM    126  F   UNL A   1      47.245  26.687  32.990  1.00  0.00    -0.203 F 
ATOM    127  F   UNL A   1      51.322  28.250  29.721  1.00  0.00    -0.200 F 
ATOM    128  C   UNL A   1      50.591  27.279  31.745  1.00  0.00     0.200 A 
ATOM    129  F   UNL A   1      49.812  26.308  33.752  1.00  0.00    -0.200 F 
ATOM    130  F   UNL A   1      51.861  27.075  32.123  1.00  0.00    -0.200 F 
ENDBRANCH  96 120
ENDBRANCH  61  64
ENDBRANCH  51  54
ENDBRANCH  47  50
ENDBRANCH  44  47
ENDBRANCH   1  44
TORSDOF 15
ENDMDL
MODEL 9
REMARK VINA RESULT:     -12.2      3.559      6.274
REMARK SMILES C[C@H](C(=O)NCCCCCCNC(=O)c1ccc(-c2c3nc(c(-c4c(F)c(F)c(F)c(F)c4F)c4ccc([nH]4)c(-c4c(F)c(F)c(F)c(F)c4F)c4nc(c(-c5c(F)c(F)c(F)c(F)c5F)c5ccc2[nH]5)C=C4)C=C3)cc1)c1ccc2c(c1)[nH]c1ccc(Cl)cc12
REMARK SMILES IDX 9 1 8 4 7 7 6 10 5 13 3 14 4 15 2 17 1 19 78 23 79 24 83 25
REMARK SMILES IDX 80 26 82 28 81 30 84 32 91 33 85 34 90 36 86 37 88 38 87 40
REMARK SMILES IDX 89 42 10 44 11 47 12 50 13 51 14 53 15 54 16 55 77 56 17 57
REMARK SMILES IDX 76 59 18 61 19 64 20 65 70 66 21 67 75 68 69 69 71 70 22 71
REMARK SMILES IDX 74 72 68 74 67 76 23 78 55 81 35 82 54 83 36 84 39 85 53 86
REMARK SMILES IDX 72 87 37 88 38 90 52 92 73 93 40 96 24 98 25 99 33 100
REMARK SMILES IDX 26 101 27 102 31 103 34 104 28 105 29 106 32 107 30 108
REMARK SMILES IDX 56 109 57 110 65 111 58 112 59 113 63 114 66 115 60 116
REMARK SMILES IDX 61 117 64 118 62 119 41 120 42 121 50 122 43 123 44 124
REMARK SMILES IDX 48 125 51 126 45 127 46 128 49 129 47 130
REMARK H PARENT 9 2 9 3 8 5 8 6 7 8 7 9 6 11 6 12 5 16 2 18 1 20 1 21 1 22
REMARK H PARENT 79 27 83 29 80 31 84 35 90 39 86 41 87 43 10 45 10 46 11 48
REMARK H PARENT 11 49 12 52 16 58 77 60 17 62 76 63 75 73 69 75 71 77 74 79
REMARK H PARENT 68 80 36 89 39 91 72 94 37 95 73 97
REMARK Flexibility Score: inf
ROOT
ATOM      1  C   UNL A   1      34.825  24.402  25.499  1.00  0.00    -0.052 C 
ATOM      2  H   UNL A   1      34.740  25.465  25.408  1.00  0.00     0.027 H 
ATOM      3  H   UNL A   1      34.757  23.862  24.577  1.00  0.00     0.027 H 
ENDROOT
BRANCH   1   4
ATOM      4  C   UNL A   1      33.638  23.914  26.332  1.00  0.00    -0.052 C 
ATOM      5  H   UNL A   1      33.257  24.757  26.871  1.00  0.00     0.027 H 
ATOM      6  H   UNL A   1      32.967  23.482  25.619  1.00  0.00     0.027 H 
BRANCH   4   7
ATOM      7  C   UNL A   1      33.892  22.798  27.349  1.00  0.00    -0.036 C 
ATOM      8  H   UNL A   1      34.628  23.156  28.038  1.00  0.00     0.028 H 
ATOM      9  H   UNL A   1      32.930  22.591  27.768  1.00  0.00     0.028 H 
BRANCH   7  10
ATOM     10  C   UNL A   1      34.379  21.454  26.819  1.00  0.00     0.017 C 
ATOM     11  H   UNL A   1      34.857  21.622  25.877  1.00  0.00     0.049 H 
ATOM     12  H   UNL A   1      35.037  21.059  27.565  1.00  0.00     0.049 H 
BRANCH  10  13
ATOM     13  N   UNL A   1      33.345  20.467  26.627  1.00  0.00    -0.356 N 
ATOM     14  C   UNL A   1      32.953  19.812  25.503  1.00  0.00     0.227 C 
ATOM     15  O   UNL A   1      32.298  18.778  25.711  1.00  0.00    -0.274 OA
ATOM     16  H   UNL A   1      32.843  20.229  27.440  1.00  0.00     0.163 HD
BRANCH  14  17
ATOM     17  C   UNL A   1      33.135  20.287  24.047  1.00  0.00     0.060 C 
ATOM     18  H   UNL A   1      34.180  20.479  23.922  1.00  0.00     0.045 H 
BRANCH  17  19
ATOM     19  C   UNL A   1      32.574  19.137  23.181  1.00  0.00    -0.049 C 
ATOM     20  H   UNL A   1      32.670  19.390  22.146  1.00  0.00     0.024 H 
ATOM     21  H   UNL A   1      31.541  18.983  23.416  1.00  0.00     0.024 H 
ATOM     22  H   UNL A   1      33.122  18.239  23.380  1.00  0.00     0.024 H 
ENDBRANCH  17  19
BRANCH  17  23
ATOM     23  C   UNL A   1      32.661  21.673  23.606  1.00  0.00    -0.034 A 
ATOM     24  C   UNL A   1      33.379  22.421  22.656  1.00  0.00    -0.057 A 
ATOM     25  C   UNL A   1      31.464  22.221  24.105  1.00  0.00    -0.034 A 
ATOM     26  C   UNL A   1      33.025  23.749  22.335  1.00  0.00    -0.052 A 
ATOM     27  H   UNL A   1      34.186  21.986  22.181  1.00  0.00     0.063 H 
ATOM     28  C   UNL A   1      31.111  23.528  23.756  1.00  0.00     0.047 A 
ATOM     29  H   UNL A   1      30.854  21.664  24.723  1.00  0.00     0.065 H 
ATOM     30  C   UNL A   1      31.881  24.331  22.924  1.00  0.00     0.007 A 
ATOM     31  H   UNL A   1      33.600  24.293  21.673  1.00  0.00     0.063 H 
ATOM     32  N   UNL A   1      30.018  24.261  24.142  1.00  0.00    -0.355 N 
ATOM     33  C   UNL A   1      31.276  25.635  22.926  1.00  0.00     0.009 A 
ATOM     34  C   UNL A   1      30.133  25.562  23.724  1.00  0.00     0.047 A 
ATOM     35  H   UNL A   1      29.254  23.902  24.650  1.00  0.00     0.167 HD
ATOM     36  C   UNL A   1      31.605  26.884  22.357  1.00  0.00    -0.033 A 
ATOM     37  C   UNL A   1      29.312  26.659  24.006  1.00  0.00    -0.036 A 
ATOM     38  C   UNL A   1      30.799  27.995  22.640  1.00  0.00     0.041 A 
ATOM     39  H   UNL A   1      32.428  26.978  21.740  1.00  0.00     0.065 H 
ATOM     40  C   UNL A   1      29.675  27.888  23.456  1.00  0.00    -0.041 A 
ATOM     41  H   UNL A   1      28.471  26.563  24.596  1.00  0.00     0.065 H 
ATOM     42  Cl  UNL A   1      31.213  29.533  21.983  1.00  0.00    -0.084 Cl
ATOM     43  H   UNL A   1      29.107  28.727  23.656  1.00  0.00     0.064 H 
ENDBRANCH  17  23
ENDBRANCH  14  17
ENDBRANCH  10  13
ENDBRANCH   7  10
ENDBRANCH   4   7
ENDBRANCH   1   4
BRANCH   1  44
ATOM     44  C   UNL A   1      36.222  24.095  26.035  1.00  0.00    -0.036 C 
ATOM     45  H   UNL A   1      36.139  23.269  26.711  1.00  0.00     0.028 H 
ATOM     46  H   UNL A   1      36.561  25.003  26.490  1.00  0.00     0.028 H 
BRANCH  44  47
ATOM     47  C   UNL A   1      37.277  23.741  24.997  1.00  0.00     0.018 C 
ATOM     48  H   UNL A   1      37.814  24.631  24.741  1.00  0.00     0.049 H 
ATOM     49  H   UNL A   1      36.765  23.323  24.155  1.00  0.00     0.049 H 
BRANCH  47  50
ATOM     50  N   UNL A   1      38.228  22.745  25.456  1.00  0.00    -0.352 N 
ATOM     51  C   UNL A   1      39.340  22.908  26.252  1.00  0.00     0.251 C 
ATOM     52  H   UNL A   1      38.054  21.824  25.157  1.00  0.00     0.163 HD
ATOM     53  O   UNL A   1      40.103  21.977  26.456  1.00  0.00    -0.269 OA
BRANCH  51  54
ATOM     54  C   UNL A   1      39.622  24.237  26.842  1.00  0.00     0.039 A 
ATOM     55  C   UNL A   1      39.226  24.492  28.157  1.00  0.00    -0.049 A 
ATOM     56  C   UNL A   1      40.286  25.219  26.102  1.00  0.00    -0.049 A 
ATOM     57  C   UNL A   1      39.553  25.712  28.755  1.00  0.00    -0.053 A 
ATOM     58  H   UNL A   1      38.694  23.782  28.686  1.00  0.00     0.063 H 
ATOM     59  C   UNL A   1      40.678  26.400  26.722  1.00  0.00    -0.053 A 
ATOM     60  H   UNL A   1      40.484  25.068  25.101  1.00  0.00     0.063 H 
ATOM     61  C   UNL A   1      40.309  26.662  28.053  1.00  0.00    -0.014 A 
ATOM     62  H   UNL A   1      39.237  25.916  29.717  1.00  0.00     0.063 H 
ATOM     63  H   UNL A   1      41.242  27.088  26.202  1.00  0.00     0.063 H 
BRANCH  61  64
ATOM     64  C   UNL A   1      40.707  27.958  28.658  1.00  0.00     0.031 A 
ATOM     65  C   UNL A   1      42.104  28.129  29.181  1.00  0.00     0.074 A 
ATOM     66  C   UNL A   1      39.794  28.933  28.831  1.00  0.00     0.049 A 
ATOM     67  N   UNL A   1      42.612  29.100  29.897  1.00  0.00    -0.248 NA
ATOM     68  C   UNL A   1      43.046  27.039  28.890  1.00  0.00    -0.034 C 
ATOM     69  C   UNL A   1      38.401  28.875  28.393  1.00  0.00    -0.036 A 
ATOM     70  N   UNL A   1      39.899  30.152  29.454  1.00  0.00    -0.354 N 
ATOM     71  C   UNL A   1      43.919  28.721  30.168  1.00  0.00     0.074 A 
ATOM     72  C   UNL A   1      44.110  27.410  29.585  1.00  0.00    -0.034 C 
ATOM     73  H   UNL A   1      42.913  26.203  28.300  1.00  0.00     0.065 H 
ATOM     74  C   UNL A   1      37.779  30.008  28.759  1.00  0.00    -0.036 A 
ATOM     75  H   UNL A   1      37.965  28.091  27.884  1.00  0.00     0.065 H 
ATOM     76  C   UNL A   1      38.716  30.849  29.500  1.00  0.00     0.049 A 
ATOM     77  H   UNL A   1      40.741  30.494  29.832  1.00  0.00     0.167 HD
ATOM     78  C   UNL A   1      44.878  29.410  30.832  1.00  0.00     0.037 A 
ATOM     79  H   UNL A   1      44.963  26.841  29.695  1.00  0.00     0.065 H 
ATOM     80  H   UNL A   1      36.797  30.246  28.550  1.00  0.00     0.065 H 
ATOM     81  C   UNL A   1      38.415  32.020  30.092  1.00  0.00     0.037 A 
ATOM     82  C   UNL A   1      44.685  30.722  31.388  1.00  0.00     0.049 A 
ATOM     83  C   UNL A   1      39.492  32.768  30.834  1.00  0.00     0.074 A 
ATOM     84  C   UNL A   1      45.606  31.534  32.026  1.00  0.00    -0.036 A 
ATOM     85  N   UNL A   1      43.480  31.413  31.381  1.00  0.00    -0.354 N 
ATOM     86  N   UNL A   1      40.741  32.429  31.039  1.00  0.00    -0.248 NA
ATOM     87  C   UNL A   1      39.118  34.063  31.421  1.00  0.00    -0.034 C 
ATOM     88  C   UNL A   1      44.945  32.691  32.453  1.00  0.00    -0.036 A 
ATOM     89  H   UNL A   1      46.606  31.323  32.162  1.00  0.00     0.065 H 
ATOM     90  C   UNL A   1      43.630  32.631  32.022  1.00  0.00     0.049 A 
ATOM     91  H   UNL A   1      42.644  31.085  30.978  1.00  0.00     0.167 HD
ATOM     92  C   UNL A   1      41.313  33.480  31.743  1.00  0.00     0.074 A 
ATOM     93  C   UNL A   1      40.272  34.469  31.933  1.00  0.00    -0.034 C 
ATOM     94  H   UNL A   1      38.199  34.532  31.430  1.00  0.00     0.065 H 
ATOM     95  H   UNL A   1      45.368  33.459  32.997  1.00  0.00     0.065 H 
ATOM     96  C   UNL A   1      42.588  33.615  32.185  1.00  0.00     0.037 A 
ATOM     97  H   UNL A   1      40.411  35.376  32.406  1.00  0.00     0.065 H 
BRANCH  78  98
ATOM     98  C   UNL A   1      46.214  28.743  31.002  1.00  0.00     0.064 A 
ATOM     99  C   UNL A   1      47.239  28.879  30.052  1.00  0.00     0.173 A 
ATOM    100  C   UNL A   1      46.473  27.952  32.132  1.00  0.00     0.173 A 
ATOM    101  F   UNL A   1      47.042  29.615  28.948  1.00  0.00    -0.203 F 
ATOM    102  C   UNL A   1      48.450  28.208  30.201  1.00  0.00     0.198 A 
ATOM    103  C   UNL A   1      47.700  27.314  32.297  1.00  0.00     0.198 A 
ATOM    104  F   UNL A   1      45.536  27.794  33.078  1.00  0.00    -0.203 F 
ATOM    105  F   UNL A   1      49.383  28.293  29.241  1.00  0.00    -0.200 F 
ATOM    106  C   UNL A   1      48.682  27.430  31.324  1.00  0.00     0.200 A 
ATOM    107  F   UNL A   1      47.928  26.577  33.393  1.00  0.00    -0.200 F 
ATOM    108  F   UNL A   1      49.847  26.783  31.465  1.00  0.00    -0.200 F 
ENDBRANCH  78  98
BRANCH  81 109
ATOM    109  C   UNL A   1      37.035  32.560  29.988  1.00  0.00     0.064 A 
ATOM    110  C   UNL A   1      36.108  32.368  31.022  1.00  0.00     0.173 A 
ATOM    111  C   UNL A   1      36.623  33.305  28.874  1.00  0.00     0.173 A 
ATOM    112  F   UNL A   1      36.448  31.646  32.101  1.00  0.00    -0.203 F 
ATOM    113  C   UNL A   1      34.820  32.893  30.942  1.00  0.00     0.198 A 
ATOM    114  C   UNL A   1      35.343  33.853  28.807  1.00  0.00     0.198 A 
ATOM    115  F   UNL A   1      37.475  33.524  27.860  1.00  0.00    -0.203 F 
ATOM    116  F   UNL A   1      33.944  32.669  31.931  1.00  0.00    -0.200 F 
ATOM    117  C   UNL A   1      34.442  33.643  29.838  1.00  0.00     0.200 A 
ATOM    118  F   UNL A   1      34.989  34.592  27.747  1.00  0.00    -0.200 F 
ATOM    119  F   UNL A   1      33.208  34.162  29.768  1.00  0.00    -0.200 F 
ENDBRANCH  81 109
BRANCH  96 120
ATOM    120  C   UNL A   1      42.960  34.902  32.865  1.00  0.00     0.064 A 
ATOM    121  C   UNL A   1      43.448  36.004  32.151  1.00  0.00     0.173 A 
ATOM    122  C   UNL A   1      42.741  35.055  34.243  1.00  0.00     0.173 A 
ATOM    123  F   UNL A   1      43.687  35.906  30.835  1.00  0.00    -0.203 F 
ATOM    124  C   UNL A   1      43.714  37.210  32.795  1.00  0.00     0.198 A 
ATOM    125  C   UNL A   1      42.980  36.270  34.877  1.00  0.00     0.198 A 
ATOM    126  F   UNL A   1      42.269  34.030  34.970  1.00  0.00    -0.203 F 
ATOM    127  F   UNL A   1      44.211  38.243  32.100  1.00  0.00    -0.200 F 
ATOM    128  C   UNL A   1      43.469  37.346  34.154  1.00  0.00     0.200 A 
ATOM    129  F   UNL A   1      42.725  36.402  36.187  1.00  0.00    -0.200 F 
ATOM    130  F   UNL A   1      43.707  38.514  34.766  1.00  0.00    -0.200 F 
ENDBRANCH  96 120
ENDBRANCH  61  64
ENDBRANCH  51  54
ENDBRANCH  47  50
ENDBRANCH  44  47
ENDBRANCH   1  44
TORSDOF 15
ENDMDL
MODEL 10
REMARK VINA RESULT:     -12.2      2.471      4.559
REMARK SMILES C[C@H](C(=O)NCCCCCCNC(=O)c1ccc(-c2c3nc(c(-c4c(F)c(F)c(F)c(F)c4F)c4ccc([nH]4)c(-c4c(F)c(F)c(F)c(F)c4F)c4nc(c(-c5c(F)c(F)c(F)c(F)c5F)c5ccc2[nH]5)C=C4)C=C3)cc1)c1ccc2c(c1)[nH]c1ccc(Cl)cc12
REMARK SMILES IDX 9 1 8 4 7 7 6 10 5 13 3 14 4 15 2 17 1 19 78 23 79 24 83 25
REMARK SMILES IDX 80 26 82 28 81 30 84 32 91 33 85 34 90 36 86 37 88 38 87 40
REMARK SMILES IDX 89 42 10 44 11 47 12 50 13 51 14 53 15 54 16 55 77 56 17 57
REMARK SMILES IDX 76 59 18 61 19 64 20 65 70 66 21 67 75 68 69 69 71 70 22 71
REMARK SMILES IDX 74 72 68 74 67 76 23 78 55 81 35 82 54 83 36 84 39 85 53 86
REMARK SMILES IDX 72 87 37 88 38 90 52 92 73 93 40 96 24 98 25 99 33 100
REMARK SMILES IDX 26 101 27 102 31 103 34 104 28 105 29 106 32 107 30 108
REMARK SMILES IDX 56 109 57 110 65 111 58 112 59 113 63 114 66 115 60 116
REMARK SMILES IDX 61 117 64 118 62 119 41 120 42 121 50 122 43 123 44 124
REMARK SMILES IDX 48 125 51 126 45 127 46 128 49 129 47 130
REMARK H PARENT 9 2 9 3 8 5 8 6 7 8 7 9 6 11 6 12 5 16 2 18 1 20 1 21 1 22
REMARK H PARENT 79 27 83 29 80 31 84 35 90 39 86 41 87 43 10 45 10 46 11 48
REMARK H PARENT 11 49 12 52 16 58 77 60 17 62 76 63 75 73 69 75 71 77 74 79
REMARK H PARENT 68 80 36 89 39 91 72 94 37 95 73 97
REMARK Flexibility Score: inf
ROOT
ATOM      1  C   UNL A   1      31.727  30.574  26.512  1.00  0.00    -0.052 C 
ATOM      2  H   UNL A   1      32.747  30.341  26.737  1.00  0.00     0.027 H 
ATOM      3  H   UNL A   1      31.006  30.113  27.155  1.00  0.00     0.027 H 
ENDROOT
BRANCH   1   4
ATOM      4  C   UNL A   1      31.425  30.020  25.118  1.00  0.00    -0.052 C 
ATOM      5  H   UNL A   1      32.315  30.123  24.533  1.00  0.00     0.027 H 
ATOM      6  H   UNL A   1      31.101  29.015  25.290  1.00  0.00     0.027 H 
BRANCH   4   7
ATOM      7  C   UNL A   1      30.282  30.665  24.329  1.00  0.00    -0.036 C 
ATOM      8  H   UNL A   1      29.566  31.022  25.038  1.00  0.00     0.028 H 
ATOM      9  H   UNL A   1      30.756  31.416  23.733  1.00  0.00     0.028 H 
BRANCH   7  10
ATOM     10  C   UNL A   1      29.534  29.794  23.326  1.00  0.00     0.017 C 
ATOM     11  H   UNL A   1      28.828  29.197  23.865  1.00  0.00     0.049 H 
ATOM     12  H   UNL A   1      29.078  30.464  22.628  1.00  0.00     0.049 H 
BRANCH  10  13
ATOM     13  N   UNL A   1      30.367  28.908  22.550  1.00  0.00    -0.356 N 
ATOM     14  C   UNL A   1      30.660  27.594  22.729  1.00  0.00     0.227 C 
ATOM     15  O   UNL A   1      31.101  27.022  21.720  1.00  0.00    -0.274 OA
ATOM     16  H   UNL A   1      30.793  29.322  21.764  1.00  0.00     0.163 HD
BRANCH  14  17
ATOM     17  C   UNL A   1      30.611  26.811  24.057  1.00  0.00     0.060 C 
ATOM     18  H   UNL A   1      30.663  27.540  24.838  1.00  0.00     0.045 H 
BRANCH  17  19
ATOM     19  C   UNL A   1      29.292  26.010  23.998  1.00  0.00    -0.049 C 
ATOM     20  H   UNL A   1      28.645  26.329  24.788  1.00  0.00     0.024 H 
ATOM     21  H   UNL A   1      29.502  24.966  24.109  1.00  0.00     0.024 H 
ATOM     22  H   UNL A   1      28.813  26.177  23.056  1.00  0.00     0.024 H 
ENDBRANCH  17  19
BRANCH  17  23
ATOM     23  C   UNL A   1      31.809  25.985  24.528  1.00  0.00    -0.034 A 
ATOM     24  C   UNL A   1      32.917  26.592  25.146  1.00  0.00    -0.057 A 
ATOM     25  C   UNL A   1      31.817  24.583  24.400  1.00  0.00    -0.034 A 
ATOM     26  C   UNL A   1      34.081  25.861  25.470  1.00  0.00    -0.052 A 
ATOM     27  H   UNL A   1      32.878  27.599  25.368  1.00  0.00     0.063 H 
ATOM     28  C   UNL A   1      32.965  23.867  24.751  1.00  0.00     0.047 A 
ATOM     29  H   UNL A   1      30.982  24.088  24.049  1.00  0.00     0.065 H 
ATOM     30  C   UNL A   1      34.120  24.469  25.237  1.00  0.00     0.007 A 
ATOM     31  H   UNL A   1      34.899  26.342  25.874  1.00  0.00     0.063 H 
ATOM     32  N   UNL A   1      33.198  22.518  24.684  1.00  0.00    -0.355 N 
ATOM     33  C   UNL A   1      35.117  23.437  25.337  1.00  0.00     0.009 A 
ATOM     34  C   UNL A   1      34.514  22.238  24.952  1.00  0.00     0.047 A 
ATOM     35  H   UNL A   1      32.515  21.841  24.472  1.00  0.00     0.167 HD
ATOM     36  C   UNL A   1      36.484  23.408  25.683  1.00  0.00    -0.033 A 
ATOM     37  C   UNL A   1      35.195  21.019  24.870  1.00  0.00    -0.036 A 
ATOM     38  C   UNL A   1      37.183  22.196  25.594  1.00  0.00     0.041 A 
ATOM     39  H   UNL A   1      36.964  24.266  25.997  1.00  0.00     0.065 H 
ATOM     40  C   UNL A   1      36.553  21.022  25.189  1.00  0.00    -0.041 A 
ATOM     41  H   UNL A   1      34.712  20.152  24.587  1.00  0.00     0.065 H 
ATOM     42  Cl  UNL A   1      38.863  22.156  25.977  1.00  0.00    -0.084 Cl
ATOM     43  H   UNL A   1      37.096  20.146  25.123  1.00  0.00     0.064 H 
ENDBRANCH  17  23
ENDBRANCH  14  17
ENDBRANCH  10  13
ENDBRANCH   7  10
ENDBRANCH   4   7
ENDBRANCH   1   4
BRANCH   1  44
ATOM     44  C   UNL A   1      31.539  32.075  26.719  1.00  0.00    -0.036 C 
ATOM     45  H   UNL A   1      30.705  32.213  27.376  1.00  0.00     0.028 H 
ATOM     46  H   UNL A   1      31.400  32.485  25.740  1.00  0.00     0.028 H 
BRANCH  44  47
ATOM     47  C   UNL A   1      32.725  32.825  27.311  1.00  0.00     0.018 C 
ATOM     48  H   UNL A   1      33.510  32.848  26.583  1.00  0.00     0.049 H 
ATOM     49  H   UNL A   1      33.015  32.306  28.201  1.00  0.00     0.049 H 
BRANCH  47  50
ATOM     50  N   UNL A   1      32.412  34.190  27.693  1.00  0.00    -0.352 N 
ATOM     51  C   UNL A   1      33.008  34.984  28.646  1.00  0.00     0.251 C 
ATOM     52  H   UNL A   1      31.668  34.607  27.201  1.00  0.00     0.163 HD
ATOM     53  O   UNL A   1      32.548  36.080  28.923  1.00  0.00    -0.269 OA
BRANCH  51  54
ATOM     54  C   UNL A   1      34.205  34.485  29.361  1.00  0.00     0.039 A 
ATOM     55  C   UNL A   1      34.041  33.856  30.598  1.00  0.00    -0.049 A 
ATOM     56  C   UNL A   1      35.479  34.628  28.806  1.00  0.00    -0.049 A 
ATOM     57  C   UNL A   1      35.150  33.311  31.251  1.00  0.00    -0.053 A 
ATOM     58  H   UNL A   1      33.104  33.794  31.028  1.00  0.00     0.063 H 
ATOM     59  C   UNL A   1      36.568  34.018  29.418  1.00  0.00    -0.053 A 
ATOM     60  H   UNL A   1      35.611  35.183  27.946  1.00  0.00     0.063 H 
ATOM     61  C   UNL A   1      36.417  33.360  30.650  1.00  0.00    -0.014 A 
ATOM     62  H   UNL A   1      35.037  32.870  32.178  1.00  0.00     0.063 H 
ATOM     63  H   UNL A   1      37.494  34.049  28.964  1.00  0.00     0.063 H 
BRANCH  61  64
ATOM     64  C   UNL A   1      37.617  32.766  31.291  1.00  0.00     0.031 A 
ATOM     65  C   UNL A   1      38.319  31.619  30.622  1.00  0.00     0.074 A 
ATOM     66  C   UNL A   1      38.009  33.181  32.511  1.00  0.00     0.049 A 
ATOM     67  N   UNL A   1      39.269  30.843  31.079  1.00  0.00    -0.248 NA
ATOM     68  C   UNL A   1      37.862  31.278  29.267  1.00  0.00    -0.034 C 
ATOM     69  C   UNL A   1      37.392  34.264  33.274  1.00  0.00    -0.036 A 
ATOM     70  N   UNL A   1      39.004  32.715  33.334  1.00  0.00    -0.354 N 
ATOM     71  C   UNL A   1      39.496  29.904  30.083  1.00  0.00     0.074 A 
ATOM     72  C   UNL A   1      38.552  30.175  29.020  1.00  0.00    -0.034 C 
ATOM     73  H   UNL A   1      37.181  31.768  28.666  1.00  0.00     0.065 H 
ATOM     74  C   UNL A   1      38.021  34.382  34.455  1.00  0.00    -0.036 A 
ATOM     75  H   UNL A   1      36.601  34.846  32.957  1.00  0.00     0.065 H 
ATOM     76  C   UNL A   1      39.052  33.351  34.550  1.00  0.00     0.049 A 
ATOM     77  H   UNL A   1      39.623  31.994  33.078  1.00  0.00     0.167 HD
ATOM     78  C   UNL A   1      40.420  28.914  30.051  1.00  0.00     0.037 A 
ATOM     79  H   UNL A   1      38.434  29.588  28.180  1.00  0.00     0.065 H 
ATOM     80  H   UNL A   1      37.811  35.087  35.178  1.00  0.00     0.065 H 
ATOM     81  C   UNL A   1      39.823  33.115  35.629  1.00  0.00     0.037 A 
ATOM     82  C   UNL A   1      41.369  28.666  31.103  1.00  0.00     0.049 A 
ATOM     83  C   UNL A   1      40.838  32.003  35.580  1.00  0.00     0.074 A 
ATOM     84  C   UNL A   1      42.386  27.729  31.145  1.00  0.00    -0.036 A 
ATOM     85  N   UNL A   1      41.412  29.358  32.305  1.00  0.00    -0.354 N 
ATOM     86  N   UNL A   1      41.086  31.154  34.613  1.00  0.00    -0.248 NA
ATOM     87  C   UNL A   1      41.683  31.821  36.768  1.00  0.00    -0.034 C 
ATOM     88  C   UNL A   1      43.008  27.816  32.396  1.00  0.00    -0.036 A 
ATOM     89  H   UNL A   1      42.642  27.079  30.386  1.00  0.00     0.065 H 
ATOM     90  C   UNL A   1      42.423  28.853  33.106  1.00  0.00     0.049 A 
ATOM     91  H   UNL A   1      40.812  30.098  32.553  1.00  0.00     0.167 HD
ATOM     92  C   UNL A   1      42.136  30.362  35.056  1.00  0.00     0.074 A 
ATOM     93  C   UNL A   1      42.479  30.831  36.384  1.00  0.00    -0.034 C 
ATOM     94  H   UNL A   1      41.663  32.330  37.665  1.00  0.00     0.065 H 
ATOM     95  H   UNL A   1      43.772  27.211  32.731  1.00  0.00     0.065 H 
ATOM     96  C   UNL A   1      42.765  29.345  34.418  1.00  0.00     0.037 A 
ATOM     97  H   UNL A   1      43.245  30.445  36.957  1.00  0.00     0.065 H 
BRANCH  78  98
ATOM     98  C   UNL A   1      40.429  28.018  28.844  1.00  0.00     0.064 A 
ATOM     99  C   UNL A   1      39.712  26.812  28.809  1.00  0.00     0.173 A 
ATOM    100  C   UNL A   1      41.170  28.369  27.705  1.00  0.00     0.173 A 
ATOM    101  F   UNL A   1      38.994  26.422  29.873  1.00  0.00    -0.203 F 
ATOM    102  C   UNL A   1      39.778  25.968  27.703  1.00  0.00     0.198 A 
ATOM    103  C   UNL A   1      41.203  27.542  26.585  1.00  0.00     0.198 A 
ATOM    104  F   UNL A   1      41.868  29.514  27.677  1.00  0.00    -0.203 F 
ATOM    105  F   UNL A   1      39.144  24.786  27.725  1.00  0.00    -0.200 F 
ATOM    106  C   UNL A   1      40.518  26.335  26.590  1.00  0.00     0.200 A 
ATOM    107  F   UNL A   1      41.906  27.907  25.504  1.00  0.00    -0.200 F 
ATOM    108  F   UNL A   1      40.583  25.522  25.528  1.00  0.00    -0.200 F 
ENDBRANCH  78  98
BRANCH  81 109
ATOM    109  C   UNL A   1      39.670  33.964  36.839  1.00  0.00     0.064 A 
ATOM    110  C   UNL A   1      40.305  35.211  36.926  1.00  0.00     0.173 A 
ATOM    111  C   UNL A   1      38.864  33.566  37.914  1.00  0.00     0.173 A 
ATOM    112  F   UNL A   1      41.101  35.629  35.931  1.00  0.00    -0.203 F 
ATOM    113  C   UNL A   1      40.145  36.024  38.047  1.00  0.00     0.198 A 
ATOM    114  C   UNL A   1      38.682  34.392  39.023  1.00  0.00     0.198 A 
ATOM    115  F   UNL A   1      38.228  32.385  37.877  1.00  0.00    -0.203 F 
ATOM    116  F   UNL A   1      40.786  37.198  38.118  1.00  0.00    -0.200 F 
ATOM    117  C   UNL A   1      39.326  35.617  39.090  1.00  0.00     0.200 A 
ATOM    118  F   UNL A   1      37.876  34.002  40.019  1.00  0.00    -0.200 F 
ATOM    119  F   UNL A   1      39.160  36.405  40.161  1.00  0.00    -0.200 F 
ENDBRANCH  81 109
BRANCH  96 120
ATOM    120  C   UNL A   1      43.932  28.700  35.109  1.00  0.00     0.064 A 
ATOM    121  C   UNL A   1      43.776  27.593  35.954  1.00  0.00     0.173 A 
ATOM    122  C   UNL A   1      45.236  29.152  34.851  1.00  0.00     0.173 A 
ATOM    123  F   UNL A   1      42.550  27.131  36.244  1.00  0.00    -0.203 F 
ATOM    124  C   UNL A   1      44.882  26.968  36.524  1.00  0.00     0.198 A 
ATOM    125  C   UNL A   1      46.340  28.506  35.398  1.00  0.00     0.198 A 
ATOM    126  F   UNL A   1      45.439  30.204  34.044  1.00  0.00    -0.203 F 
ATOM    127  F   UNL A   1      44.709  25.930  37.354  1.00  0.00    -0.200 F 
ATOM    128  C   UNL A   1      46.163  27.417  36.236  1.00  0.00     0.200 A 
ATOM    129  F   UNL A   1      47.577  28.932  35.104  1.00  0.00    -0.200 F 
ATOM    130  F   UNL A   1      47.227  26.800  36.769  1.00  0.00    -0.200 F 
ENDBRANCH  96 120
ENDBRANCH  61  64
ENDBRANCH  51  54
ENDBRANCH  47  50
ENDBRANCH  44  47
ENDBRANCH   1  44
TORSDOF 15
ENDMDL
