MODEL 1
REMARK VINA RESULT:     -12.1      0.000      0.000
REMARK SMILES C[C@H]1[C@H](C)CC[C@@]2(C(=O)NCCCCCCNC(=O)c3ccc(-c4c5nc(c(-c6c(F)c(F)c(F)c(F)c6F)c6ccc([nH]6)c(-c6c(F)c(F)c(F)c(F)c6F)c6nc(c(-c7c(F)c(F)c(F)c(F)c7F)c7ccc4[nH]7)C=C6)C=C5)cc3)CC[C@@]3(C)C(=CC[C@@H]4[C@@]5(C)CC[C@H](O)C(C)(C)[C@@H]5CC[C@]43C)[C@H]12
REMARK SMILES IDX 14 1 13 4 12 7 11 10 10 13 8 14 9 15 7 17 2 18 3 19 105 20
REMARK SMILES IDX 5 22 87 24 6 26 83 29 85 30 88 31 84 34 103 37 89 38 90 42
REMARK SMILES IDX 102 43 91 46 101 48 93 51 100 52 94 55 97 58 95 60 1 64 4 68
REMARK SMILES IDX 86 72 104 76 92 80 98 84 99 88 96 92 15 94 16 97 17 100
REMARK SMILES IDX 18 101 19 103 20 104 21 105 82 106 22 107 81 109 23 111
REMARK SMILES IDX 24 114 25 115 75 116 26 117 80 118 74 119 76 120 27 121
REMARK SMILES IDX 79 122 73 124 72 126 28 128 60 131 40 132 59 133 41 134
REMARK SMILES IDX 44 135 58 136 77 137 42 138 43 140 57 142 78 143 45 146
REMARK SMILES IDX 29 148 30 149 38 150 31 151 32 152 36 153 39 154 33 155
REMARK SMILES IDX 34 156 37 157 35 158 61 159 62 160 70 161 63 162 64 163
REMARK SMILES IDX 68 164 71 165 65 166 66 167 69 168 67 169 46 170 47 171
REMARK SMILES IDX 55 172 48 173 49 174 53 175 56 176 50 177 51 178 54 179
REMARK SMILES IDX 52 180
REMARK H PARENT 14 2 14 3 13 5 13 6 12 8 12 9 11 11 11 12 10 16 2 21 3 23
REMARK H PARENT 105 25 5 27 5 28 6 32 6 33 83 35 83 36 88 39 84 40 84 41 89 44
REMARK H PARENT 89 45 90 47 102 49 102 50 101 53 101 54 93 56 93 57 100 59
REMARK H PARENT 94 61 94 62 95 63 1 65 1 66 1 67 4 69 4 70 4 71 86 73 86 74
REMARK H PARENT 86 75 104 77 104 78 104 79 92 81 92 82 92 83 98 85 98 86 98 87
REMARK H PARENT 99 89 99 90 99 91 96 93 15 95 15 96 16 98 16 99 17 102 21 108
REMARK H PARENT 82 110 22 112 81 113 80 123 74 125 76 127 79 129 73 130 41 139
REMARK H PARENT 44 141 77 144 42 145 78 147
REMARK Flexibility Score: inf
ROOT
ATOM      1  C   UNL A   1      39.329  22.146  26.463  1.00  0.00    -0.052 C 
ATOM      2  H   UNL A   1      38.636  21.882  27.233  1.00  0.00     0.027 H 
ATOM      3  H   UNL A   1      40.295  22.474  26.790  1.00  0.00     0.027 H 
ENDROOT
BRANCH   1   4
ATOM      4  C   UNL A   1      38.749  23.359  25.729  1.00  0.00    -0.052 C 
ATOM      5  H   UNL A   1      39.573  23.997  25.485  1.00  0.00     0.027 H 
ATOM      6  H   UNL A   1      38.211  22.922  24.913  1.00  0.00     0.027 H 
BRANCH   4   7
ATOM      7  C   UNL A   1      37.694  24.237  26.420  1.00  0.00    -0.036 C 
ATOM      8  H   UNL A   1      37.841  24.134  27.476  1.00  0.00     0.028 H 
ATOM      9  H   UNL A   1      37.860  25.212  26.012  1.00  0.00     0.028 H 
BRANCH   7  10
ATOM     10  C   UNL A   1      36.212  23.965  26.144  1.00  0.00     0.017 C 
ATOM     11  H   UNL A   1      35.645  24.783  26.538  1.00  0.00     0.049 H 
ATOM     12  H   UNL A   1      36.120  23.857  25.083  1.00  0.00     0.049 H 
BRANCH  10  13
ATOM     13  N   UNL A   1      35.694  22.738  26.723  1.00  0.00    -0.356 N 
ATOM     14  C   UNL A   1      34.938  21.735  26.170  1.00  0.00     0.226 C 
ATOM     15  O   UNL A   1      34.058  21.297  26.923  1.00  0.00    -0.274 OA
ATOM     16  H   UNL A   1      35.924  22.603  27.670  1.00  0.00     0.163 HD
BRANCH  14  17
ATOM     17  C   UNL A   1      35.172  21.093  24.746  1.00  0.00     0.056 C 
ATOM     18  C   UNL A   1      33.439  19.170  24.699  1.00  0.00    -0.034 C 
ATOM     19  C   UNL A   1      34.603  18.143  24.497  1.00  0.00    -0.041 C 
ATOM     20  C   UNL A   1      33.852  20.554  24.118  1.00  0.00    -0.002 C 
ATOM     21  H   UNL A   1      33.262  19.281  25.749  1.00  0.00     0.031 H 
ATOM     22  C   UNL A   1      35.990  18.622  24.962  1.00  0.00    -0.049 C 
ATOM     23  H   UNL A   1      34.575  18.041  23.432  1.00  0.00     0.030 H 
ATOM     24  C   UNL A   1      32.886  21.763  24.139  1.00  0.00    -0.063 C 
ATOM     25  H   UNL A   1      33.906  20.246  23.094  1.00  0.00     0.036 H 
ATOM     26  C   UNL A   1      36.327  20.082  24.773  1.00  0.00    -0.038 C 
ATOM     27  H   UNL A   1      36.721  18.053  24.428  1.00  0.00     0.027 H 
ATOM     28  H   UNL A   1      35.984  18.482  26.023  1.00  0.00     0.027 H 
ATOM     29  C   UNL A   1      35.687  22.202  23.749  1.00  0.00    -0.037 C 
ATOM     30  C   UNL A   1      33.214  22.902  23.126  1.00  0.00    -0.006 C 
ATOM     31  C   UNL A   1      32.030  21.953  25.165  1.00  0.00    -0.084 C 
ATOM     32  H   UNL A   1      36.848  20.168  23.841  1.00  0.00     0.028 H 
ATOM     33  H   UNL A   1      36.889  20.341  25.646  1.00  0.00     0.028 H 
ATOM     34  C   UNL A   1      34.713  23.306  23.331  1.00  0.00    -0.043 C 
ATOM     35  H   UNL A   1      36.005  21.705  22.856  1.00  0.00     0.028 H 
ATOM     36  H   UNL A   1      36.453  22.715  24.293  1.00  0.00     0.028 H 
ATOM     37  C   UNL A   1      32.255  24.203  23.340  1.00  0.00    -0.020 C 
ATOM     38  C   UNL A   1      31.505  23.306  25.581  1.00  0.00    -0.031 C 
ATOM     39  H   UNL A   1      31.717  21.126  25.697  1.00  0.00     0.058 H 
ATOM     40  H   UNL A   1      35.066  23.714  22.407  1.00  0.00     0.028 H 
ATOM     41  H   UNL A   1      34.702  23.989  24.156  1.00  0.00     0.028 H 
ATOM     42  C   UNL A   1      32.264  24.472  24.889  1.00  0.00    -0.026 C 
ATOM     43  C   UNL A   1      32.748  25.439  22.539  1.00  0.00    -0.046 C 
ATOM     44  H   UNL A   1      31.615  23.406  26.641  1.00  0.00     0.031 H 
ATOM     45  H   UNL A   1      30.479  23.363  25.286  1.00  0.00     0.031 H 
ATOM     46  C   UNL A   1      31.965  25.934  25.428  1.00  0.00    -0.025 C 
ATOM     47  H   UNL A   1      33.292  24.472  25.189  1.00  0.00     0.032 H 
ATOM     48  C   UNL A   1      32.114  26.754  22.996  1.00  0.00    -0.049 C 
ATOM     49  H   UNL A   1      33.809  25.516  22.653  1.00  0.00     0.027 H 
ATOM     50  H   UNL A   1      32.459  25.287  21.519  1.00  0.00     0.027 H 
ATOM     51  C   UNL A   1      32.782  26.137  26.749  1.00  0.00    -0.045 C 
ATOM     52  C   UNL A   1      32.525  27.031  24.446  1.00  0.00    -0.028 C 
ATOM     53  H   UNL A   1      32.453  27.552  22.369  1.00  0.00     0.027 H 
ATOM     54  H   UNL A   1      31.048  26.682  22.931  1.00  0.00     0.027 H 
ATOM     55  C   UNL A   1      32.689  27.548  27.330  1.00  0.00    -0.026 C 
ATOM     56  H   UNL A   1      33.811  25.925  26.544  1.00  0.00     0.027 H 
ATOM     57  H   UNL A   1      32.361  25.475  27.477  1.00  0.00     0.027 H 
ATOM     58  C   UNL A   1      32.356  28.526  24.922  1.00  0.00    -0.006 C 
ATOM     59  H   UNL A   1      33.589  26.931  24.476  1.00  0.00     0.031 H 
ATOM     60  C   UNL A   1      33.020  28.658  26.329  1.00  0.00     0.059 C 
ATOM     61  H   UNL A   1      33.372  27.619  28.150  1.00  0.00     0.029 H 
ATOM     62  H   UNL A   1      31.670  27.693  27.627  1.00  0.00     0.029 H 
ATOM     63  H   UNL A   1      34.066  28.567  26.118  1.00  0.00     0.061 H 
BRANCH  18  64
ATOM     64  C   UNL A   1      32.122  18.668  24.086  1.00  0.00    -0.062 C 
ATOM     65  H   UNL A   1      32.084  17.600  24.149  1.00  0.00     0.023 H 
ATOM     66  H   UNL A   1      32.068  18.967  23.060  1.00  0.00     0.023 H 
ATOM     67  H   UNL A   1      31.295  19.086  24.623  1.00  0.00     0.023 H 
ENDBRANCH  18  64
BRANCH  19  68
ATOM     68  C   UNL A   1      34.397  16.783  25.186  1.00  0.00    -0.062 C 
ATOM     69  H   UNL A   1      35.235  16.149  24.981  1.00  0.00     0.023 H 
ATOM     70  H   UNL A   1      33.505  16.325  24.815  1.00  0.00     0.023 H 
ATOM     71  H   UNL A   1      34.311  16.928  26.243  1.00  0.00     0.023 H 
ENDBRANCH  19  68
BRANCH  30  72
ATOM     72  C   UNL A   1      33.055  22.369  21.677  1.00  0.00    -0.055 C 
ATOM     73  H   UNL A   1      32.441  21.493  21.686  1.00  0.00     0.024 H 
ATOM     74  H   UNL A   1      34.017  22.128  21.278  1.00  0.00     0.024 H 
ATOM     75  H   UNL A   1      32.595  23.121  21.070  1.00  0.00     0.024 H 
ENDBRANCH  30  72
BRANCH  37  76
ATOM     76  C   UNL A   1      30.811  23.923  22.819  1.00  0.00    -0.059 C 
ATOM     77  H   UNL A   1      30.563  22.896  22.991  1.00  0.00     0.024 H 
ATOM     78  H   UNL A   1      30.765  24.130  21.769  1.00  0.00     0.024 H 
ATOM     79  H   UNL A   1      30.117  24.550  23.336  1.00  0.00     0.024 H 
ENDBRANCH  37  76
BRANCH  46  80
ATOM     80  C   UNL A   1      30.467  26.065  25.756  1.00  0.00    -0.059 C 
ATOM     81  H   UNL A   1      30.244  27.083  26.002  1.00  0.00     0.024 H 
ATOM     82  H   UNL A   1      30.227  25.436  26.587  1.00  0.00     0.024 H 
ATOM     83  H   UNL A   1      29.889  25.770  24.905  1.00  0.00     0.024 H 
ENDBRANCH  46  80
BRANCH  58  84
ATOM     84  C   UNL A   1      30.900  29.040  24.903  1.00  0.00    -0.057 C 
ATOM     85  H   UNL A   1      30.275  28.361  25.444  1.00  0.00     0.024 H 
ATOM     86  H   UNL A   1      30.559  29.110  23.891  1.00  0.00     0.024 H 
ATOM     87  H   UNL A   1      30.857  30.006  25.361  1.00  0.00     0.024 H 
ENDBRANCH  58  84
BRANCH  58  88
ATOM     88  C   UNL A   1      33.129  29.486  23.971  1.00  0.00    -0.057 C 
ATOM     89  H   UNL A   1      32.875  30.499  24.204  1.00  0.00     0.024 H 
ATOM     90  H   UNL A   1      32.860  29.276  22.957  1.00  0.00     0.024 H 
ATOM     91  H   UNL A   1      34.182  29.344  24.098  1.00  0.00     0.024 H 
ENDBRANCH  58  88
BRANCH  60  92
ATOM     92  O   UNL A   1      32.722  29.921  26.927  1.00  0.00    -0.393 OA
ATOM     93  H   UNL A   1      33.218  30.618  26.472  1.00  0.00     0.210 HD
ENDBRANCH  60  92
ENDBRANCH  14  17
ENDBRANCH  10  13
ENDBRANCH   7  10
ENDBRANCH   4   7
ENDBRANCH   1   4
BRANCH   1  94
ATOM     94  C   UNL A   1      39.617  20.880  25.662  1.00  0.00    -0.036 C 
ATOM     95  H   UNL A   1      40.474  21.079  25.053  1.00  0.00     0.028 H 
ATOM     96  H   UNL A   1      38.706  20.686  25.135  1.00  0.00     0.028 H 
BRANCH  94  97
ATOM     97  C   UNL A   1      39.894  19.597  26.428  1.00  0.00     0.018 C 
ATOM     98  H   UNL A   1      39.035  18.963  26.342  1.00  0.00     0.049 H 
ATOM     99  H   UNL A   1      40.100  19.881  27.439  1.00  0.00     0.049 H 
BRANCH  97 100
ATOM    100  N   UNL A   1      41.049  18.862  25.958  1.00  0.00    -0.352 N 
ATOM    101  C   UNL A   1      42.359  19.275  25.853  1.00  0.00     0.251 C 
ATOM    102  H   UNL A   1      40.874  17.935  25.674  1.00  0.00     0.163 HD
ATOM    103  O   UNL A   1      43.197  18.533  25.360  1.00  0.00    -0.269 OA
BRANCH 101 104
ATOM    104  C   UNL A   1      42.752  20.635  26.299  1.00  0.00     0.039 A 
ATOM    105  C   UNL A   1      43.176  21.555  25.335  1.00  0.00    -0.049 A 
ATOM    106  C   UNL A   1      42.712  21.009  27.645  1.00  0.00    -0.049 A 
ATOM    107  C   UNL A   1      43.501  22.861  25.713  1.00  0.00    -0.053 A 
ATOM    108  H   UNL A   1      43.248  21.269  24.346  1.00  0.00     0.063 H 
ATOM    109  C   UNL A   1      42.951  22.334  28.007  1.00  0.00    -0.053 A 
ATOM    110  H   UNL A   1      42.506  20.305  28.370  1.00  0.00     0.063 H 
ATOM    111  C   UNL A   1      43.360  23.272  27.047  1.00  0.00    -0.014 A 
ATOM    112  H   UNL A   1      43.849  23.527  25.005  1.00  0.00     0.063 H 
ATOM    113  H   UNL A   1      42.825  22.626  28.989  1.00  0.00     0.063 H 
BRANCH 111 114
ATOM    114  C   UNL A   1      43.655  24.670  27.456  1.00  0.00     0.031 A 
ATOM    115  C   UNL A   1      45.080  25.143  27.557  1.00  0.00     0.074 A 
ATOM    116  C   UNL A   1      42.645  25.502  27.779  1.00  0.00     0.049 A 
ATOM    117  N   UNL A   1      45.544  26.307  27.936  1.00  0.00    -0.248 NA
ATOM    118  C   UNL A   1      46.127  24.167  27.211  1.00  0.00    -0.034 C 
ATOM    119  C   UNL A   1      41.224  25.151  27.766  1.00  0.00    -0.036 A 
ATOM    120  N   UNL A   1      42.657  26.813  28.187  1.00  0.00    -0.354 N 
ATOM    121  C   UNL A   1      46.928  26.198  27.886  1.00  0.00     0.074 A 
ATOM    122  C   UNL A   1      47.231  24.837  27.503  1.00  0.00    -0.034 C 
ATOM    123  H   UNL A   1      46.025  23.210  26.838  1.00  0.00     0.065 H 
ATOM    124  C   UNL A   1      40.501  26.226  28.118  1.00  0.00    -0.036 A 
ATOM    125  H   UNL A   1      40.839  24.224  27.524  1.00  0.00     0.065 H 
ATOM    126  C   UNL A   1      41.406  27.330  28.424  1.00  0.00     0.049 A 
ATOM    127  H   UNL A   1      43.485  27.335  28.298  1.00  0.00     0.167 HD
ATOM    128  C   UNL A   1      47.861  27.153  28.112  1.00  0.00     0.037 A 
ATOM    129  H   UNL A   1      48.183  24.440  27.461  1.00  0.00     0.065 H 
ATOM    130  H   UNL A   1      39.470  26.265  28.165  1.00  0.00     0.065 H 
ATOM    131  C   UNL A   1      41.032  28.552  28.846  1.00  0.00     0.037 A 
ATOM    132  C   UNL A   1      47.554  28.512  28.474  1.00  0.00     0.049 A 
ATOM    133  C   UNL A   1      42.090  29.592  29.108  1.00  0.00     0.074 A 
ATOM    134  C   UNL A   1      48.422  29.571  28.670  1.00  0.00    -0.036 A 
ATOM    135  N   UNL A   1      46.273  28.999  28.697  1.00  0.00    -0.354 N 
ATOM    136  N   UNL A   1      43.391  29.497  28.987  1.00  0.00    -0.248 NA
ATOM    137  C   UNL A   1      41.625  30.911  29.558  1.00  0.00    -0.034 C 
ATOM    138  C   UNL A   1      47.673  30.682  29.071  1.00  0.00    -0.036 A 
ATOM    139  H   UNL A   1      49.446  29.545  28.542  1.00  0.00     0.065 H 
ATOM    140  C   UNL A   1      46.332  30.335  29.059  1.00  0.00     0.049 A 
ATOM    141  H   UNL A   1      45.446  28.472  28.612  1.00  0.00     0.167 HD
ATOM    142  C   UNL A   1      43.899  30.747  29.313  1.00  0.00     0.074 A 
ATOM    143  C   UNL A   1      42.761  31.590  29.621  1.00  0.00    -0.034 C 
ATOM    144  H   UNL A   1      40.666  31.227  29.769  1.00  0.00     0.065 H 
ATOM    145  H   UNL A   1      48.056  31.604  29.331  1.00  0.00     0.065 H 
ATOM    146  C   UNL A   1      45.189  31.162  29.354  1.00  0.00     0.037 A 
ATOM    147  H   UNL A   1      42.828  32.592  29.859  1.00  0.00     0.065 H 
BRANCH 128 148
ATOM    148  C   UNL A   1      49.306  26.761  27.976  1.00  0.00     0.064 A 
ATOM    149  C   UNL A   1      49.943  26.706  26.726  1.00  0.00     0.173 A 
ATOM    150  C   UNL A   1      50.076  26.471  29.114  1.00  0.00     0.173 A 
ATOM    151  F   UNL A   1      49.252  26.964  25.605  1.00  0.00    -0.203 F 
ATOM    152  C   UNL A   1      51.282  26.341  26.617  1.00  0.00     0.198 A 
ATOM    153  C   UNL A   1      51.425  26.141  29.003  1.00  0.00     0.198 A 
ATOM    154  F   UNL A   1      49.522  26.514  30.335  1.00  0.00    -0.203 F 
ATOM    155  F   UNL A   1      51.851  26.239  25.407  1.00  0.00    -0.200 F 
ATOM    156  C   UNL A   1      52.023  26.066  27.756  1.00  0.00     0.200 A 
ATOM    157  F   UNL A   1      52.143  25.890  30.106  1.00  0.00    -0.200 F 
ATOM    158  F   UNL A   1      53.315  25.723  27.650  1.00  0.00    -0.200 F 
ENDBRANCH 128 148
BRANCH 131 159
ATOM    159  C   UNL A   1      39.590  28.870  29.031  1.00  0.00     0.064 A 
ATOM    160  C   UNL A   1      38.804  29.313  27.958  1.00  0.00     0.173 A 
ATOM    161  C   UNL A   1      38.969  28.747  30.284  1.00  0.00     0.173 A 
ATOM    162  F   UNL A   1      39.354  29.465  26.744  1.00  0.00    -0.203 F 
ATOM    163  C   UNL A   1      37.462  29.646  28.134  1.00  0.00     0.198 A 
ATOM    164  C   UNL A   1      37.619  29.049  30.452  1.00  0.00     0.198 A 
ATOM    165  F   UNL A   1      39.672  28.323  31.344  1.00  0.00    -0.203 F 
ATOM    166  F   UNL A   1      36.750  30.118  27.102  1.00  0.00    -0.200 F 
ATOM    167  C   UNL A   1      36.869  29.508  29.379  1.00  0.00     0.200 A 
ATOM    168  F   UNL A   1      37.047  28.898  31.654  1.00  0.00    -0.200 F 
ATOM    169  F   UNL A   1      35.578  29.824  29.549  1.00  0.00    -0.200 F 
ENDBRANCH 131 159
BRANCH 146 170
ATOM    170  C   UNL A   1      45.441  32.600  29.707  1.00  0.00     0.064 A 
ATOM    171  C   UNL A   1      45.689  33.007  31.026  1.00  0.00     0.173 A 
ATOM    172  C   UNL A   1      45.476  33.579  28.701  1.00  0.00     0.173 A 
ATOM    173  F   UNL A   1      45.653  32.114  32.026  1.00  0.00    -0.203 F 
ATOM    174  C   UNL A   1      45.931  34.344  31.329  1.00  0.00     0.198 A 
ATOM    175  C   UNL A   1      45.755  34.909  29.003  1.00  0.00     0.198 A 
ATOM    176  F   UNL A   1      45.255  33.243  27.421  1.00  0.00    -0.203 F 
ATOM    177  F   UNL A   1      46.111  34.718  32.604  1.00  0.00    -0.200 F 
ATOM    178  C   UNL A   1      45.973  35.292  30.317  1.00  0.00     0.200 A 
ATOM    179  F   UNL A   1      45.813  35.820  28.022  1.00  0.00    -0.200 F 
ATOM    180  F   UNL A   1      46.217  36.577  30.610  1.00  0.00    -0.200 F 
ENDBRANCH 146 170
ENDBRANCH 111 114
ENDBRANCH 101 104
ENDBRANCH  97 100
ENDBRANCH  94  97
ENDBRANCH   1  94
TORSDOF 21
ENDMDL
MODEL 2
REMARK VINA RESULT:     -12.0      5.036     10.032
REMARK SMILES C[C@H]1[C@H](C)CC[C@@]2(C(=O)NCCCCCCNC(=O)c3ccc(-c4c5nc(c(-c6c(F)c(F)c(F)c(F)c6F)c6ccc([nH]6)c(-c6c(F)c(F)c(F)c(F)c6F)c6nc(c(-c7c(F)c(F)c(F)c(F)c7F)c7ccc4[nH]7)C=C6)C=C5)cc3)CC[C@@]3(C)C(=CC[C@@H]4[C@@]5(C)CC[C@H](O)C(C)(C)[C@@H]5CC[C@]43C)[C@H]12
REMARK SMILES IDX 14 1 13 4 12 7 11 10 10 13 8 14 9 15 7 17 2 18 3 19 105 20
REMARK SMILES IDX 5 22 87 24 6 26 83 29 85 30 88 31 84 34 103 37 89 38 90 42
REMARK SMILES IDX 102 43 91 46 101 48 93 51 100 52 94 55 97 58 95 60 1 64 4 68
REMARK SMILES IDX 86 72 104 76 92 80 98 84 99 88 96 92 15 94 16 97 17 100
REMARK SMILES IDX 18 101 19 103 20 104 21 105 82 106 22 107 81 109 23 111
REMARK SMILES IDX 24 114 25 115 75 116 26 117 80 118 74 119 76 120 27 121
REMARK SMILES IDX 79 122 73 124 72 126 28 128 60 131 40 132 59 133 41 134
REMARK SMILES IDX 44 135 58 136 77 137 42 138 43 140 57 142 78 143 45 146
REMARK SMILES IDX 29 148 30 149 38 150 31 151 32 152 36 153 39 154 33 155
REMARK SMILES IDX 34 156 37 157 35 158 61 159 62 160 70 161 63 162 64 163
REMARK SMILES IDX 68 164 71 165 65 166 66 167 69 168 67 169 46 170 47 171
REMARK SMILES IDX 55 172 48 173 49 174 53 175 56 176 50 177 51 178 54 179
REMARK SMILES IDX 52 180
REMARK H PARENT 14 2 14 3 13 5 13 6 12 8 12 9 11 11 11 12 10 16 2 21 3 23
REMARK H PARENT 105 25 5 27 5 28 6 32 6 33 83 35 83 36 88 39 84 40 84 41 89 44
REMARK H PARENT 89 45 90 47 102 49 102 50 101 53 101 54 93 56 93 57 100 59
REMARK H PARENT 94 61 94 62 95 63 1 65 1 66 1 67 4 69 4 70 4 71 86 73 86 74
REMARK H PARENT 86 75 104 77 104 78 104 79 92 81 92 82 92 83 98 85 98 86 98 87
REMARK H PARENT 99 89 99 90 99 91 96 93 15 95 15 96 16 98 16 99 17 102 21 108
REMARK H PARENT 82 110 22 112 81 113 80 123 74 125 76 127 79 129 73 130 41 139
REMARK H PARENT 44 141 77 144 42 145 78 147
REMARK Flexibility Score: inf
ROOT
ATOM      1  C   UNL A   1      34.263  31.446  28.376  1.00  0.00    -0.052 C 
ATOM      2  H   UNL A   1      34.995  32.182  28.633  1.00  0.00     0.027 H 
ATOM      3  H   UNL A   1      33.959  30.787  29.164  1.00  0.00     0.027 H 
ENDROOT
BRANCH   1   4
ATOM      4  C   UNL A   1      34.900  30.518  27.336  1.00  0.00    -0.052 C 
ATOM      5  H   UNL A   1      34.469  30.770  26.390  1.00  0.00     0.027 H 
ATOM      6  H   UNL A   1      35.949  30.691  27.458  1.00  0.00     0.027 H 
BRANCH   4   7
ATOM      7  C   UNL A   1      34.770  28.995  27.493  1.00  0.00    -0.036 C 
ATOM      8  H   UNL A   1      35.746  28.618  27.722  1.00  0.00     0.028 H 
ATOM      9  H   UNL A   1      34.026  28.874  28.250  1.00  0.00     0.028 H 
BRANCH   7  10
ATOM     10  C   UNL A   1      34.237  28.174  26.313  1.00  0.00     0.017 C 
ATOM     11  H   UNL A   1      34.983  27.456  26.044  1.00  0.00     0.049 H 
ATOM     12  H   UNL A   1      33.322  27.732  26.646  1.00  0.00     0.049 H 
BRANCH  10  13
ATOM     13  N   UNL A   1      33.908  28.946  25.128  1.00  0.00    -0.356 N 
ATOM     14  C   UNL A   1      32.741  29.032  24.410  1.00  0.00     0.226 C 
ATOM     15  O   UNL A   1      32.910  29.071  23.184  1.00  0.00    -0.274 OA
ATOM     16  H   UNL A   1      34.644  29.500  24.782  1.00  0.00     0.163 HD
BRANCH  14  17
ATOM     17  C   UNL A   1      31.294  29.160  25.028  1.00  0.00     0.056 C 
ATOM     18  C   UNL A   1      29.823  29.595  22.943  1.00  0.00    -0.034 C 
ATOM     19  C   UNL A   1      29.366  30.958  23.565  1.00  0.00    -0.041 C 
ATOM     20  C   UNL A   1      30.195  28.597  24.078  1.00  0.00    -0.002 C 
ATOM     21  H   UNL A   1      30.692  29.769  22.344  1.00  0.00     0.031 H 
ATOM     22  C   UNL A   1      30.317  31.547  24.624  1.00  0.00    -0.049 C 
ATOM     23  H   UNL A   1      28.442  30.655  24.012  1.00  0.00     0.030 H 
ATOM     24  C   UNL A   1      30.647  27.150  23.768  1.00  0.00    -0.063 C 
ATOM     25  H   UNL A   1      29.211  28.509  24.492  1.00  0.00     0.036 H 
ATOM     26  C   UNL A   1      31.030  30.583  25.540  1.00  0.00    -0.038 C 
ATOM     27  H   UNL A   1      29.741  32.207  25.238  1.00  0.00     0.027 H 
ATOM     28  H   UNL A   1      31.099  32.010  24.058  1.00  0.00     0.027 H 
ATOM     29  C   UNL A   1      31.204  28.283  26.337  1.00  0.00    -0.037 C 
ATOM     30  C   UNL A   1      30.518  26.139  24.949  1.00  0.00    -0.006 C 
ATOM     31  C   UNL A   1      31.387  26.870  22.675  1.00  0.00    -0.084 C 
ATOM     32  H   UNL A   1      30.441  30.497  26.430  1.00  0.00     0.028 H 
ATOM     33  H   UNL A   1      32.005  31.006  25.666  1.00  0.00     0.028 H 
ATOM     34  C   UNL A   1      31.243  26.760  26.190  1.00  0.00    -0.043 C 
ATOM     35  H   UNL A   1      30.284  28.531  26.824  1.00  0.00     0.028 H 
ATOM     36  H   UNL A   1      32.096  28.520  26.879  1.00  0.00     0.028 H 
ATOM     37  C   UNL A   1      31.179  24.693  24.588  1.00  0.00    -0.020 C 
ATOM     38  C   UNL A   1      32.338  25.701  22.581  1.00  0.00    -0.031 C 
ATOM     39  H   UNL A   1      31.299  27.492  21.855  1.00  0.00     0.058 H 
ATOM     40  H   UNL A   1      30.796  26.341  27.067  1.00  0.00     0.028 H 
ATOM     41  H   UNL A   1      32.278  26.525  26.049  1.00  0.00     0.028 H 
ATOM     42  C   UNL A   1      32.581  25.025  23.958  1.00  0.00    -0.026 C 
ATOM     43  C   UNL A   1      31.311  23.776  25.833  1.00  0.00    -0.046 C 
ATOM     44  H   UNL A   1      33.275  26.050  22.199  1.00  0.00     0.031 H 
ATOM     45  H   UNL A   1      31.898  24.974  21.932  1.00  0.00     0.031 H 
ATOM     46  C   UNL A   1      33.741  23.945  24.025  1.00  0.00    -0.025 C 
ATOM     47  H   UNL A   1      33.056  25.712  24.627  1.00  0.00     0.032 H 
ATOM     48  C   UNL A   1      32.249  22.587  25.619  1.00  0.00    -0.049 C 
ATOM     49  H   UNL A   1      31.685  24.361  26.648  1.00  0.00     0.027 H 
ATOM     50  H   UNL A   1      30.338  23.377  26.035  1.00  0.00     0.027 H 
ATOM     51  C   UNL A   1      35.105  24.708  24.118  1.00  0.00    -0.045 C 
ATOM     52  C   UNL A   1      33.666  23.107  25.358  1.00  0.00    -0.028 C 
ATOM     53  H   UNL A   1      32.251  21.969  26.492  1.00  0.00     0.027 H 
ATOM     54  H   UNL A   1      31.917  22.012  24.780  1.00  0.00     0.027 H 
ATOM     55  C   UNL A   1      36.319  23.798  24.308  1.00  0.00    -0.026 C 
ATOM     56  H   UNL A   1      35.058  25.382  24.947  1.00  0.00     0.027 H 
ATOM     57  H   UNL A   1      35.241  25.212  23.183  1.00  0.00     0.027 H 
ATOM     58  C   UNL A   1      34.823  22.056  25.570  1.00  0.00    -0.006 C 
ATOM     59  H   UNL A   1      33.878  23.799  26.146  1.00  0.00     0.031 H 
ATOM     60  C   UNL A   1      36.184  22.815  25.474  1.00  0.00     0.059 C 
ATOM     61  H   UNL A   1      37.176  24.413  24.483  1.00  0.00     0.029 H 
ATOM     62  H   UNL A   1      36.406  23.211  23.417  1.00  0.00     0.029 H 
ATOM     63  H   UNL A   1      36.201  23.406  26.366  1.00  0.00     0.061 H 
BRANCH  18  64
ATOM     64  C   UNL A   1      28.756  29.012  22.002  1.00  0.00    -0.062 C 
ATOM     65  H   UNL A   1      29.111  28.092  21.587  1.00  0.00     0.023 H 
ATOM     66  H   UNL A   1      28.558  29.707  21.212  1.00  0.00     0.023 H 
ATOM     67  H   UNL A   1      27.855  28.832  22.552  1.00  0.00     0.023 H 
ENDBRANCH  18  64
BRANCH  19  68
ATOM     68  C   UNL A   1      29.142  32.093  22.552  1.00  0.00    -0.062 C 
ATOM     69  H   UNL A   1      29.068  33.026  23.072  1.00  0.00     0.023 H 
ATOM     70  H   UNL A   1      28.237  31.915  22.010  1.00  0.00     0.023 H 
ATOM     71  H   UNL A   1      29.965  32.130  21.870  1.00  0.00     0.023 H 
ENDBRANCH  19  68
BRANCH  30  72
ATOM     72  C   UNL A   1      29.020  25.953  25.311  1.00  0.00    -0.055 C 
ATOM     73  H   UNL A   1      28.916  25.120  25.974  1.00  0.00     0.024 H 
ATOM     74  H   UNL A   1      28.458  25.773  24.419  1.00  0.00     0.024 H 
ATOM     75  H   UNL A   1      28.658  26.838  25.789  1.00  0.00     0.024 H 
ENDBRANCH  30  72
BRANCH  37  76
ATOM     76  C   UNL A   1      30.278  23.903  23.588  1.00  0.00    -0.059 C 
ATOM     77  H   UNL A   1      30.875  23.546  22.775  1.00  0.00     0.024 H 
ATOM     78  H   UNL A   1      29.512  24.549  23.212  1.00  0.00     0.024 H 
ATOM     79  H   UNL A   1      29.829  23.073  24.092  1.00  0.00     0.024 H 
ENDBRANCH  37  76
BRANCH  46  80
ATOM     80  C   UNL A   1      33.738  23.106  22.735  1.00  0.00    -0.059 C 
ATOM     81  H   UNL A   1      33.878  22.074  22.981  1.00  0.00     0.024 H 
ATOM     82  H   UNL A   1      34.532  23.431  22.096  1.00  0.00     0.024 H 
ATOM     83  H   UNL A   1      32.801  23.228  22.232  1.00  0.00     0.024 H 
ENDBRANCH  46  80
BRANCH  58  84
ATOM     84  C   UNL A   1      34.756  20.836  24.626  1.00  0.00    -0.057 C 
ATOM     85  H   UNL A   1      34.094  20.103  25.038  1.00  0.00     0.024 H 
ATOM     86  H   UNL A   1      35.734  20.413  24.520  1.00  0.00     0.024 H 
ATOM     87  H   UNL A   1      34.396  21.145  23.668  1.00  0.00     0.024 H 
ENDBRANCH  58  84
BRANCH  58  88
ATOM     88  C   UNL A   1      34.748  21.453  27.004  1.00  0.00    -0.057 C 
ATOM     89  H   UNL A   1      35.225  22.116  27.695  1.00  0.00     0.024 H 
ATOM     90  H   UNL A   1      35.244  20.506  27.018  1.00  0.00     0.024 H 
ATOM     91  H   UNL A   1      33.723  21.324  27.284  1.00  0.00     0.024 H 
ENDBRANCH  58  88
BRANCH  60  92
ATOM     92  O   UNL A   1      37.284  21.904  25.437  1.00  0.00    -0.393 OA
ATOM     93  H   UNL A   1      36.954  21.004  25.292  1.00  0.00     0.210 HD
ENDBRANCH  60  92
ENDBRANCH  14  17
ENDBRANCH  10  13
ENDBRANCH   7  10
ENDBRANCH   4   7
ENDBRANCH   1   4
BRANCH   1  94
ATOM     94  C   UNL A   1      32.986  32.192  28.001  1.00  0.00    -0.036 C 
ATOM     95  H   UNL A   1      32.456  32.389  28.909  1.00  0.00     0.028 H 
ATOM     96  H   UNL A   1      32.494  31.544  27.306  1.00  0.00     0.028 H 
BRANCH  94  97
ATOM     97  C   UNL A   1      33.120  33.512  27.260  1.00  0.00     0.018 C 
ATOM     98  H   UNL A   1      32.561  33.444  26.350  1.00  0.00     0.049 H 
ATOM     99  H   UNL A   1      34.166  33.665  27.094  1.00  0.00     0.049 H 
BRANCH  97 100
ATOM    100  N   UNL A   1      32.644  34.660  28.001  1.00  0.00    -0.352 N 
ATOM    101  C   UNL A   1      33.107  35.182  29.189  1.00  0.00     0.251 C 
ATOM    102  H   UNL A   1      31.882  35.136  27.599  1.00  0.00     0.163 HD
ATOM    103  O   UNL A   1      32.528  36.124  29.711  1.00  0.00    -0.269 OA
BRANCH 101 104
ATOM    104  C   UNL A   1      34.283  34.578  29.863  1.00  0.00     0.039 A 
ATOM    105  C   UNL A   1      34.085  33.902  31.071  1.00  0.00    -0.049 A 
ATOM    106  C   UNL A   1      35.570  34.674  29.325  1.00  0.00    -0.049 A 
ATOM    107  C   UNL A   1      35.161  33.275  31.704  1.00  0.00    -0.053 A 
ATOM    108  H   UNL A   1      33.144  33.866  31.493  1.00  0.00     0.063 H 
ATOM    109  C   UNL A   1      36.624  33.973  29.910  1.00  0.00    -0.053 A 
ATOM    110  H   UNL A   1      35.739  35.262  28.495  1.00  0.00     0.063 H 
ATOM    111  C   UNL A   1      36.434  33.276  31.112  1.00  0.00    -0.014 A 
ATOM    112  H   UNL A   1      35.019  32.808  32.613  1.00  0.00     0.063 H 
ATOM    113  H   UNL A   1      37.550  33.969  29.455  1.00  0.00     0.063 H 
BRANCH 111 114
ATOM    114  C   UNL A   1      37.578  32.572  31.749  1.00  0.00     0.031 A 
ATOM    115  C   UNL A   1      38.247  31.424  31.042  1.00  0.00     0.074 A 
ATOM    116  C   UNL A   1      37.987  32.934  32.981  1.00  0.00     0.049 A 
ATOM    117  N   UNL A   1      39.228  30.658  31.447  1.00  0.00    -0.248 NA
ATOM    118  C   UNL A   1      37.727  31.075  29.710  1.00  0.00    -0.034 C 
ATOM    119  C   UNL A   1      37.391  33.999  33.790  1.00  0.00    -0.036 A 
ATOM    120  N   UNL A   1      38.996  32.443  33.774  1.00  0.00    -0.354 N 
ATOM    121  C   UNL A   1      39.430  29.732  30.431  1.00  0.00     0.074 A 
ATOM    122  C   UNL A   1      38.431  29.991  29.419  1.00  0.00    -0.034 C 
ATOM    123  H   UNL A   1      37.002  31.550  29.150  1.00  0.00     0.065 H 
ATOM    124  C   UNL A   1      38.063  34.101  34.948  1.00  0.00    -0.036 A 
ATOM    125  H   UNL A   1      36.584  34.579  33.514  1.00  0.00     0.065 H 
ATOM    126  C   UNL A   1      39.109  33.083  34.984  1.00  0.00     0.049 A 
ATOM    127  H   UNL A   1      39.584  31.703  33.499  1.00  0.00     0.167 HD
ATOM    128  C   UNL A   1      40.381  28.772  30.338  1.00  0.00     0.037 A 
ATOM    129  H   UNL A   1      38.285  29.409  28.579  1.00  0.00     0.065 H 
ATOM    130  H   UNL A   1      37.871  34.790  35.693  1.00  0.00     0.065 H 
ATOM    131  C   UNL A   1      39.955  32.868  36.009  1.00  0.00     0.037 A 
ATOM    132  C   UNL A   1      41.387  28.531  31.339  1.00  0.00     0.049 A 
ATOM    133  C   UNL A   1      40.991  31.783  35.888  1.00  0.00     0.074 A 
ATOM    134  C   UNL A   1      42.428  27.622  31.315  1.00  0.00    -0.036 A 
ATOM    135  N   UNL A   1      41.472  29.206  32.549  1.00  0.00    -0.354 N 
ATOM    136  N   UNL A   1      41.218  30.962  34.891  1.00  0.00    -0.248 NA
ATOM    137  C   UNL A   1      41.894  31.598  37.032  1.00  0.00    -0.034 C 
ATOM    138  C   UNL A   1      43.108  27.703  32.535  1.00  0.00    -0.036 A 
ATOM    139  H   UNL A   1      42.663  26.992  30.532  1.00  0.00     0.065 H 
ATOM    140  C   UNL A   1      42.532  28.711  33.292  1.00  0.00     0.049 A 
ATOM    141  H   UNL A   1      40.869  29.929  32.836  1.00  0.00     0.167 HD
ATOM    142  C   UNL A   1      42.306  30.188  35.272  1.00  0.00     0.074 A 
ATOM    143  C   UNL A   1      42.704  30.649  36.586  1.00  0.00    -0.034 C 
ATOM    144  H   UNL A   1      41.897  32.081  37.944  1.00  0.00     0.065 H 
ATOM    145  H   UNL A   1      43.904  27.113  32.821  1.00  0.00     0.065 H 
ATOM    146  C   UNL A   1      42.920  29.187  34.596  1.00  0.00     0.037 A 
ATOM    147  H   UNL A   1      43.516  30.284  37.108  1.00  0.00     0.065 H 
BRANCH 128 148
ATOM    148  C   UNL A   1      40.378  27.907  29.108  1.00  0.00     0.064 A 
ATOM    149  C   UNL A   1      41.132  28.235  27.970  1.00  0.00     0.173 A 
ATOM    150  C   UNL A   1      39.638  26.714  29.078  1.00  0.00     0.173 A 
ATOM    151  F   UNL A   1      41.849  29.369  27.940  1.00  0.00    -0.203 F 
ATOM    152  C   UNL A   1      41.118  27.423  26.839  1.00  0.00     0.198 A 
ATOM    153  C   UNL A   1      39.655  25.886  27.958  1.00  0.00     0.198 A 
ATOM    154  F   UNL A   1      38.903  26.346  30.139  1.00  0.00    -0.203 F 
ATOM    155  F   UNL A   1      41.801  27.788  25.745  1.00  0.00    -0.200 F 
ATOM    156  C   UNL A   1      40.386  26.246  26.837  1.00  0.00     0.200 A 
ATOM    157  F   UNL A   1      38.958  24.741  27.964  1.00  0.00    -0.200 F 
ATOM    158  F   UNL A   1      40.380  25.461  25.751  1.00  0.00    -0.200 F 
ENDBRANCH 128 148
BRANCH 131 159
ATOM    159  C   UNL A   1      39.872  33.709  37.235  1.00  0.00     0.064 A 
ATOM    160  C   UNL A   1      39.010  33.369  38.287  1.00  0.00     0.173 A 
ATOM    161  C   UNL A   1      40.643  34.873  37.376  1.00  0.00     0.173 A 
ATOM    162  F   UNL A   1      38.238  32.278  38.193  1.00  0.00    -0.203 F 
ATOM    163  C   UNL A   1      38.903  34.173  39.421  1.00  0.00     0.198 A 
ATOM    164  C   UNL A   1      40.560  35.658  38.524  1.00  0.00     0.198 A 
ATOM    165  F   UNL A   1      41.488  35.242  36.402  1.00  0.00    -0.203 F 
ATOM    166  F   UNL A   1      38.031  33.853  40.386  1.00  0.00    -0.200 F 
ATOM    167  C   UNL A   1      39.682  35.314  39.541  1.00  0.00     0.200 A 
ATOM    168  F   UNL A   1      41.326  36.751  38.642  1.00  0.00    -0.200 F 
ATOM    169  F   UNL A   1      39.582  36.085  40.632  1.00  0.00    -0.200 F 
ENDBRANCH 131 159
BRANCH 146 170
ATOM    170  C   UNL A   1      44.113  28.545  35.245  1.00  0.00     0.064 A 
ATOM    171  C   UNL A   1      43.992  27.416  36.067  1.00  0.00     0.173 A 
ATOM    172  C   UNL A   1      45.403  29.047  35.006  1.00  0.00     0.173 A 
ATOM    173  F   UNL A   1      42.781  26.906  36.339  1.00  0.00    -0.203 F 
ATOM    174  C   UNL A   1      45.112  26.831  36.651  1.00  0.00     0.198 A 
ATOM    175  C   UNL A   1      46.524  28.437  35.561  1.00  0.00     0.198 A 
ATOM    176  F   UNL A   1      45.578  30.120  34.220  1.00  0.00    -0.203 F 
ATOM    177  F   UNL A   1      44.967  25.785  37.476  1.00  0.00    -0.200 F 
ATOM    178  C   UNL A   1      46.377  27.336  36.390  1.00  0.00     0.200 A 
ATOM    179  F   UNL A   1      47.747  28.916  35.294  1.00  0.00    -0.200 F 
ATOM    180  F   UNL A   1      47.456  26.764  36.944  1.00  0.00    -0.200 F 
ENDBRANCH 146 170
ENDBRANCH 111 114
ENDBRANCH 101 104
ENDBRANCH  97 100
ENDBRANCH  94  97
ENDBRANCH   1  94
TORSDOF 21
ENDMDL
MODEL 3
REMARK VINA RESULT:     -12.0      4.845     10.492
REMARK SMILES C[C@H]1[C@H](C)CC[C@@]2(C(=O)NCCCCCCNC(=O)c3ccc(-c4c5nc(c(-c6c(F)c(F)c(F)c(F)c6F)c6ccc([nH]6)c(-c6c(F)c(F)c(F)c(F)c6F)c6nc(c(-c7c(F)c(F)c(F)c(F)c7F)c7ccc4[nH]7)C=C6)C=C5)cc3)CC[C@@]3(C)C(=CC[C@@H]4[C@@]5(C)CC[C@H](O)C(C)(C)[C@@H]5CC[C@]43C)[C@H]12
REMARK SMILES IDX 14 1 13 4 12 7 11 10 10 13 8 14 9 15 7 17 2 18 3 19 105 20
REMARK SMILES IDX 5 22 87 24 6 26 83 29 85 30 88 31 84 34 103 37 89 38 90 42
REMARK SMILES IDX 102 43 91 46 101 48 93 51 100 52 94 55 97 58 95 60 1 64 4 68
REMARK SMILES IDX 86 72 104 76 92 80 98 84 99 88 96 92 15 94 16 97 17 100
REMARK SMILES IDX 18 101 19 103 20 104 21 105 82 106 22 107 81 109 23 111
REMARK SMILES IDX 24 114 25 115 75 116 26 117 80 118 74 119 76 120 27 121
REMARK SMILES IDX 79 122 73 124 72 126 28 128 60 131 40 132 59 133 41 134
REMARK SMILES IDX 44 135 58 136 77 137 42 138 43 140 57 142 78 143 45 146
REMARK SMILES IDX 29 148 30 149 38 150 31 151 32 152 36 153 39 154 33 155
REMARK SMILES IDX 34 156 37 157 35 158 61 159 62 160 70 161 63 162 64 163
REMARK SMILES IDX 68 164 71 165 65 166 66 167 69 168 67 169 46 170 47 171
REMARK SMILES IDX 55 172 48 173 49 174 53 175 56 176 50 177 51 178 54 179
REMARK SMILES IDX 52 180
REMARK H PARENT 14 2 14 3 13 5 13 6 12 8 12 9 11 11 11 12 10 16 2 21 3 23
REMARK H PARENT 105 25 5 27 5 28 6 32 6 33 83 35 83 36 88 39 84 40 84 41 89 44
REMARK H PARENT 89 45 90 47 102 49 102 50 101 53 101 54 93 56 93 57 100 59
REMARK H PARENT 94 61 94 62 95 63 1 65 1 66 1 67 4 69 4 70 4 71 86 73 86 74
REMARK H PARENT 86 75 104 77 104 78 104 79 92 81 92 82 92 83 98 85 98 86 98 87
REMARK H PARENT 99 89 99 90 99 91 96 93 15 95 15 96 16 98 16 99 17 102 21 108
REMARK H PARENT 82 110 22 112 81 113 80 123 74 125 76 127 79 129 73 130 41 139
REMARK H PARENT 44 141 77 144 42 145 78 147
REMARK Flexibility Score: inf
ROOT
ATOM      1  C   UNL A   1      34.354  31.485  27.705  1.00  0.00    -0.052 C 
ATOM      2  H   UNL A   1      34.507  31.510  26.647  1.00  0.00     0.027 H 
ATOM      3  H   UNL A   1      35.124  31.926  28.303  1.00  0.00     0.027 H 
ENDROOT
BRANCH   1   4
ATOM      4  C   UNL A   1      34.348  30.012  28.127  1.00  0.00    -0.052 C 
ATOM      5  H   UNL A   1      34.736  29.973  29.123  1.00  0.00     0.027 H 
ATOM      6  H   UNL A   1      33.328  29.717  27.987  1.00  0.00     0.027 H 
BRANCH   4   7
ATOM      7  C   UNL A   1      35.132  28.979  27.302  1.00  0.00    -0.036 C 
ATOM      8  H   UNL A   1      35.933  29.502  26.822  1.00  0.00     0.028 H 
ATOM      9  H   UNL A   1      35.413  28.235  28.017  1.00  0.00     0.028 H 
BRANCH   7  10
ATOM     10  C   UNL A   1      34.395  28.190  26.215  1.00  0.00     0.017 C 
ATOM     11  H   UNL A   1      35.038  27.402  25.883  1.00  0.00     0.049 H 
ATOM     12  H   UNL A   1      33.489  27.839  26.663  1.00  0.00     0.049 H 
BRANCH  10  13
ATOM     13  N   UNL A   1      33.999  28.966  25.053  1.00  0.00    -0.356 N 
ATOM     14  C   UNL A   1      32.792  29.061  24.407  1.00  0.00     0.226 C 
ATOM     15  O   UNL A   1      32.886  29.103  23.173  1.00  0.00    -0.274 OA
ATOM     16  H   UNL A   1      34.716  29.518  24.665  1.00  0.00     0.163 HD
BRANCH  14  17
ATOM     17  C   UNL A   1      31.385  29.195  25.112  1.00  0.00     0.056 C 
ATOM     18  C   UNL A   1      29.790  29.619  23.117  1.00  0.00    -0.034 C 
ATOM     19  C   UNL A   1      29.374  30.986  23.757  1.00  0.00    -0.041 C 
ATOM     20  C   UNL A   1      30.229  28.628  24.235  1.00  0.00    -0.002 C 
ATOM     21  H   UNL A   1      30.621  29.788  22.466  1.00  0.00     0.031 H 
ATOM     22  C   UNL A   1      30.388  31.582  24.752  1.00  0.00    -0.049 C 
ATOM     23  H   UNL A   1      28.479  30.688  24.262  1.00  0.00     0.030 H 
ATOM     24  C   UNL A   1      30.660  27.178  23.908  1.00  0.00    -0.063 C 
ATOM     25  H   UNL A   1      29.273  28.544  24.709  1.00  0.00     0.036 H 
ATOM     26  C   UNL A   1      31.155  30.623  25.630  1.00  0.00    -0.038 C 
ATOM     27  H   UNL A   1      29.852  32.247  25.395  1.00  0.00     0.027 H 
ATOM     28  H   UNL A   1      31.134  32.039  24.136  1.00  0.00     0.027 H 
ATOM     29  C   UNL A   1      31.375  28.328  26.430  1.00  0.00    -0.037 C 
ATOM     30  C   UNL A   1      30.603  26.176  25.101  1.00  0.00    -0.006 C 
ATOM     31  C   UNL A   1      31.332  26.890  22.773  1.00  0.00    -0.084 C 
ATOM     32  H   UNL A   1      30.621  30.543  26.554  1.00  0.00     0.028 H 
ATOM     33  H   UNL A   1      32.136  31.045  25.693  1.00  0.00     0.028 H 
ATOM     34  C   UNL A   1      31.403  26.803  26.291  1.00  0.00    -0.043 C 
ATOM     35  H   UNL A   1      30.486  28.580  26.970  1.00  0.00     0.028 H 
ATOM     36  H   UNL A   1      32.298  28.567  26.915  1.00  0.00     0.028 H 
ATOM     37  C   UNL A   1      31.239  24.726  24.710  1.00  0.00    -0.020 C 
ATOM     38  C   UNL A   1      32.274  25.719  22.629  1.00  0.00    -0.031 C 
ATOM     39  H   UNL A   1      31.195  27.506  21.956  1.00  0.00     0.058 H 
ATOM     40  H   UNL A   1      31.010  26.391  27.197  1.00  0.00     0.028 H 
ATOM     41  H   UNL A   1      32.427  26.566  26.089  1.00  0.00     0.028 H 
ATOM     42  C   UNL A   1      32.600  25.052  23.993  1.00  0.00    -0.026 C 
ATOM     43  C   UNL A   1      31.445  23.817  25.951  1.00  0.00    -0.046 C 
ATOM     44  H   UNL A   1      33.186  26.064  22.189  1.00  0.00     0.031 H 
ATOM     45  H   UNL A   1      31.794  24.988  22.013  1.00  0.00     0.031 H 
ATOM     46  C   UNL A   1      33.761  23.971  23.997  1.00  0.00    -0.025 C 
ATOM     47  H   UNL A   1      33.116  25.742  24.627  1.00  0.00     0.032 H 
ATOM     48  C   UNL A   1      32.368  22.625  25.688  1.00  0.00    -0.049 C 
ATOM     49  H   UNL A   1      31.869  24.407  26.737  1.00  0.00     0.027 H 
ATOM     50  H   UNL A   1      30.486  23.421  26.215  1.00  0.00     0.027 H 
ATOM     51  C   UNL A   1      35.129  24.732  24.001  1.00  0.00    -0.045 C 
ATOM     52  C   UNL A   1      33.767  23.142  25.337  1.00  0.00    -0.028 C 
ATOM     53  H   UNL A   1      32.422  22.013  26.564  1.00  0.00     0.027 H 
ATOM     54  H   UNL A   1      31.984  22.045  24.875  1.00  0.00     0.027 H 
ATOM     55  C   UNL A   1      36.351  23.821  24.122  1.00  0.00    -0.026 C 
ATOM     56  H   UNL A   1      35.133  25.412  24.827  1.00  0.00     0.027 H 
ATOM     57  H   UNL A   1      35.208  25.229  23.056  1.00  0.00     0.027 H 
ATOM     58  C   UNL A   1      34.933  22.090  25.485  1.00  0.00    -0.006 C 
ATOM     59  H   UNL A   1      34.027  23.838  26.106  1.00  0.00     0.031 H 
ATOM     60  C   UNL A   1      36.286  22.846  25.301  1.00  0.00     0.059 C 
ATOM     61  H   UNL A   1      37.218  24.437  24.241  1.00  0.00     0.029 H 
ATOM     62  H   UNL A   1      36.383  23.228  23.232  1.00  0.00     0.029 H 
ATOM     63  H   UNL A   1      36.359  23.443  26.187  1.00  0.00     0.061 H 
BRANCH  18  64
ATOM     64  C   UNL A   1      28.667  29.031  22.247  1.00  0.00    -0.062 C 
ATOM     65  H   UNL A   1      29.095  28.444  21.463  1.00  0.00     0.023 H 
ATOM     66  H   UNL A   1      28.090  29.827  21.824  1.00  0.00     0.023 H 
ATOM     67  H   UNL A   1      28.034  28.414  22.851  1.00  0.00     0.023 H 
ENDBRANCH  18  64
BRANCH  19  68
ATOM     68  C   UNL A   1      29.089  32.115  22.752  1.00  0.00    -0.062 C 
ATOM     69  H   UNL A   1      28.287  32.723  23.116  1.00  0.00     0.023 H 
ATOM     70  H   UNL A   1      28.815  31.692  21.808  1.00  0.00     0.023 H 
ATOM     71  H   UNL A   1      29.966  32.716  22.633  1.00  0.00     0.023 H 
ENDBRANCH  19  68
BRANCH  30  72
ATOM     72  C   UNL A   1      29.130  25.994  25.555  1.00  0.00    -0.055 C 
ATOM     73  H   UNL A   1      29.109  25.530  26.519  1.00  0.00     0.024 H 
ATOM     74  H   UNL A   1      28.613  25.378  24.850  1.00  0.00     0.024 H 
ATOM     75  H   UNL A   1      28.654  26.950  25.608  1.00  0.00     0.024 H 
ENDBRANCH  30  72
BRANCH  37  76
ATOM     76  C   UNL A   1      30.278  23.930  23.773  1.00  0.00    -0.059 C 
ATOM     77  H   UNL A   1      29.508  24.582  23.414  1.00  0.00     0.024 H 
ATOM     78  H   UNL A   1      29.834  23.123  24.319  1.00  0.00     0.024 H 
ATOM     79  H   UNL A   1      30.830  23.539  22.944  1.00  0.00     0.024 H 
ENDBRANCH  37  76
BRANCH  46  80
ATOM     80  C   UNL A   1      33.678  23.122  22.715  1.00  0.00    -0.059 C 
ATOM     81  H   UNL A   1      34.553  23.288  22.121  1.00  0.00     0.024 H 
ATOM     82  H   UNL A   1      32.809  23.403  22.157  1.00  0.00     0.024 H 
ATOM     83  H   UNL A   1      33.616  22.086  22.976  1.00  0.00     0.024 H 
ENDBRANCH  46  80
BRANCH  58  84
ATOM     84  C   UNL A   1      34.808  20.863  24.556  1.00  0.00    -0.057 C 
ATOM     85  H   UNL A   1      35.397  21.022  23.677  1.00  0.00     0.024 H 
ATOM     86  H   UNL A   1      33.783  20.729  24.279  1.00  0.00     0.024 H 
ATOM     87  H   UNL A   1      35.156  19.991  25.067  1.00  0.00     0.024 H 
ENDBRANCH  58  84
BRANCH  58  88
ATOM     88  C   UNL A   1      34.945  21.497  26.925  1.00  0.00    -0.057 C 
ATOM     89  H   UNL A   1      34.538  22.212  27.609  1.00  0.00     0.024 H 
ATOM     90  H   UNL A   1      35.951  21.266  27.207  1.00  0.00     0.024 H 
ATOM     91  H   UNL A   1      34.354  20.605  26.949  1.00  0.00     0.024 H 
ENDBRANCH  58  88
BRANCH  60  92
ATOM     92  O   UNL A   1      37.382  21.934  25.204  1.00  0.00    -0.393 OA
ATOM     93  H   UNL A   1      37.531  21.707  24.273  1.00  0.00     0.210 HD
ENDBRANCH  60  92
ENDBRANCH  14  17
ENDBRANCH  10  13
ENDBRANCH   7  10
ENDBRANCH   4   7
ENDBRANCH   1   4
BRANCH   1  94
ATOM     94  C   UNL A   1      33.120  32.332  28.002  1.00  0.00    -0.036 C 
ATOM     95  H   UNL A   1      33.165  32.604  29.036  1.00  0.00     0.028 H 
ATOM     96  H   UNL A   1      32.296  31.710  27.720  1.00  0.00     0.028 H 
BRANCH  94  97
ATOM     97  C   UNL A   1      32.921  33.611  27.206  1.00  0.00     0.018 C 
ATOM     98  H   UNL A   1      32.162  33.434  26.472  1.00  0.00     0.049 H 
ATOM     99  H   UNL A   1      33.869  33.852  26.772  1.00  0.00     0.049 H 
BRANCH  97 100
ATOM    100  N   UNL A   1      32.525  34.752  28.003  1.00  0.00    -0.352 N 
ATOM    101  C   UNL A   1      33.071  35.225  29.176  1.00  0.00     0.251 C 
ATOM    102  H   UNL A   1      31.757  35.263  27.657  1.00  0.00     0.163 HD
ATOM    103  O   UNL A   1      32.553  36.170  29.754  1.00  0.00    -0.269 OA
BRANCH 101 104
ATOM    104  C   UNL A   1      34.263  34.566  29.766  1.00  0.00     0.039 A 
ATOM    105  C   UNL A   1      34.092  33.781  30.911  1.00  0.00    -0.049 A 
ATOM    106  C   UNL A   1      35.537  34.714  29.210  1.00  0.00    -0.049 A 
ATOM    107  C   UNL A   1      35.183  33.102  31.460  1.00  0.00    -0.053 A 
ATOM    108  H   UNL A   1      33.161  33.705  31.348  1.00  0.00     0.063 H 
ATOM    109  C   UNL A   1      36.604  33.966  29.705  1.00  0.00    -0.053 A 
ATOM    110  H   UNL A   1      35.687  35.376  28.433  1.00  0.00     0.063 H 
ATOM    111  C   UNL A   1      36.442  33.162  30.842  1.00  0.00    -0.014 A 
ATOM    112  H   UNL A   1      35.062  32.554  32.326  1.00  0.00     0.063 H 
ATOM    113  H   UNL A   1      37.520  34.006  29.231  1.00  0.00     0.063 H 
BRANCH 111 114
ATOM    114  C   UNL A   1      37.601  32.406  31.387  1.00  0.00     0.031 A 
ATOM    115  C   UNL A   1      38.155  32.747  32.744  1.00  0.00     0.074 A 
ATOM    116  C   UNL A   1      38.184  31.445  30.644  1.00  0.00     0.049 A 
ATOM    117  N   UNL A   1      39.183  32.236  33.374  1.00  0.00    -0.248 NA
ATOM    118  C   UNL A   1      37.479  33.826  33.483  1.00  0.00    -0.034 C 
ATOM    119  C   UNL A   1      37.770  31.052  29.295  1.00  0.00    -0.036 A 
ATOM    120  N   UNL A   1      39.252  30.625  30.913  1.00  0.00    -0.354 N 
ATOM    121  C   UNL A   1      39.282  32.937  34.569  1.00  0.00     0.074 A 
ATOM    122  C   UNL A   1      38.252  33.951  34.550  1.00  0.00    -0.034 C 
ATOM    123  H   UNL A   1      36.625  34.348  33.233  1.00  0.00     0.065 H 
ATOM    124  C   UNL A   1      38.554  30.049  28.869  1.00  0.00    -0.036 A 
ATOM    125  H   UNL A   1      36.999  31.478  28.759  1.00  0.00     0.065 H 
ATOM    126  C   UNL A   1      39.553  29.756  29.893  1.00  0.00     0.049 A 
ATOM    127  H   UNL A   1      39.755  30.656  31.760  1.00  0.00     0.167 HD
ATOM    128  C   UNL A   1      40.137  32.735  35.600  1.00  0.00     0.037 A 
ATOM    129  H   UNL A   1      38.134  34.678  35.274  1.00  0.00     0.065 H 
ATOM    130  H   UNL A   1      38.465  29.564  27.962  1.00  0.00     0.065 H 
ATOM    131  C   UNL A   1      40.527  28.832  29.791  1.00  0.00     0.037 A 
ATOM    132  C   UNL A   1      41.147  31.711  35.622  1.00  0.00     0.049 A 
ATOM    133  C   UNL A   1      41.476  28.639  30.945  1.00  0.00     0.074 A 
ATOM    134  C   UNL A   1      42.026  31.386  36.640  1.00  0.00    -0.036 A 
ATOM    135  N   UNL A   1      41.416  30.845  34.571  1.00  0.00    -0.354 N 
ATOM    136  N   UNL A   1      41.513  29.260  32.098  1.00  0.00    -0.248 NA
ATOM    137  C   UNL A   1      42.514  27.611  30.784  1.00  0.00    -0.034 C 
ATOM    138  C   UNL A   1      42.866  30.365  36.184  1.00  0.00    -0.036 A 
ATOM    139  H   UNL A   1      42.056  31.823  37.576  1.00  0.00     0.065 H 
ATOM    140  C   UNL A   1      42.468  30.007  34.907  1.00  0.00     0.049 A 
ATOM    141  H   UNL A   1      40.932  30.829  33.714  1.00  0.00     0.167 HD
ATOM    142  C   UNL A   1      42.552  28.679  32.813  1.00  0.00     0.074 A 
ATOM    143  C   UNL A   1      43.110  27.644  31.967  1.00  0.00    -0.034 C 
ATOM    144  H   UNL A   1      42.723  27.020  29.966  1.00  0.00     0.065 H 
ATOM    145  H   UNL A   1      43.650  29.950  36.711  1.00  0.00     0.065 H 
ATOM    146  C   UNL A   1      43.005  28.975  34.056  1.00  0.00     0.037 A 
ATOM    147  H   UNL A   1      43.875  27.011  32.250  1.00  0.00     0.065 H 
BRANCH 128 148
ATOM    148  C   UNL A   1      40.016  33.643  36.792  1.00  0.00     0.064 A 
ATOM    149  C   UNL A   1      40.752  34.834  36.893  1.00  0.00     0.173 A 
ATOM    150  C   UNL A   1      39.124  33.337  37.833  1.00  0.00     0.173 A 
ATOM    151  F   UNL A   1      41.626  35.170  35.933  1.00  0.00    -0.203 F 
ATOM    152  C   UNL A   1      40.628  35.664  38.005  1.00  0.00     0.198 A 
ATOM    153  C   UNL A   1      38.976  34.188  38.926  1.00  0.00     0.198 A 
ATOM    154  F   UNL A   1      38.390  32.215  37.787  1.00  0.00    -0.203 F 
ATOM    155  F   UNL A   1      41.385  36.766  38.104  1.00  0.00    -0.200 F 
ATOM    156  C   UNL A   1      39.735  35.344  39.016  1.00  0.00     0.200 A 
ATOM    157  F   UNL A   1      38.102  33.884  39.895  1.00  0.00    -0.200 F 
ATOM    158  F   UNL A   1      39.611  36.148  40.081  1.00  0.00    -0.200 F 
ENDBRANCH 128 148
BRANCH 131 159
ATOM    159  C   UNL A   1      40.647  28.004  28.560  1.00  0.00     0.064 A 
ATOM    160  C   UNL A   1      39.993  26.768  28.455  1.00  0.00     0.173 A 
ATOM    161  C   UNL A   1      41.422  28.424  27.469  1.00  0.00     0.173 A 
ATOM    162  F   UNL A   1      39.255  26.312  29.477  1.00  0.00    -0.203 F 
ATOM    163  C   UNL A   1      40.131  25.973  27.318  1.00  0.00     0.198 A 
ATOM    164  C   UNL A   1      41.533  27.644  26.320  1.00  0.00     0.198 A 
ATOM    165  F   UNL A   1      42.064  29.601  27.514  1.00  0.00    -0.203 F 
ATOM    166  F   UNL A   1      39.539  24.772  27.267  1.00  0.00    -0.200 F 
ATOM    167  C   UNL A   1      40.896  26.414  26.250  1.00  0.00     0.200 A 
ATOM    168  F   UNL A   1      42.260  28.082  25.284  1.00  0.00    -0.200 F 
ATOM    169  F   UNL A   1      41.026  25.652  25.155  1.00  0.00    -0.200 F 
ENDBRANCH 131 159
BRANCH 146 170
ATOM    170  C   UNL A   1      44.134  28.144  34.596  1.00  0.00     0.064 A 
ATOM    171  C   UNL A   1      43.908  26.940  35.277  1.00  0.00     0.173 A 
ATOM    172  C   UNL A   1      45.465  28.543  34.392  1.00  0.00     0.173 A 
ATOM    173  F   UNL A   1      42.655  26.522  35.511  1.00  0.00    -0.203 F 
ATOM    174  C   UNL A   1      44.970  26.180  35.760  1.00  0.00     0.198 A 
ATOM    175  C   UNL A   1      46.525  27.761  34.843  1.00  0.00     0.198 A 
ATOM    176  F   UNL A   1      45.739  29.682  33.738  1.00  0.00    -0.203 F 
ATOM    177  F   UNL A   1      44.728  25.060  36.455  1.00  0.00    -0.200 F 
ATOM    178  C   UNL A   1      46.277  26.586  35.535  1.00  0.00     0.200 A 
ATOM    179  F   UNL A   1      47.788  28.147  34.610  1.00  0.00    -0.200 F 
ATOM    180  F   UNL A   1      47.298  25.847  35.991  1.00  0.00    -0.200 F 
ENDBRANCH 146 170
ENDBRANCH 111 114
ENDBRANCH 101 104
ENDBRANCH  97 100
ENDBRANCH  94  97
ENDBRANCH   1  94
TORSDOF 21
ENDMDL
MODEL 4
REMARK VINA RESULT:     -12.0      4.995     10.082
REMARK SMILES C[C@H]1[C@H](C)CC[C@@]2(C(=O)NCCCCCCNC(=O)c3ccc(-c4c5nc(c(-c6c(F)c(F)c(F)c(F)c6F)c6ccc([nH]6)c(-c6c(F)c(F)c(F)c(F)c6F)c6nc(c(-c7c(F)c(F)c(F)c(F)c7F)c7ccc4[nH]7)C=C6)C=C5)cc3)CC[C@@]3(C)C(=CC[C@@H]4[C@@]5(C)CC[C@H](O)C(C)(C)[C@@H]5CC[C@]43C)[C@H]12
REMARK SMILES IDX 14 1 13 4 12 7 11 10 10 13 8 14 9 15 7 17 2 18 3 19 105 20
REMARK SMILES IDX 5 22 87 24 6 26 83 29 85 30 88 31 84 34 103 37 89 38 90 42
REMARK SMILES IDX 102 43 91 46 101 48 93 51 100 52 94 55 97 58 95 60 1 64 4 68
REMARK SMILES IDX 86 72 104 76 92 80 98 84 99 88 96 92 15 94 16 97 17 100
REMARK SMILES IDX 18 101 19 103 20 104 21 105 82 106 22 107 81 109 23 111
REMARK SMILES IDX 24 114 25 115 75 116 26 117 80 118 74 119 76 120 27 121
REMARK SMILES IDX 79 122 73 124 72 126 28 128 60 131 40 132 59 133 41 134
REMARK SMILES IDX 44 135 58 136 77 137 42 138 43 140 57 142 78 143 45 146
REMARK SMILES IDX 29 148 30 149 38 150 31 151 32 152 36 153 39 154 33 155
REMARK SMILES IDX 34 156 37 157 35 158 61 159 62 160 70 161 63 162 64 163
REMARK SMILES IDX 68 164 71 165 65 166 66 167 69 168 67 169 46 170 47 171
REMARK SMILES IDX 55 172 48 173 49 174 53 175 56 176 50 177 51 178 54 179
REMARK SMILES IDX 52 180
REMARK H PARENT 14 2 14 3 13 5 13 6 12 8 12 9 11 11 11 12 10 16 2 21 3 23
REMARK H PARENT 105 25 5 27 5 28 6 32 6 33 83 35 83 36 88 39 84 40 84 41 89 44
REMARK H PARENT 89 45 90 47 102 49 102 50 101 53 101 54 93 56 93 57 100 59
REMARK H PARENT 94 61 94 62 95 63 1 65 1 66 1 67 4 69 4 70 4 71 86 73 86 74
REMARK H PARENT 86 75 104 77 104 78 104 79 92 81 92 82 92 83 98 85 98 86 98 87
REMARK H PARENT 99 89 99 90 99 91 96 93 15 95 15 96 16 98 16 99 17 102 21 108
REMARK H PARENT 82 110 22 112 81 113 80 123 74 125 76 127 79 129 73 130 41 139
REMARK H PARENT 44 141 77 144 42 145 78 147
REMARK Flexibility Score: inf
ROOT
ATOM      1  C   UNL A   1      34.325  31.476  28.371  1.00  0.00    -0.052 C 
ATOM      2  H   UNL A   1      35.045  32.228  28.613  1.00  0.00     0.027 H 
ATOM      3  H   UNL A   1      34.035  30.825  29.170  1.00  0.00     0.027 H 
ENDROOT
BRANCH   1   4
ATOM      4  C   UNL A   1      34.975  30.542  27.344  1.00  0.00    -0.052 C 
ATOM      5  H   UNL A   1      34.562  30.794  26.390  1.00  0.00     0.027 H 
ATOM      6  H   UNL A   1      36.023  30.709  27.484  1.00  0.00     0.027 H 
BRANCH   4   7
ATOM      7  C   UNL A   1      34.835  29.019  27.502  1.00  0.00    -0.036 C 
ATOM      8  H   UNL A   1      35.803  28.638  27.753  1.00  0.00     0.028 H 
ATOM      9  H   UNL A   1      34.073  28.904  28.244  1.00  0.00     0.028 H 
BRANCH   7  10
ATOM     10  C   UNL A   1      34.323  28.198  26.313  1.00  0.00     0.017 C 
ATOM     11  H   UNL A   1      35.091  27.509  26.031  1.00  0.00     0.049 H 
ATOM     12  H   UNL A   1      33.424  27.722  26.644  1.00  0.00     0.049 H 
BRANCH  10  13
ATOM     13  N   UNL A   1      33.963  28.975  25.140  1.00  0.00    -0.356 N 
ATOM     14  C   UNL A   1      32.778  29.065  24.454  1.00  0.00     0.226 C 
ATOM     15  O   UNL A   1      32.914  29.109  23.224  1.00  0.00    -0.274 OA
ATOM     16  H   UNL A   1      34.691  29.530  24.777  1.00  0.00     0.163 HD
BRANCH  14  17
ATOM     17  C   UNL A   1      31.348  29.192  25.111  1.00  0.00     0.056 C 
ATOM     18  C   UNL A   1      29.824  29.647  23.068  1.00  0.00    -0.034 C 
ATOM     19  C   UNL A   1      29.388  31.006  23.713  1.00  0.00    -0.041 C 
ATOM     20  C   UNL A   1      30.222  28.639  24.186  1.00  0.00    -0.002 C 
ATOM     21  H   UNL A   1      30.678  29.824  22.449  1.00  0.00     0.031 H 
ATOM     22  C   UNL A   1      30.368  31.585  24.750  1.00  0.00    -0.049 C 
ATOM     23  H   UNL A   1      28.475  30.703  24.182  1.00  0.00     0.030 H 
ATOM     24  C   UNL A   1      30.663  27.194  23.854  1.00  0.00    -0.063 C 
ATOM     25  H   UNL A   1      29.250  28.551  24.625  1.00  0.00     0.036 H 
ATOM     26  C   UNL A   1      31.102  30.612  25.641  1.00  0.00    -0.038 C 
ATOM     27  H   UNL A   1      29.810  32.242  25.384  1.00  0.00     0.027 H 
ATOM     28  H   UNL A   1      31.136  32.050  24.167  1.00  0.00     0.027 H 
ATOM     29  C   UNL A   1      31.290  28.306  26.416  1.00  0.00    -0.037 C 
ATOM     30  C   UNL A   1      30.562  26.175  25.030  1.00  0.00    -0.006 C 
ATOM     31  C   UNL A   1      31.373  26.920  22.739  1.00  0.00    -0.084 C 
ATOM     32  H   UNL A   1      30.536  30.521  26.545  1.00  0.00     0.028 H 
ATOM     33  H   UNL A   1      32.081  31.032  25.744  1.00  0.00     0.028 H 
ATOM     34  C   UNL A   1      31.321  26.784  26.256  1.00  0.00    -0.043 C 
ATOM     35  H   UNL A   1      30.384  28.553  26.928  1.00  0.00     0.028 H 
ATOM     36  H   UNL A   1      32.197  28.537  26.935  1.00  0.00     0.028 H 
ATOM     37  C   UNL A   1      31.209  24.729  24.641  1.00  0.00    -0.020 C 
ATOM     38  C   UNL A   1      32.317  25.749  22.611  1.00  0.00    -0.031 C 
ATOM     39  H   UNL A   1      31.265  27.548  21.927  1.00  0.00     0.058 H 
ATOM     40  H   UNL A   1      30.896  26.359  27.142  1.00  0.00     0.028 H 
ATOM     41  H   UNL A   1      32.351  26.547  26.087  1.00  0.00     0.028 H 
ATOM     42  C   UNL A   1      32.595  25.062  23.977  1.00  0.00    -0.026 C 
ATOM     43  C   UNL A   1      31.371  23.802  25.876  1.00  0.00    -0.046 C 
ATOM     44  H   UNL A   1      33.245  26.099  22.208  1.00  0.00     0.031 H 
ATOM     45  H   UNL A   1      31.858  25.028  21.969  1.00  0.00     0.031 H 
ATOM     46  C   UNL A   1      33.753  23.979  24.005  1.00  0.00    -0.025 C 
ATOM     47  H   UNL A   1      33.089  25.743  24.638  1.00  0.00     0.032 H 
ATOM     48  C   UNL A   1      32.300  22.613  25.628  1.00  0.00    -0.049 C 
ATOM     49  H   UNL A   1      31.768  24.380  26.684  1.00  0.00     0.027 H 
ATOM     50  H   UNL A   1      30.402  23.405  26.100  1.00  0.00     0.027 H 
ATOM     51  C   UNL A   1      35.121  24.738  24.068  1.00  0.00    -0.045 C 
ATOM     52  C   UNL A   1      33.711  23.131  25.333  1.00  0.00    -0.028 C 
ATOM     53  H   UNL A   1      32.323  21.988  26.496  1.00  0.00     0.027 H 
ATOM     54  H   UNL A   1      31.944  22.044  24.794  1.00  0.00     0.027 H 
ATOM     55  C   UNL A   1      36.337  23.822  24.219  1.00  0.00    -0.026 C 
ATOM     56  H   UNL A   1      35.098  25.405  24.903  1.00  0.00     0.027 H 
ATOM     57  H   UNL A   1      35.234  25.248  23.133  1.00  0.00     0.027 H 
ATOM     58  C   UNL A   1      34.870  22.075  25.507  1.00  0.00    -0.006 C 
ATOM     59  H   UNL A   1      33.945  23.816  26.120  1.00  0.00     0.031 H 
ATOM     60  C   UNL A   1      36.230  22.831  25.381  1.00  0.00     0.059 C 
ATOM     61  H   UNL A   1      37.200  24.434  24.376  1.00  0.00     0.029 H 
ATOM     62  H   UNL A   1      36.399  23.242  23.322  1.00  0.00     0.029 H 
ATOM     63  H   UNL A   1      36.272  23.416  26.277  1.00  0.00     0.061 H 
BRANCH  18  64
ATOM     64  C   UNL A   1      28.731  29.074  22.152  1.00  0.00    -0.062 C 
ATOM     65  H   UNL A   1      28.656  28.018  22.304  1.00  0.00     0.023 H 
ATOM     66  H   UNL A   1      28.982  29.271  21.130  1.00  0.00     0.023 H 
ATOM     67  H   UNL A   1      27.793  29.536  22.383  1.00  0.00     0.023 H 
ENDBRANCH  18  64
BRANCH  19  68
ATOM     68  C   UNL A   1      29.140  32.150  22.714  1.00  0.00    -0.062 C 
ATOM     69  H   UNL A   1      29.176  31.765  21.716  1.00  0.00     0.023 H 
ATOM     70  H   UNL A   1      29.894  32.899  22.835  1.00  0.00     0.023 H 
ATOM     71  H   UNL A   1      28.177  32.579  22.896  1.00  0.00     0.023 H 
ENDBRANCH  19  68
BRANCH  30  72
ATOM     72  C   UNL A   1      29.074  25.990  25.430  1.00  0.00    -0.055 C 
ATOM     73  H   UNL A   1      29.018  25.639  26.439  1.00  0.00     0.024 H 
ATOM     74  H   UNL A   1      28.615  25.277  24.777  1.00  0.00     0.024 H 
ATOM     75  H   UNL A   1      28.565  26.927  25.348  1.00  0.00     0.024 H 
ENDBRANCH  30  72
BRANCH  37  76
ATOM     76  C   UNL A   1      30.280  23.949  23.660  1.00  0.00    -0.059 C 
ATOM     77  H   UNL A   1      30.120  24.534  22.778  1.00  0.00     0.024 H 
ATOM     78  H   UNL A   1      29.339  23.758  24.136  1.00  0.00     0.024 H 
ATOM     79  H   UNL A   1      30.740  23.021  23.394  1.00  0.00     0.024 H 
ENDBRANCH  37  76
BRANCH  46  80
ATOM     80  C   UNL A   1      33.714  23.149  22.710  1.00  0.00    -0.059 C 
ATOM     81  H   UNL A   1      34.522  22.448  22.711  1.00  0.00     0.024 H 
ATOM     82  H   UNL A   1      33.807  23.800  21.866  1.00  0.00     0.024 H 
ATOM     83  H   UNL A   1      32.785  22.621  22.652  1.00  0.00     0.024 H 
ENDBRANCH  46  80
BRANCH  58  84
ATOM     84  C   UNL A   1      34.775  20.862  24.556  1.00  0.00    -0.057 C 
ATOM     85  H   UNL A   1      35.351  21.054  23.676  1.00  0.00     0.024 H 
ATOM     86  H   UNL A   1      33.752  20.700  24.285  1.00  0.00     0.024 H 
ATOM     87  H   UNL A   1      35.155  19.992  25.049  1.00  0.00     0.024 H 
ENDBRANCH  58  84
BRANCH  58  88
ATOM     88  C   UNL A   1      34.831  21.462  26.938  1.00  0.00    -0.057 C 
ATOM     89  H   UNL A   1      34.095  20.685  26.973  1.00  0.00     0.024 H 
ATOM     90  H   UNL A   1      34.580  22.223  27.646  1.00  0.00     0.024 H 
ATOM     91  H   UNL A   1      35.791  21.054  27.178  1.00  0.00     0.024 H 
ENDBRANCH  58  88
BRANCH  60  92
ATOM     92  O   UNL A   1      37.326  21.918  25.309  1.00  0.00    -0.393 OA
ATOM     93  H   UNL A   1      37.000  21.042  25.051  1.00  0.00     0.210 HD
ENDBRANCH  60  92
ENDBRANCH  14  17
ENDBRANCH  10  13
ENDBRANCH   7  10
ENDBRANCH   4   7
ENDBRANCH   1   4
BRANCH   1  94
ATOM     94  C   UNL A   1      33.034  32.193  27.987  1.00  0.00    -0.036 C 
ATOM     95  H   UNL A   1      32.500  32.390  28.893  1.00  0.00     0.028 H 
ATOM     96  H   UNL A   1      32.554  31.527  27.300  1.00  0.00     0.028 H 
BRANCH  94  97
ATOM     97  C   UNL A   1      33.143  33.506  27.230  1.00  0.00     0.018 C 
ATOM     98  H   UNL A   1      32.577  33.419  26.326  1.00  0.00     0.049 H 
ATOM     99  H   UNL A   1      34.185  33.672  27.053  1.00  0.00     0.049 H 
BRANCH  97 100
ATOM    100  N   UNL A   1      32.657  34.656  27.962  1.00  0.00    -0.352 N 
ATOM    101  C   UNL A   1      33.121  35.196  29.141  1.00  0.00     0.251 C 
ATOM    102  H   UNL A   1      31.885  35.117  27.561  1.00  0.00     0.163 HD
ATOM    103  O   UNL A   1      32.533  36.136  29.657  1.00  0.00    -0.269 OA
BRANCH 101 104
ATOM    104  C   UNL A   1      34.310  34.615  29.814  1.00  0.00     0.039 A 
ATOM    105  C   UNL A   1      34.130  33.952  31.031  1.00  0.00    -0.049 A 
ATOM    106  C   UNL A   1      35.591  34.720  29.263  1.00  0.00    -0.049 A 
ATOM    107  C   UNL A   1      35.219  33.346  31.663  1.00  0.00    -0.053 A 
ATOM    108  H   UNL A   1      33.193  33.910  31.461  1.00  0.00     0.063 H 
ATOM    109  C   UNL A   1      36.658  34.040  29.849  1.00  0.00    -0.053 A 
ATOM    110  H   UNL A   1      35.747  35.300  28.425  1.00  0.00     0.063 H 
ATOM    111  C   UNL A   1      36.487  33.356  31.061  1.00  0.00    -0.014 A 
ATOM    112  H   UNL A   1      35.089  32.888  32.579  1.00  0.00     0.063 H 
ATOM    113  H   UNL A   1      37.581  34.041  29.386  1.00  0.00     0.063 H 
BRANCH 111 114
ATOM    114  C   UNL A   1      37.645  32.674  31.697  1.00  0.00     0.031 A 
ATOM    115  C   UNL A   1      38.299  31.502  31.015  1.00  0.00     0.074 A 
ATOM    116  C   UNL A   1      38.079  33.077  32.907  1.00  0.00     0.049 A 
ATOM    117  N   UNL A   1      39.289  30.750  31.426  1.00  0.00    -0.248 NA
ATOM    118  C   UNL A   1      37.752  31.107  29.708  1.00  0.00    -0.034 C 
ATOM    119  C   UNL A   1      37.499  34.169  33.692  1.00  0.00    -0.036 A 
ATOM    120  N   UNL A   1      39.104  32.614  33.694  1.00  0.00    -0.354 N 
ATOM    121  C   UNL A   1      39.470  29.790  30.438  1.00  0.00     0.074 A 
ATOM    122  C   UNL A   1      38.450  30.015  29.439  1.00  0.00    -0.034 C 
ATOM    123  H   UNL A   1      37.015  31.563  29.148  1.00  0.00     0.065 H 
ATOM    124  C   UNL A   1      38.196  34.311  34.831  1.00  0.00    -0.036 A 
ATOM    125  H   UNL A   1      36.686  34.740  33.413  1.00  0.00     0.065 H 
ATOM    126  C   UNL A   1      39.243  33.295  34.880  1.00  0.00     0.049 A 
ATOM    127  H   UNL A   1      39.688  31.864  33.433  1.00  0.00     0.167 HD
ATOM    128  C   UNL A   1      40.419  28.828  30.357  1.00  0.00     0.037 A 
ATOM    129  H   UNL A   1      38.287  29.405  28.623  1.00  0.00     0.065 H 
ATOM    130  H   UNL A   1      38.019  35.024  35.556  1.00  0.00     0.065 H 
ATOM    131  C   UNL A   1      40.110  33.115  35.894  1.00  0.00     0.037 A 
ATOM    132  C   UNL A   1      41.446  28.621  31.344  1.00  0.00     0.049 A 
ATOM    133  C   UNL A   1      41.144  32.026  35.788  1.00  0.00     0.074 A 
ATOM    134  C   UNL A   1      42.488  27.712  31.330  1.00  0.00    -0.036 A 
ATOM    135  N   UNL A   1      41.557  29.337  32.529  1.00  0.00    -0.354 N 
ATOM    136  N   UNL A   1      41.351  31.172  34.815  1.00  0.00    -0.248 NA
ATOM    137  C   UNL A   1      42.072  31.880  36.918  1.00  0.00    -0.034 C 
ATOM    138  C   UNL A   1      43.193  27.834  32.531  1.00  0.00    -0.036 A 
ATOM    139  H   UNL A   1      42.707  27.055  30.563  1.00  0.00     0.065 H 
ATOM    140  C   UNL A   1      42.633  28.867  33.265  1.00  0.00     0.049 A 
ATOM    141  H   UNL A   1      40.959  30.069  32.804  1.00  0.00     0.167 HD
ATOM    142  C   UNL A   1      42.447  30.411  35.198  1.00  0.00     0.074 A 
ATOM    143  C   UNL A   1      42.873  30.917  36.487  1.00  0.00    -0.034 C 
ATOM    144  H   UNL A   1      42.094  32.394  37.813  1.00  0.00     0.065 H 
ATOM    145  H   UNL A   1      43.995  27.254  32.821  1.00  0.00     0.065 H 
ATOM    146  C   UNL A   1      43.048  29.387  34.544  1.00  0.00     0.037 A 
ATOM    147  H   UNL A   1      43.696  30.570  37.004  1.00  0.00     0.065 H 
BRANCH 128 148
ATOM    148  C   UNL A   1      40.391  27.921  29.158  1.00  0.00     0.064 A 
ATOM    149  C   UNL A   1      39.608  26.757  29.129  1.00  0.00     0.173 A 
ATOM    150  C   UNL A   1      41.131  28.239  28.007  1.00  0.00     0.173 A 
ATOM    151  F   UNL A   1      38.889  26.400  30.204  1.00  0.00    -0.203 F 
ATOM    152  C   UNL A   1      39.592  25.928  28.010  1.00  0.00     0.198 A 
ATOM    153  C   UNL A   1      41.085  27.426  26.877  1.00  0.00     0.198 A 
ATOM    154  F   UNL A   1      41.893  29.343  27.976  1.00  0.00    -0.203 F 
ATOM    155  F   UNL A   1      38.881  24.792  28.029  1.00  0.00    -0.200 F 
ATOM    156  C   UNL A   1      40.325  26.267  26.883  1.00  0.00     0.200 A 
ATOM    157  F   UNL A   1      41.782  27.764  25.783  1.00  0.00    -0.200 F 
ATOM    158  F   UNL A   1      40.303  25.473  25.804  1.00  0.00    -0.200 F 
ENDBRANCH 128 148
BRANCH 131 159
ATOM    159  C   UNL A   1      40.053  33.997  37.091  1.00  0.00     0.064 A 
ATOM    160  C   UNL A   1      39.231  33.681  38.182  1.00  0.00     0.173 A 
ATOM    161  C   UNL A   1      40.809  35.177  37.167  1.00  0.00     0.173 A 
ATOM    162  F   UNL A   1      38.474  32.575  38.151  1.00  0.00    -0.203 F 
ATOM    163  C   UNL A   1      39.147  34.523  39.290  1.00  0.00     0.198 A 
ATOM    164  C   UNL A   1      40.749  36.001  38.289  1.00  0.00     0.198 A 
ATOM    165  F   UNL A   1      41.616  35.524  36.154  1.00  0.00    -0.203 F 
ATOM    166  F   UNL A   1      38.311  34.223  40.294  1.00  0.00    -0.200 F 
ATOM    167  C   UNL A   1      39.910  35.679  39.345  1.00  0.00     0.200 A 
ATOM    168  F   UNL A   1      41.501  37.108  38.344  1.00  0.00    -0.200 F 
ATOM    169  F   UNL A   1      39.832  36.486  40.412  1.00  0.00    -0.200 F 
ENDBRANCH 131 159
BRANCH 146 170
ATOM    170  C   UNL A   1      44.255  28.768  35.189  1.00  0.00     0.064 A 
ATOM    171  C   UNL A   1      45.551  29.246  34.948  1.00  0.00     0.173 A 
ATOM    172  C   UNL A   1      44.105  27.706  36.095  1.00  0.00     0.173 A 
ATOM    173  F   UNL A   1      45.750  30.249  34.080  1.00  0.00    -0.203 F 
ATOM    174  C   UNL A   1      46.656  28.664  35.565  1.00  0.00     0.198 A 
ATOM    175  C   UNL A   1      45.208  27.151  36.739  1.00  0.00     0.198 A 
ATOM    176  F   UNL A   1      42.887  27.216  36.370  1.00  0.00    -0.203 F 
ATOM    177  F   UNL A   1      47.889  29.102  35.278  1.00  0.00    -0.200 F 
ATOM    178  C   UNL A   1      46.482  27.624  36.466  1.00  0.00     0.200 A 
ATOM    179  F   UNL A   1      45.037  26.158  37.623  1.00  0.00    -0.200 F 
ATOM    180  F   UNL A   1      47.546  27.073  37.068  1.00  0.00    -0.200 F 
ENDBRANCH 146 170
ENDBRANCH 111 114
ENDBRANCH 101 104
ENDBRANCH  97 100
ENDBRANCH  94  97
ENDBRANCH   1  94
TORSDOF 21
ENDMDL
MODEL 5
REMARK VINA RESULT:     -12.0      0.915      6.839
REMARK SMILES C[C@H]1[C@H](C)CC[C@@]2(C(=O)NCCCCCCNC(=O)c3ccc(-c4c5nc(c(-c6c(F)c(F)c(F)c(F)c6F)c6ccc([nH]6)c(-c6c(F)c(F)c(F)c(F)c6F)c6nc(c(-c7c(F)c(F)c(F)c(F)c7F)c7ccc4[nH]7)C=C6)C=C5)cc3)CC[C@@]3(C)C(=CC[C@@H]4[C@@]5(C)CC[C@H](O)C(C)(C)[C@@H]5CC[C@]43C)[C@H]12
REMARK SMILES IDX 14 1 13 4 12 7 11 10 10 13 8 14 9 15 7 17 2 18 3 19 105 20
REMARK SMILES IDX 5 22 87 24 6 26 83 29 85 30 88 31 84 34 103 37 89 38 90 42
REMARK SMILES IDX 102 43 91 46 101 48 93 51 100 52 94 55 97 58 95 60 1 64 4 68
REMARK SMILES IDX 86 72 104 76 92 80 98 84 99 88 96 92 15 94 16 97 17 100
REMARK SMILES IDX 18 101 19 103 20 104 21 105 82 106 22 107 81 109 23 111
REMARK SMILES IDX 24 114 25 115 75 116 26 117 80 118 74 119 76 120 27 121
REMARK SMILES IDX 79 122 73 124 72 126 28 128 60 131 40 132 59 133 41 134
REMARK SMILES IDX 44 135 58 136 77 137 42 138 43 140 57 142 78 143 45 146
REMARK SMILES IDX 29 148 30 149 38 150 31 151 32 152 36 153 39 154 33 155
REMARK SMILES IDX 34 156 37 157 35 158 61 159 62 160 70 161 63 162 64 163
REMARK SMILES IDX 68 164 71 165 65 166 66 167 69 168 67 169 46 170 47 171
REMARK SMILES IDX 55 172 48 173 49 174 53 175 56 176 50 177 51 178 54 179
REMARK SMILES IDX 52 180
REMARK H PARENT 14 2 14 3 13 5 13 6 12 8 12 9 11 11 11 12 10 16 2 21 3 23
REMARK H PARENT 105 25 5 27 5 28 6 32 6 33 83 35 83 36 88 39 84 40 84 41 89 44
REMARK H PARENT 89 45 90 47 102 49 102 50 101 53 101 54 93 56 93 57 100 59
REMARK H PARENT 94 61 94 62 95 63 1 65 1 66 1 67 4 69 4 70 4 71 86 73 86 74
REMARK H PARENT 86 75 104 77 104 78 104 79 92 81 92 82 92 83 98 85 98 86 98 87
REMARK H PARENT 99 89 99 90 99 91 96 93 15 95 15 96 16 98 16 99 17 102 21 108
REMARK H PARENT 82 110 22 112 81 113 80 123 74 125 76 127 79 129 73 130 41 139
REMARK H PARENT 44 141 77 144 42 145 78 147
REMARK Flexibility Score: inf
ROOT
ATOM      1  C   UNL A   1      39.670  22.323  26.154  1.00  0.00    -0.052 C 
ATOM      2  H   UNL A   1      40.633  22.689  26.439  1.00  0.00     0.027 H 
ATOM      3  H   UNL A   1      39.460  22.316  25.104  1.00  0.00     0.027 H 
ENDROOT
BRANCH   1   4
ATOM      4  C   UNL A   1      38.630  23.285  26.738  1.00  0.00    -0.052 C 
ATOM      5  H   UNL A   1      37.997  22.706  27.378  1.00  0.00     0.027 H 
ATOM      6  H   UNL A   1      39.225  24.047  27.197  1.00  0.00     0.027 H 
BRANCH   4   7
ATOM      7  C   UNL A   1      37.707  24.074  25.796  1.00  0.00    -0.036 C 
ATOM      8  H   UNL A   1      37.983  25.105  25.875  1.00  0.00     0.028 H 
ATOM      9  H   UNL A   1      37.857  23.615  24.841  1.00  0.00     0.028 H 
BRANCH   7  10
ATOM     10  C   UNL A   1      36.192  23.997  26.011  1.00  0.00     0.017 C 
ATOM     11  H   UNL A   1      35.902  24.820  26.631  1.00  0.00     0.049 H 
ATOM     12  H   UNL A   1      35.750  24.022  25.037  1.00  0.00     0.049 H 
BRANCH  10  13
ATOM     13  N   UNL A   1      35.722  22.774  26.638  1.00  0.00    -0.356 N 
ATOM     14  C   UNL A   1      34.967  21.743  26.139  1.00  0.00     0.226 C 
ATOM     15  O   UNL A   1      34.125  21.307  26.935  1.00  0.00    -0.274 OA
ATOM     16  H   UNL A   1      35.991  22.667  27.579  1.00  0.00     0.163 HD
BRANCH  14  17
ATOM     17  C   UNL A   1      35.160  21.071  24.723  1.00  0.00     0.056 C 
ATOM     18  C   UNL A   1      33.435  19.140  24.772  1.00  0.00    -0.034 C 
ATOM     19  C   UNL A   1      34.597  18.114  24.556  1.00  0.00    -0.041 C 
ATOM     20  C   UNL A   1      33.823  20.513  24.148  1.00  0.00    -0.002 C 
ATOM     21  H   UNL A   1      33.290  19.273  25.823  1.00  0.00     0.031 H 
ATOM     22  C   UNL A   1      35.997  18.609  24.967  1.00  0.00    -0.049 C 
ATOM     23  H   UNL A   1      34.537  17.988  23.495  1.00  0.00     0.030 H 
ATOM     24  C   UNL A   1      32.852  21.718  24.172  1.00  0.00    -0.063 C 
ATOM     25  H   UNL A   1      33.848  20.183  23.130  1.00  0.00     0.036 H 
ATOM     26  C   UNL A   1      36.320  20.065  24.736  1.00  0.00    -0.038 C 
ATOM     27  H   UNL A   1      36.713  18.031  24.423  1.00  0.00     0.027 H 
ATOM     28  H   UNL A   1      36.023  18.492  26.031  1.00  0.00     0.027 H 
ATOM     29  C   UNL A   1      35.639  22.161  23.686  1.00  0.00    -0.037 C 
ATOM     30  C   UNL A   1      33.144  22.836  23.125  1.00  0.00    -0.006 C 
ATOM     31  C   UNL A   1      32.028  21.927  25.220  1.00  0.00    -0.084 C 
ATOM     32  H   UNL A   1      36.811  20.134  23.787  1.00  0.00     0.028 H 
ATOM     33  H   UNL A   1      36.907  20.346  25.586  1.00  0.00     0.028 H 
ATOM     34  C   UNL A   1      34.646  23.251  23.275  1.00  0.00    -0.043 C 
ATOM     35  H   UNL A   1      35.931  21.645  22.795  1.00  0.00     0.028 H 
ATOM     36  H   UNL A   1      36.418  22.689  24.195  1.00  0.00     0.028 H 
ATOM     37  C   UNL A   1      32.186  24.137  23.341  1.00  0.00    -0.020 C 
ATOM     38  C   UNL A   1      31.510  23.286  25.623  1.00  0.00    -0.031 C 
ATOM     39  H   UNL A   1      31.735  21.110  25.780  1.00  0.00     0.058 H 
ATOM     40  H   UNL A   1      34.968  23.640  22.332  1.00  0.00     0.028 H 
ATOM     41  H   UNL A   1      34.658  23.951  24.085  1.00  0.00     0.028 H 
ATOM     42  C   UNL A   1      32.241  24.440  24.883  1.00  0.00    -0.026 C 
ATOM     43  C   UNL A   1      32.647  25.357  22.498  1.00  0.00    -0.046 C 
ATOM     44  H   UNL A   1      31.652  23.410  26.676  1.00  0.00     0.031 H 
ATOM     45  H   UNL A   1      30.475  23.332  25.359  1.00  0.00     0.031 H 
ATOM     46  C   UNL A   1      31.952  25.912  25.399  1.00  0.00    -0.025 C 
ATOM     47  H   UNL A   1      33.277  24.451  25.150  1.00  0.00     0.032 H 
ATOM     48  C   UNL A   1      32.021  26.679  22.946  1.00  0.00    -0.049 C 
ATOM     49  H   UNL A   1      33.711  25.442  22.577  1.00  0.00     0.027 H 
ATOM     50  H   UNL A   1      32.328  25.182  21.491  1.00  0.00     0.027 H 
ATOM     51  C   UNL A   1      32.808  26.147  26.689  1.00  0.00    -0.045 C 
ATOM     52  C   UNL A   1      32.475  26.990  24.376  1.00  0.00    -0.028 C 
ATOM     53  H   UNL A   1      32.336  27.465  22.292  1.00  0.00     0.027 H 
ATOM     54  H   UNL A   1      30.954  26.602  22.916  1.00  0.00     0.027 H 
ATOM     55  C   UNL A   1      32.726  27.570  27.242  1.00  0.00    -0.026 C 
ATOM     56  H   UNL A   1      33.831  25.936  26.457  1.00  0.00     0.027 H 
ATOM     57  H   UNL A   1      32.413  25.500  27.444  1.00  0.00     0.027 H 
ATOM     58  C   UNL A   1      32.314  28.494  24.825  1.00  0.00    -0.006 C 
ATOM     59  H   UNL A   1      33.540  26.895  24.376  1.00  0.00     0.031 H 
ATOM     60  C   UNL A   1      33.020  28.660  26.207  1.00  0.00     0.059 C 
ATOM     61  H   UNL A   1      33.434  27.662  28.039  1.00  0.00     0.029 H 
ATOM     62  H   UNL A   1      31.716  27.717  27.567  1.00  0.00     0.029 H 
ATOM     63  H   UNL A   1      34.060  28.569  25.966  1.00  0.00     0.061 H 
BRANCH  18  64
ATOM     64  C   UNL A   1      32.102  18.619  24.211  1.00  0.00    -0.062 C 
ATOM     65  H   UNL A   1      32.052  17.558  24.340  1.00  0.00     0.023 H 
ATOM     66  H   UNL A   1      32.036  18.855  23.169  1.00  0.00     0.023 H 
ATOM     67  H   UNL A   1      31.290  19.081  24.733  1.00  0.00     0.023 H 
ENDBRANCH  18  64
BRANCH  19  68
ATOM     68  C   UNL A   1      34.420  16.768  25.281  1.00  0.00    -0.062 C 
ATOM     69  H   UNL A   1      33.407  16.672  25.611  1.00  0.00     0.023 H 
ATOM     70  H   UNL A   1      35.075  16.729  26.125  1.00  0.00     0.023 H 
ATOM     71  H   UNL A   1      34.654  15.969  24.610  1.00  0.00     0.023 H 
ENDBRANCH  19  68
BRANCH  30  72
ATOM     72  C   UNL A   1      32.942  22.271  21.694  1.00  0.00    -0.055 C 
ATOM     73  H   UNL A   1      32.617  23.057  21.044  1.00  0.00     0.024 H 
ATOM     74  H   UNL A   1      32.205  21.497  21.717  1.00  0.00     0.024 H 
ATOM     75  H   UNL A   1      33.868  21.872  21.336  1.00  0.00     0.024 H 
ENDBRANCH  30  72
BRANCH  37  76
ATOM     76  C   UNL A   1      30.728  23.840  22.871  1.00  0.00    -0.059 C 
ATOM     77  H   UNL A   1      30.089  24.650  23.155  1.00  0.00     0.024 H 
ATOM     78  H   UNL A   1      30.383  22.936  23.330  1.00  0.00     0.024 H 
ATOM     79  H   UNL A   1      30.711  23.728  21.807  1.00  0.00     0.024 H 
ENDBRANCH  37  76
BRANCH  46  80
ATOM     80  C   UNL A   1      30.464  26.044  25.770  1.00  0.00    -0.059 C 
ATOM     81  H   UNL A   1      29.884  26.164  24.879  1.00  0.00     0.024 H 
ATOM     82  H   UNL A   1      30.328  26.898  26.402  1.00  0.00     0.024 H 
ATOM     83  H   UNL A   1      30.145  25.163  26.287  1.00  0.00     0.024 H 
ENDBRANCH  46  80
BRANCH  58  84
ATOM     84  C   UNL A   1      30.855  29.002  24.840  1.00  0.00    -0.057 C 
ATOM     85  H   UNL A   1      30.506  29.109  23.834  1.00  0.00     0.024 H 
ATOM     86  H   UNL A   1      30.813  29.949  25.335  1.00  0.00     0.024 H 
ATOM     87  H   UNL A   1      30.239  28.299  25.360  1.00  0.00     0.024 H 
ENDBRANCH  58  84
BRANCH  58  88
ATOM     88  C   UNL A   1      33.052  29.437  23.830  1.00  0.00    -0.057 C 
ATOM     89  H   UNL A   1      33.314  28.889  22.948  1.00  0.00     0.024 H 
ATOM     90  H   UNL A   1      33.939  29.817  24.290  1.00  0.00     0.024 H 
ATOM     91  H   UNL A   1      32.410  30.251  23.565  1.00  0.00     0.024 H 
ENDBRANCH  58  88
BRANCH  60  92
ATOM     92  O   UNL A   1      32.735  29.934  26.786  1.00  0.00    -0.393 OA
ATOM     93  H   UNL A   1      33.490  30.221  27.323  1.00  0.00     0.210 HD
ENDBRANCH  60  92
ENDBRANCH  14  17
ENDBRANCH  10  13
ENDBRANCH   7  10
ENDBRANCH   4   7
ENDBRANCH   1   4
BRANCH   1  94
ATOM     94  C   UNL A   1      39.609  20.853  26.557  1.00  0.00    -0.036 C 
ATOM     95  H   UNL A   1      38.630  20.673  26.949  1.00  0.00     0.028 H 
ATOM     96  H   UNL A   1      40.417  20.732  27.248  1.00  0.00     0.028 H 
BRANCH  94  97
ATOM     97  C   UNL A   1      39.867  19.807  25.486  1.00  0.00     0.018 C 
ATOM     98  H   UNL A   1      40.197  20.308  24.600  1.00  0.00     0.049 H 
ATOM     99  H   UNL A   1      38.946  19.279  25.344  1.00  0.00     0.049 H 
BRANCH  97 100
ATOM    100  N   UNL A   1      40.861  18.818  25.847  1.00  0.00    -0.352 N 
ATOM    101  C   UNL A   1      42.137  19.005  26.329  1.00  0.00     0.251 C 
ATOM    102  H   UNL A   1      40.585  17.880  25.731  1.00  0.00     0.163 HD
ATOM    103  O   UNL A   1      42.870  18.043  26.511  1.00  0.00    -0.269 OA
BRANCH 101 104
ATOM    104  C   UNL A   1      42.646  20.375  26.591  1.00  0.00     0.039 A 
ATOM    105  C   UNL A   1      43.135  21.121  25.515  1.00  0.00    -0.049 A 
ATOM    106  C   UNL A   1      42.648  20.926  27.875  1.00  0.00    -0.049 A 
ATOM    107  C   UNL A   1      43.570  22.433  25.716  1.00  0.00    -0.053 A 
ATOM    108  H   UNL A   1      43.175  20.701  24.573  1.00  0.00     0.063 H 
ATOM    109  C   UNL A   1      42.998  22.263  28.059  1.00  0.00    -0.053 A 
ATOM    110  H   UNL A   1      42.391  20.344  28.687  1.00  0.00     0.063 H 
ATOM    111  C   UNL A   1      43.475  23.028  26.984  1.00  0.00    -0.014 A 
ATOM    112  H   UNL A   1      43.966  22.968  24.927  1.00  0.00     0.063 H 
ATOM    113  H   UNL A   1      42.906  22.692  28.993  1.00  0.00     0.063 H 
BRANCH 111 114
ATOM    114  C   UNL A   1      43.888  24.439  27.204  1.00  0.00     0.031 A 
ATOM    115  C   UNL A   1      42.883  25.456  27.674  1.00  0.00     0.074 A 
ATOM    116  C   UNL A   1      45.154  24.817  26.938  1.00  0.00     0.049 A 
ATOM    117  N   UNL A   1      43.035  26.739  27.882  1.00  0.00    -0.248 NA
ATOM    118  C   UNL A   1      41.515  24.970  27.919  1.00  0.00    -0.034 C 
ATOM    119  C   UNL A   1      46.210  23.937  26.433  1.00  0.00    -0.036 A 
ATOM    120  N   UNL A   1      45.769  26.040  27.049  1.00  0.00    -0.354 N 
ATOM    121  C   UNL A   1      41.787  27.212  28.267  1.00  0.00     0.074 A 
ATOM    122  C   UNL A   1      40.874  26.093  28.202  1.00  0.00    -0.034 C 
ATOM    123  H   UNL A   1      41.151  24.005  27.879  1.00  0.00     0.065 H 
ATOM    124  C   UNL A   1      47.346  24.640  26.308  1.00  0.00    -0.036 A 
ATOM    125  H   UNL A   1      46.098  22.935  26.211  1.00  0.00     0.065 H 
ATOM    126  C   UNL A   1      47.092  26.028  26.681  1.00  0.00     0.049 A 
ATOM    127  H   UNL A   1      45.304  26.849  27.365  1.00  0.00     0.167 HD
ATOM    128  C   UNL A   1      41.440  28.459  28.665  1.00  0.00     0.037 A 
ATOM    129  H   UNL A   1      39.855  26.160  28.357  1.00  0.00     0.065 H 
ATOM    130  H   UNL A   1      48.254  24.259  25.997  1.00  0.00     0.065 H 
ATOM    131  C   UNL A   1      47.996  27.025  26.642  1.00  0.00     0.037 A 
ATOM    132  C   UNL A   1      42.357  29.565  28.747  1.00  0.00     0.049 A 
ATOM    133  C   UNL A   1      47.580  28.407  27.072  1.00  0.00     0.074 A 
ATOM    134  C   UNL A   1      42.120  30.853  29.191  1.00  0.00    -0.036 A 
ATOM    135  N   UNL A   1      43.693  29.511  28.372  1.00  0.00    -0.354 N 
ATOM    136  N   UNL A   1      46.415  28.825  27.502  1.00  0.00    -0.248 NA
ATOM    137  C   UNL A   1      48.609  29.456  27.018  1.00  0.00    -0.034 C 
ATOM    138  C   UNL A   1      43.294  31.596  29.029  1.00  0.00    -0.036 A 
ATOM    139  H   UNL A   1      41.229  31.205  29.577  1.00  0.00     0.065 H 
ATOM    140  C   UNL A   1      44.282  30.753  28.547  1.00  0.00     0.049 A 
ATOM    141  H   UNL A   1      44.152  28.710  28.032  1.00  0.00     0.167 HD
ATOM    142  C   UNL A   1      46.576  30.171  27.801  1.00  0.00     0.074 A 
ATOM    143  C   UNL A   1      47.959  30.496  27.518  1.00  0.00    -0.034 C 
ATOM    144  H   UNL A   1      49.582  29.396  26.681  1.00  0.00     0.065 H 
ATOM    145  H   UNL A   1      43.404  32.601  29.233  1.00  0.00     0.065 H 
ATOM    146  C   UNL A   1      45.663  31.059  28.267  1.00  0.00     0.037 A 
ATOM    147  H   UNL A   1      48.384  31.423  27.684  1.00  0.00     0.065 H 
BRANCH 128 148
ATOM    148  C   UNL A   1      40.004  28.695  29.042  1.00  0.00     0.064 A 
ATOM    149  C   UNL A   1      39.541  28.498  30.352  1.00  0.00     0.173 A 
ATOM    150  C   UNL A   1      39.084  29.159  28.088  1.00  0.00     0.173 A 
ATOM    151  F   UNL A   1      40.374  28.045  31.301  1.00  0.00    -0.203 F 
ATOM    152  C   UNL A   1      38.207  28.721  30.685  1.00  0.00     0.198 A 
ATOM    153  C   UNL A   1      37.759  29.416  28.433  1.00  0.00     0.198 A 
ATOM    154  F   UNL A   1      39.471  29.371  26.821  1.00  0.00    -0.203 F 
ATOM    155  F   UNL A   1      37.777  28.469  31.930  1.00  0.00    -0.200 F 
ATOM    156  C   UNL A   1      37.319  29.186  29.727  1.00  0.00     0.200 A 
ATOM    157  F   UNL A   1      36.906  29.880  27.509  1.00  0.00    -0.200 F 
ATOM    158  F   UNL A   1      36.038  29.409  30.051  1.00  0.00    -0.200 F 
ENDBRANCH 128 148
BRANCH 131 159
ATOM    159  C   UNL A   1      49.390  26.754  26.195  1.00  0.00     0.064 A 
ATOM    160  C   UNL A   1      49.773  26.955  24.862  1.00  0.00     0.173 A 
ATOM    161  C   UNL A   1      50.363  26.278  27.087  1.00  0.00     0.173 A 
ATOM    162  F   UNL A   1      48.875  27.391  23.966  1.00  0.00    -0.203 F 
ATOM    163  C   UNL A   1      51.067  26.668  24.431  1.00  0.00     0.198 A 
ATOM    164  C   UNL A   1      51.666  26.022  26.662  1.00  0.00     0.198 A 
ATOM    165  F   UNL A   1      50.052  26.072  28.375  1.00  0.00    -0.203 F 
ATOM    166  F   UNL A   1      51.390  26.819  23.140  1.00  0.00    -0.200 F 
ATOM    167  C   UNL A   1      52.014  26.207  25.333  1.00  0.00     0.200 A 
ATOM    168  F   UNL A   1      52.581  25.592  27.541  1.00  0.00    -0.200 F 
ATOM    169  F   UNL A   1      53.259  25.934  24.921  1.00  0.00    -0.200 F 
ENDBRANCH 131 159
BRANCH 146 170
ATOM    170  C   UNL A   1      46.137  32.458  28.539  1.00  0.00     0.064 A 
ATOM    171  C   UNL A   1      46.069  33.465  27.566  1.00  0.00     0.173 A 
ATOM    172  C   UNL A   1      46.628  32.803  29.808  1.00  0.00     0.173 A 
ATOM    173  F   UNL A   1      45.621  33.184  26.333  1.00  0.00    -0.203 F 
ATOM    174  C   UNL A   1      46.504  34.759  27.843  1.00  0.00     0.198 A 
ATOM    175  C   UNL A   1      47.027  34.107  30.093  1.00  0.00     0.198 A 
ATOM    176  F   UNL A   1      46.706  31.881  30.779  1.00  0.00    -0.203 F 
ATOM    177  F   UNL A   1      46.481  35.692  26.881  1.00  0.00    -0.200 F 
ATOM    178  C   UNL A   1      46.973  35.080  29.108  1.00  0.00     0.200 A 
ATOM    179  F   UNL A   1      47.464  34.419  31.321  1.00  0.00    -0.200 F 
ATOM    180  F   UNL A   1      47.381  36.329  29.376  1.00  0.00    -0.200 F 
ENDBRANCH 146 170
ENDBRANCH 111 114
ENDBRANCH 101 104
ENDBRANCH  97 100
ENDBRANCH  94  97
ENDBRANCH   1  94
TORSDOF 21
ENDMDL
MODEL 6
REMARK VINA RESULT:     -12.0      4.836     10.504
REMARK SMILES C[C@H]1[C@H](C)CC[C@@]2(C(=O)NCCCCCCNC(=O)c3ccc(-c4c5nc(c(-c6c(F)c(F)c(F)c(F)c6F)c6ccc([nH]6)c(-c6c(F)c(F)c(F)c(F)c6F)c6nc(c(-c7c(F)c(F)c(F)c(F)c7F)c7ccc4[nH]7)C=C6)C=C5)cc3)CC[C@@]3(C)C(=CC[C@@H]4[C@@]5(C)CC[C@H](O)C(C)(C)[C@@H]5CC[C@]43C)[C@H]12
REMARK SMILES IDX 14 1 13 4 12 7 11 10 10 13 8 14 9 15 7 17 2 18 3 19 105 20
REMARK SMILES IDX 5 22 87 24 6 26 83 29 85 30 88 31 84 34 103 37 89 38 90 42
REMARK SMILES IDX 102 43 91 46 101 48 93 51 100 52 94 55 97 58 95 60 1 64 4 68
REMARK SMILES IDX 86 72 104 76 92 80 98 84 99 88 96 92 15 94 16 97 17 100
REMARK SMILES IDX 18 101 19 103 20 104 21 105 82 106 22 107 81 109 23 111
REMARK SMILES IDX 24 114 25 115 75 116 26 117 80 118 74 119 76 120 27 121
REMARK SMILES IDX 79 122 73 124 72 126 28 128 60 131 40 132 59 133 41 134
REMARK SMILES IDX 44 135 58 136 77 137 42 138 43 140 57 142 78 143 45 146
REMARK SMILES IDX 29 148 30 149 38 150 31 151 32 152 36 153 39 154 33 155
REMARK SMILES IDX 34 156 37 157 35 158 61 159 62 160 70 161 63 162 64 163
REMARK SMILES IDX 68 164 71 165 65 166 66 167 69 168 67 169 46 170 47 171
REMARK SMILES IDX 55 172 48 173 49 174 53 175 56 176 50 177 51 178 54 179
REMARK SMILES IDX 52 180
REMARK H PARENT 14 2 14 3 13 5 13 6 12 8 12 9 11 11 11 12 10 16 2 21 3 23
REMARK H PARENT 105 25 5 27 5 28 6 32 6 33 83 35 83 36 88 39 84 40 84 41 89 44
REMARK H PARENT 89 45 90 47 102 49 102 50 101 53 101 54 93 56 93 57 100 59
REMARK H PARENT 94 61 94 62 95 63 1 65 1 66 1 67 4 69 4 70 4 71 86 73 86 74
REMARK H PARENT 86 75 104 77 104 78 104 79 92 81 92 82 92 83 98 85 98 86 98 87
REMARK H PARENT 99 89 99 90 99 91 96 93 15 95 15 96 16 98 16 99 17 102 21 108
REMARK H PARENT 82 110 22 112 81 113 80 123 74 125 76 127 79 129 73 130 41 139
REMARK H PARENT 44 141 77 144 42 145 78 147
REMARK Flexibility Score: inf
ROOT
ATOM      1  C   UNL A   1      34.398  31.455  27.681  1.00  0.00    -0.052 C 
ATOM      2  H   UNL A   1      34.555  31.480  26.624  1.00  0.00     0.027 H 
ATOM      3  H   UNL A   1      35.152  31.923  28.281  1.00  0.00     0.027 H 
ENDROOT
BRANCH   1   4
ATOM      4  C   UNL A   1      34.439  29.984  28.109  1.00  0.00    -0.052 C 
ATOM      5  H   UNL A   1      34.878  29.957  29.085  1.00  0.00     0.027 H 
ATOM      6  H   UNL A   1      33.418  29.672  28.023  1.00  0.00     0.027 H 
BRANCH   4   7
ATOM      7  C   UNL A   1      35.197  28.960  27.250  1.00  0.00    -0.036 C 
ATOM      8  H   UNL A   1      35.968  29.492  26.733  1.00  0.00     0.028 H 
ATOM      9  H   UNL A   1      35.520  28.221  27.953  1.00  0.00     0.028 H 
BRANCH   7  10
ATOM     10  C   UNL A   1      34.420  28.159  26.200  1.00  0.00     0.017 C 
ATOM     11  H   UNL A   1      35.039  27.348  25.877  1.00  0.00     0.049 H 
ATOM     12  H   UNL A   1      33.516  27.841  26.675  1.00  0.00     0.049 H 
BRANCH  10  13
ATOM     13  N   UNL A   1      34.018  28.913  25.026  1.00  0.00    -0.356 N 
ATOM     14  C   UNL A   1      32.808  28.995  24.383  1.00  0.00     0.226 C 
ATOM     15  O   UNL A   1      32.897  29.014  23.148  1.00  0.00    -0.274 OA
ATOM     16  H   UNL A   1      34.733  29.458  24.624  1.00  0.00     0.163 HD
BRANCH  14  17
ATOM     17  C   UNL A   1      31.405  29.141  25.092  1.00  0.00     0.056 C 
ATOM     18  C   UNL A   1      29.803  29.547  23.098  1.00  0.00    -0.034 C 
ATOM     19  C   UNL A   1      29.393  30.922  23.724  1.00  0.00    -0.041 C 
ATOM     20  C   UNL A   1      30.244  28.567  24.225  1.00  0.00    -0.002 C 
ATOM     21  H   UNL A   1      30.633  29.706  22.442  1.00  0.00     0.031 H 
ATOM     22  C   UNL A   1      30.412  31.526  24.708  1.00  0.00    -0.049 C 
ATOM     23  H   UNL A   1      28.499  30.632  24.236  1.00  0.00     0.030 H 
ATOM     24  C   UNL A   1      30.670  27.112  23.913  1.00  0.00    -0.063 C 
ATOM     25  H   UNL A   1      29.289  28.491  24.703  1.00  0.00     0.036 H 
ATOM     26  C   UNL A   1      31.180  30.574  25.594  1.00  0.00    -0.038 C 
ATOM     27  H   UNL A   1      29.880  32.199  25.347  1.00  0.00     0.027 H 
ATOM     28  H   UNL A   1      31.158  31.975  24.085  1.00  0.00     0.027 H 
ATOM     29  C   UNL A   1      31.396  28.288  26.420  1.00  0.00    -0.037 C 
ATOM     30  C   UNL A   1      30.614  26.123  25.117  1.00  0.00    -0.006 C 
ATOM     31  C   UNL A   1      31.336  26.810  22.779  1.00  0.00    -0.084 C 
ATOM     32  H   UNL A   1      30.649  30.507  26.521  1.00  0.00     0.028 H 
ATOM     33  H   UNL A   1      32.163  30.995  25.649  1.00  0.00     0.028 H 
ATOM     34  C   UNL A   1      31.420  26.762  26.297  1.00  0.00    -0.043 C 
ATOM     35  H   UNL A   1      30.510  28.549  26.960  1.00  0.00     0.028 H 
ATOM     36  H   UNL A   1      32.322  28.530  26.898  1.00  0.00     0.028 H 
ATOM     37  C   UNL A   1      31.244  24.668  24.740  1.00  0.00    -0.020 C 
ATOM     38  C   UNL A   1      32.274  25.634  22.644  1.00  0.00    -0.031 C 
ATOM     39  H   UNL A   1      31.198  27.417  21.956  1.00  0.00     0.058 H 
ATOM     40  H   UNL A   1      31.029  26.361  27.209  1.00  0.00     0.028 H 
ATOM     41  H   UNL A   1      32.442  26.519  26.094  1.00  0.00     0.028 H 
ATOM     42  C   UNL A   1      32.604  24.982  24.015  1.00  0.00    -0.026 C 
ATOM     43  C   UNL A   1      31.453  23.772  25.991  1.00  0.00    -0.046 C 
ATOM     44  H   UNL A   1      33.186  25.972  22.197  1.00  0.00     0.031 H 
ATOM     45  H   UNL A   1      31.790  24.898  22.039  1.00  0.00     0.031 H 
ATOM     46  C   UNL A   1      33.761  23.898  24.026  1.00  0.00    -0.025 C 
ATOM     47  H   UNL A   1      33.124  25.678  24.639  1.00  0.00     0.032 H 
ATOM     48  C   UNL A   1      32.371  22.575  25.737  1.00  0.00    -0.049 C 
ATOM     49  H   UNL A   1      31.881  24.369  26.768  1.00  0.00     0.027 H 
ATOM     50  H   UNL A   1      30.493  23.382  26.262  1.00  0.00     0.027 H 
ATOM     51  C   UNL A   1      35.132  24.655  24.017  1.00  0.00    -0.045 C 
ATOM     52  C   UNL A   1      33.770  23.084  25.376  1.00  0.00    -0.028 C 
ATOM     53  H   UNL A   1      32.426  21.972  26.620  1.00  0.00     0.027 H 
ATOM     54  H   UNL A   1      31.983  21.986  24.933  1.00  0.00     0.027 H 
ATOM     55  C   UNL A   1      36.352  23.742  24.144  1.00  0.00    -0.026 C 
ATOM     56  H   UNL A   1      35.141  25.344  24.836  1.00  0.00     0.027 H 
ATOM     57  H   UNL A   1      35.209  25.142  23.066  1.00  0.00     0.027 H 
ATOM     58  C   UNL A   1      34.934  22.030  25.532  1.00  0.00    -0.006 C 
ATOM     59  H   UNL A   1      34.035  23.788  26.136  1.00  0.00     0.031 H 
ATOM     60  C   UNL A   1      36.289  22.780  25.334  1.00  0.00     0.059 C 
ATOM     61  H   UNL A   1      37.221  24.356  24.253  1.00  0.00     0.029 H 
ATOM     62  H   UNL A   1      36.379  23.139  23.260  1.00  0.00     0.029 H 
ATOM     63  H   UNL A   1      36.366  23.387  26.213  1.00  0.00     0.061 H 
BRANCH  18  64
ATOM     64  C   UNL A   1      28.675  28.953  22.239  1.00  0.00    -0.062 C 
ATOM     65  H   UNL A   1      28.456  27.961  22.575  1.00  0.00     0.023 H 
ATOM     66  H   UNL A   1      28.984  28.922  21.215  1.00  0.00     0.023 H 
ATOM     67  H   UNL A   1      27.799  29.562  22.329  1.00  0.00     0.023 H 
ENDBRANCH  18  64
BRANCH  19  68
ATOM     68  C   UNL A   1      29.108  32.041  22.707  1.00  0.00    -0.062 C 
ATOM     69  H   UNL A   1      28.189  32.527  22.961  1.00  0.00     0.023 H 
ATOM     70  H   UNL A   1      29.029  31.620  21.727  1.00  0.00     0.023 H 
ATOM     71  H   UNL A   1      29.906  32.753  22.728  1.00  0.00     0.023 H 
ENDBRANCH  19  68
BRANCH  30  72
ATOM     72  C   UNL A   1      29.142  25.951  25.578  1.00  0.00    -0.055 C 
ATOM     73  H   UNL A   1      28.576  25.491  24.796  1.00  0.00     0.024 H 
ATOM     74  H   UNL A   1      28.725  26.909  25.806  1.00  0.00     0.024 H 
ATOM     75  H   UNL A   1      29.113  25.333  26.451  1.00  0.00     0.024 H 
ENDBRANCH  30  72
BRANCH  37  76
ATOM     76  C   UNL A   1      30.277  23.864  23.815  1.00  0.00    -0.059 C 
ATOM     77  H   UNL A   1      30.789  23.590  22.916  1.00  0.00     0.024 H 
ATOM     78  H   UNL A   1      29.430  24.472  23.572  1.00  0.00     0.024 H 
ATOM     79  H   UNL A   1      29.949  22.982  24.323  1.00  0.00     0.024 H 
ENDBRANCH  37  76
BRANCH  46  80
ATOM     80  C   UNL A   1      33.672  23.035  22.755  1.00  0.00    -0.059 C 
ATOM     81  H   UNL A   1      33.591  23.671  21.898  1.00  0.00     0.024 H 
ATOM     82  H   UNL A   1      32.810  22.403  22.812  1.00  0.00     0.024 H 
ATOM     83  H   UNL A   1      34.552  22.432  22.669  1.00  0.00     0.024 H 
ENDBRANCH  46  80
BRANCH  58  84
ATOM     84  C   UNL A   1      34.802  20.794  24.616  1.00  0.00    -0.057 C 
ATOM     85  H   UNL A   1      33.798  20.424  24.660  1.00  0.00     0.024 H 
ATOM     86  H   UNL A   1      35.477  20.032  24.945  1.00  0.00     0.024 H 
ATOM     87  H   UNL A   1      35.037  21.069  23.609  1.00  0.00     0.024 H 
ENDBRANCH  58  84
BRANCH  58  88
ATOM     88  C   UNL A   1      34.950  21.453  26.978  1.00  0.00    -0.057 C 
ATOM     89  H   UNL A   1      35.838  20.874  27.121  1.00  0.00     0.024 H 
ATOM     90  H   UNL A   1      34.091  20.831  27.123  1.00  0.00     0.024 H 
ATOM     91  H   UNL A   1      34.931  22.257  27.684  1.00  0.00     0.024 H 
ENDBRANCH  58  88
BRANCH  60  92
ATOM     92  O   UNL A   1      37.381  21.864  25.243  1.00  0.00    -0.393 OA
ATOM     93  H   UNL A   1      38.188  22.291  25.568  1.00  0.00     0.210 HD
ENDBRANCH  60  92
ENDBRANCH  14  17
ENDBRANCH  10  13
ENDBRANCH   7  10
ENDBRANCH   4   7
ENDBRANCH   1   4
BRANCH   1  94
ATOM     94  C   UNL A   1      33.137  32.263  27.970  1.00  0.00    -0.036 C 
ATOM     95  H   UNL A   1      33.157  32.522  29.008  1.00  0.00     0.028 H 
ATOM     96  H   UNL A   1      32.335  31.622  27.666  1.00  0.00     0.028 H 
BRANCH  94  97
ATOM     97  C   UNL A   1      32.915  33.546  27.188  1.00  0.00     0.018 C 
ATOM     98  H   UNL A   1      32.146  33.369  26.464  1.00  0.00     0.049 H 
ATOM     99  H   UNL A   1      33.854  33.800  26.741  1.00  0.00     0.049 H 
BRANCH  97 100
ATOM    100  N   UNL A   1      32.522  34.677  28.001  1.00  0.00    -0.352 N 
ATOM    101  C   UNL A   1      33.063  35.128  29.184  1.00  0.00     0.251 C 
ATOM    102  H   UNL A   1      31.759  35.199  27.660  1.00  0.00     0.163 HD
ATOM    103  O   UNL A   1      32.549  36.067  29.775  1.00  0.00    -0.269 OA
BRANCH 101 104
ATOM    104  C   UNL A   1      34.248  34.452  29.770  1.00  0.00     0.039 A 
ATOM    105  C   UNL A   1      34.065  33.643  30.896  1.00  0.00    -0.049 A 
ATOM    106  C   UNL A   1      35.527  34.608  29.229  1.00  0.00    -0.049 A 
ATOM    107  C   UNL A   1      35.148  32.949  31.440  1.00  0.00    -0.053 A 
ATOM    108  H   UNL A   1      33.129  33.560  31.324  1.00  0.00     0.063 H 
ATOM    109  C   UNL A   1      36.588  33.846  29.717  1.00  0.00    -0.053 A 
ATOM    110  H   UNL A   1      35.686  35.286  28.469  1.00  0.00     0.063 H 
ATOM    111  C   UNL A   1      36.413  33.017  30.835  1.00  0.00    -0.014 A 
ATOM    112  H   UNL A   1      35.017  32.382  32.292  1.00  0.00     0.063 H 
ATOM    113  H   UNL A   1      37.508  33.893  29.252  1.00  0.00     0.063 H 
BRANCH 111 114
ATOM    114  C   UNL A   1      37.565  32.246  31.373  1.00  0.00     0.031 A 
ATOM    115  C   UNL A   1      38.106  32.554  32.743  1.00  0.00     0.074 A 
ATOM    116  C   UNL A   1      38.152  31.300  30.614  1.00  0.00     0.049 A 
ATOM    117  N   UNL A   1      39.126  32.025  33.371  1.00  0.00    -0.248 NA
ATOM    118  C   UNL A   1      37.425  33.617  33.500  1.00  0.00    -0.034 C 
ATOM    119  C   UNL A   1      37.751  30.940  29.252  1.00  0.00    -0.036 A 
ATOM    120  N   UNL A   1      39.216  30.472  30.874  1.00  0.00    -0.354 N 
ATOM    121  C   UNL A   1      39.216  32.698  34.583  1.00  0.00     0.074 A 
ATOM    122  C   UNL A   1      38.188  33.715  34.578  1.00  0.00    -0.034 C 
ATOM    123  H   UNL A   1      36.575  34.147  33.254  1.00  0.00     0.065 H 
ATOM    124  C   UNL A   1      38.536  29.946  28.810  1.00  0.00    -0.036 A 
ATOM    125  H   UNL A   1      36.986  31.381  28.718  1.00  0.00     0.065 H 
ATOM    126  C   UNL A   1      39.524  29.626  29.837  1.00  0.00     0.049 A 
ATOM    127  H   UNL A   1      39.710  30.482  31.726  1.00  0.00     0.167 HD
ATOM    128  C   UNL A   1      40.059  32.470  35.617  1.00  0.00     0.037 A 
ATOM    129  H   UNL A   1      38.065  34.425  35.317  1.00  0.00     0.065 H 
ATOM    130  H   UNL A   1      38.455  29.482  27.891  1.00  0.00     0.065 H 
ATOM    131  C   UNL A   1      40.497  28.702  29.723  1.00  0.00     0.037 A 
ATOM    132  C   UNL A   1      41.067  31.442  35.626  1.00  0.00     0.049 A 
ATOM    133  C   UNL A   1      41.433  28.479  30.881  1.00  0.00     0.074 A 
ATOM    134  C   UNL A   1      41.935  31.091  36.644  1.00  0.00    -0.036 A 
ATOM    135  N   UNL A   1      41.344  30.600  34.557  1.00  0.00    -0.354 N 
ATOM    136  N   UNL A   1      41.461  29.073  32.049  1.00  0.00    -0.248 NA
ATOM    137  C   UNL A   1      42.470  27.453  30.707  1.00  0.00    -0.034 C 
ATOM    138  C   UNL A   1      42.776  30.079  36.173  1.00  0.00    -0.036 A 
ATOM    139  H   UNL A   1      41.956  31.506  37.590  1.00  0.00     0.065 H 
ATOM    140  C   UNL A   1      42.390  29.751  34.884  1.00  0.00     0.049 A 
ATOM    141  H   UNL A   1      40.868  30.606  33.696  1.00  0.00     0.167 HD
ATOM    142  C   UNL A   1      42.492  28.473  32.760  1.00  0.00     0.074 A 
ATOM    143  C   UNL A   1      43.055  27.456  31.896  1.00  0.00    -0.034 C 
ATOM    144  H   UNL A   1      42.686  26.880  29.877  1.00  0.00     0.065 H 
ATOM    145  H   UNL A   1      43.554  29.649  36.698  1.00  0.00     0.065 H 
ATOM    146  C   UNL A   1      42.933  28.738  34.014  1.00  0.00     0.037 A 
ATOM    147  H   UNL A   1      43.816  26.815  32.172  1.00  0.00     0.065 H 
BRANCH 128 148
ATOM    148  C   UNL A   1      39.929  33.350  36.829  1.00  0.00     0.064 A 
ATOM    149  C   UNL A   1      40.701  34.511  36.987  1.00  0.00     0.173 A 
ATOM    150  C   UNL A   1      38.993  33.048  37.831  1.00  0.00     0.173 A 
ATOM    151  F   UNL A   1      41.619  34.842  36.066  1.00  0.00    -0.203 F 
ATOM    152  C   UNL A   1      40.568  35.316  38.116  1.00  0.00     0.198 A 
ATOM    153  C   UNL A   1      38.837  33.875  38.942  1.00  0.00     0.198 A 
ATOM    154  F   UNL A   1      38.222  31.954  37.731  1.00  0.00    -0.203 F 
ATOM    155  F   UNL A   1      41.359  36.387  38.270  1.00  0.00    -0.200 F 
ATOM    156  C   UNL A   1      39.631  35.001  39.088  1.00  0.00     0.200 A 
ATOM    157  F   UNL A   1      37.920  33.577  39.872  1.00  0.00    -0.200 F 
ATOM    158  F   UNL A   1      39.498  35.781  40.170  1.00  0.00    -0.200 F 
ENDBRANCH 128 148
BRANCH 131 159
ATOM    159  C   UNL A   1      40.626  27.902  28.474  1.00  0.00     0.064 A 
ATOM    160  C   UNL A   1      39.979  26.666  28.338  1.00  0.00     0.173 A 
ATOM    161  C   UNL A   1      41.406  28.351  27.397  1.00  0.00     0.173 A 
ATOM    162  F   UNL A   1      39.238  26.184  29.346  1.00  0.00    -0.203 F 
ATOM    163  C   UNL A   1      40.127  25.898  27.184  1.00  0.00     0.198 A 
ATOM    164  C   UNL A   1      41.526  27.597  26.231  1.00  0.00     0.198 A 
ATOM    165  F   UNL A   1      42.042  29.529  27.472  1.00  0.00    -0.203 F 
ATOM    166  F   UNL A   1      39.541  24.696  27.104  1.00  0.00    -0.200 F 
ATOM    167  C   UNL A   1      40.895  26.366  26.130  1.00  0.00     0.200 A 
ATOM    168  F   UNL A   1      42.256  28.062  25.209  1.00  0.00    -0.200 F 
ATOM    169  F   UNL A   1      41.034  25.629  25.019  1.00  0.00    -0.200 F 
ENDBRANCH 131 159
BRANCH 146 170
ATOM    170  C   UNL A   1      44.055  27.892  34.546  1.00  0.00     0.064 A 
ATOM    171  C   UNL A   1      45.396  28.285  34.435  1.00  0.00     0.173 A 
ATOM    172  C   UNL A   1      43.777  26.688  35.212  1.00  0.00     0.173 A 
ATOM    173  F   UNL A   1      45.716  29.420  33.795  1.00  0.00    -0.203 F 
ATOM    174  C   UNL A   1      46.420  27.491  34.944  1.00  0.00     0.198 A 
ATOM    175  C   UNL A   1      44.800  25.914  35.753  1.00  0.00     0.198 A 
ATOM    176  F   UNL A   1      42.511  26.269  35.355  1.00  0.00    -0.203 F 
ATOM    177  F   UNL A   1      47.698  27.860  34.779  1.00  0.00    -0.200 F 
ATOM    178  C   UNL A   1      46.121  26.312  35.610  1.00  0.00     0.200 A 
ATOM    179  F   UNL A   1      44.508  24.784  36.411  1.00  0.00    -0.200 F 
ATOM    180  F   UNL A   1      47.107  25.553  36.109  1.00  0.00    -0.200 F 
ENDBRANCH 146 170
ENDBRANCH 111 114
ENDBRANCH 101 104
ENDBRANCH  97 100
ENDBRANCH  94  97
ENDBRANCH   1  94
TORSDOF 21
ENDMDL
MODEL 7
REMARK VINA RESULT:     -12.0      0.930      6.764
REMARK SMILES C[C@H]1[C@H](C)CC[C@@]2(C(=O)NCCCCCCNC(=O)c3ccc(-c4c5nc(c(-c6c(F)c(F)c(F)c(F)c6F)c6ccc([nH]6)c(-c6c(F)c(F)c(F)c(F)c6F)c6nc(c(-c7c(F)c(F)c(F)c(F)c7F)c7ccc4[nH]7)C=C6)C=C5)cc3)CC[C@@]3(C)C(=CC[C@@H]4[C@@]5(C)CC[C@H](O)C(C)(C)[C@@H]5CC[C@]43C)[C@H]12
REMARK SMILES IDX 14 1 13 4 12 7 11 10 10 13 8 14 9 15 7 17 2 18 3 19 105 20
REMARK SMILES IDX 5 22 87 24 6 26 83 29 85 30 88 31 84 34 103 37 89 38 90 42
REMARK SMILES IDX 102 43 91 46 101 48 93 51 100 52 94 55 97 58 95 60 1 64 4 68
REMARK SMILES IDX 86 72 104 76 92 80 98 84 99 88 96 92 15 94 16 97 17 100
REMARK SMILES IDX 18 101 19 103 20 104 21 105 82 106 22 107 81 109 23 111
REMARK SMILES IDX 24 114 25 115 75 116 26 117 80 118 74 119 76 120 27 121
REMARK SMILES IDX 79 122 73 124 72 126 28 128 60 131 40 132 59 133 41 134
REMARK SMILES IDX 44 135 58 136 77 137 42 138 43 140 57 142 78 143 45 146
REMARK SMILES IDX 29 148 30 149 38 150 31 151 32 152 36 153 39 154 33 155
REMARK SMILES IDX 34 156 37 157 35 158 61 159 62 160 70 161 63 162 64 163
REMARK SMILES IDX 68 164 71 165 65 166 66 167 69 168 67 169 46 170 47 171
REMARK SMILES IDX 55 172 48 173 49 174 53 175 56 176 50 177 51 178 54 179
REMARK SMILES IDX 52 180
REMARK H PARENT 14 2 14 3 13 5 13 6 12 8 12 9 11 11 11 12 10 16 2 21 3 23
REMARK H PARENT 105 25 5 27 5 28 6 32 6 33 83 35 83 36 88 39 84 40 84 41 89 44
REMARK H PARENT 89 45 90 47 102 49 102 50 101 53 101 54 93 56 93 57 100 59
REMARK H PARENT 94 61 94 62 95 63 1 65 1 66 1 67 4 69 4 70 4 71 86 73 86 74
REMARK H PARENT 86 75 104 77 104 78 104 79 92 81 92 82 92 83 98 85 98 86 98 87
REMARK H PARENT 99 89 99 90 99 91 96 93 15 95 15 96 16 98 16 99 17 102 21 108
REMARK H PARENT 82 110 22 112 81 113 80 123 74 125 76 127 79 129 73 130 41 139
REMARK H PARENT 44 141 77 144 42 145 78 147
REMARK Flexibility Score: inf
ROOT
ATOM      1  C   UNL A   1      39.668  22.320  26.161  1.00  0.00    -0.052 C 
ATOM      2  H   UNL A   1      40.630  22.676  26.462  1.00  0.00     0.027 H 
ATOM      3  H   UNL A   1      39.471  22.326  25.108  1.00  0.00     0.027 H 
ENDROOT
BRANCH   1   4
ATOM      4  C   UNL A   1      38.627  23.285  26.741  1.00  0.00    -0.052 C 
ATOM      5  H   UNL A   1      37.993  22.708  27.381  1.00  0.00     0.027 H 
ATOM      6  H   UNL A   1      39.223  24.046  27.200  1.00  0.00     0.027 H 
BRANCH   4   7
ATOM      7  C   UNL A   1      37.708  24.074  25.796  1.00  0.00    -0.036 C 
ATOM      8  H   UNL A   1      37.983  25.105  25.878  1.00  0.00     0.028 H 
ATOM      9  H   UNL A   1      37.863  23.617  24.841  1.00  0.00     0.028 H 
BRANCH   7  10
ATOM     10  C   UNL A   1      36.192  23.995  26.004  1.00  0.00     0.017 C 
ATOM     11  H   UNL A   1      35.898  24.819  26.620  1.00  0.00     0.049 H 
ATOM     12  H   UNL A   1      35.755  24.016  25.028  1.00  0.00     0.049 H 
BRANCH  10  13
ATOM     13  N   UNL A   1      35.722  22.773  26.634  1.00  0.00    -0.356 N 
ATOM     14  C   UNL A   1      34.965  21.742  26.136  1.00  0.00     0.226 C 
ATOM     15  O   UNL A   1      34.124  21.308  26.934  1.00  0.00    -0.274 OA
ATOM     16  H   UNL A   1      35.991  22.667  27.575  1.00  0.00     0.163 HD
BRANCH  14  17
ATOM     17  C   UNL A   1      35.156  21.068  24.721  1.00  0.00     0.056 C 
ATOM     18  C   UNL A   1      33.434  19.136  24.776  1.00  0.00    -0.034 C 
ATOM     19  C   UNL A   1      34.597  18.110  24.560  1.00  0.00    -0.041 C 
ATOM     20  C   UNL A   1      33.819  20.508  24.149  1.00  0.00    -0.002 C 
ATOM     21  H   UNL A   1      33.291  19.270  25.828  1.00  0.00     0.031 H 
ATOM     22  C   UNL A   1      35.996  18.608  24.967  1.00  0.00    -0.049 C 
ATOM     23  H   UNL A   1      34.535  17.983  23.499  1.00  0.00     0.030 H 
ATOM     24  C   UNL A   1      32.847  21.711  24.174  1.00  0.00    -0.063 C 
ATOM     25  H   UNL A   1      33.842  20.176  23.131  1.00  0.00     0.036 H 
ATOM     26  C   UNL A   1      36.318  20.064  24.733  1.00  0.00    -0.038 C 
ATOM     27  H   UNL A   1      36.713  18.030  24.423  1.00  0.00     0.027 H 
ATOM     28  H   UNL A   1      36.026  18.493  26.031  1.00  0.00     0.027 H 
ATOM     29  C   UNL A   1      35.632  22.157  23.682  1.00  0.00    -0.037 C 
ATOM     30  C   UNL A   1      33.135  22.828  23.124  1.00  0.00    -0.006 C 
ATOM     31  C   UNL A   1      32.024  21.921  25.223  1.00  0.00    -0.084 C 
ATOM     32  H   UNL A   1      36.807  20.132  23.783  1.00  0.00     0.028 H 
ATOM     33  H   UNL A   1      36.906  20.347  25.581  1.00  0.00     0.028 H 
ATOM     34  C   UNL A   1      34.637  23.245  23.271  1.00  0.00    -0.043 C 
ATOM     35  H   UNL A   1      35.922  21.640  22.790  1.00  0.00     0.028 H 
ATOM     36  H   UNL A   1      36.411  22.687  24.188  1.00  0.00     0.028 H 
ATOM     37  C   UNL A   1      32.175  24.129  23.340  1.00  0.00    -0.020 C 
ATOM     38  C   UNL A   1      31.505  23.280  25.624  1.00  0.00    -0.031 C 
ATOM     39  H   UNL A   1      31.733  21.105  25.784  1.00  0.00     0.058 H 
ATOM     40  H   UNL A   1      34.957  23.633  22.326  1.00  0.00     0.028 H 
ATOM     41  H   UNL A   1      34.649  23.947  24.079  1.00  0.00     0.028 H 
ATOM     42  C   UNL A   1      32.233  24.434  24.881  1.00  0.00    -0.026 C 
ATOM     43  C   UNL A   1      32.633  25.347  22.494  1.00  0.00    -0.046 C 
ATOM     44  H   UNL A   1      31.649  23.406  26.677  1.00  0.00     0.031 H 
ATOM     45  H   UNL A   1      30.469  23.325  25.362  1.00  0.00     0.031 H 
ATOM     46  C   UNL A   1      31.943  25.906  25.396  1.00  0.00    -0.025 C 
ATOM     47  H   UNL A   1      33.270  24.447  25.146  1.00  0.00     0.032 H 
ATOM     48  C   UNL A   1      32.007  26.669  22.941  1.00  0.00    -0.049 C 
ATOM     49  H   UNL A   1      33.697  25.433  22.571  1.00  0.00     0.027 H 
ATOM     50  H   UNL A   1      32.313  25.171  21.488  1.00  0.00     0.027 H 
ATOM     51  C   UNL A   1      32.802  26.145  26.683  1.00  0.00    -0.045 C 
ATOM     52  C   UNL A   1      32.463  26.984  24.369  1.00  0.00    -0.028 C 
ATOM     53  H   UNL A   1      32.320  27.455  22.285  1.00  0.00     0.027 H 
ATOM     54  H   UNL A   1      30.940  26.591  22.913  1.00  0.00     0.027 H 
ATOM     55  C   UNL A   1      32.719  27.569  27.234  1.00  0.00    -0.026 C 
ATOM     56  H   UNL A   1      33.824  25.934  26.450  1.00  0.00     0.027 H 
ATOM     57  H   UNL A   1      32.409  25.498  27.440  1.00  0.00     0.027 H 
ATOM     58  C   UNL A   1      32.301  28.488  24.816  1.00  0.00    -0.006 C 
ATOM     59  H   UNL A   1      33.529  26.889  24.367  1.00  0.00     0.031 H 
ATOM     60  C   UNL A   1      33.010  28.657  26.197  1.00  0.00     0.059 C 
ATOM     61  H   UNL A   1      33.428  27.663  28.029  1.00  0.00     0.029 H 
ATOM     62  H   UNL A   1      31.710  27.715  27.561  1.00  0.00     0.029 H 
ATOM     63  H   UNL A   1      34.049  28.567  25.954  1.00  0.00     0.061 H 
BRANCH  18  64
ATOM     64  C   UNL A   1      32.101  18.611  24.219  1.00  0.00    -0.062 C 
ATOM     65  H   UNL A   1      31.792  19.224  23.398  1.00  0.00     0.023 H 
ATOM     66  H   UNL A   1      31.356  18.642  24.987  1.00  0.00     0.023 H 
ATOM     67  H   UNL A   1      32.226  17.602  23.883  1.00  0.00     0.023 H 
ENDBRANCH  18  64
BRANCH  19  68
ATOM     68  C   UNL A   1      34.423  16.766  25.287  1.00  0.00    -0.062 C 
ATOM     69  H   UNL A   1      33.411  16.433  25.184  1.00  0.00     0.023 H 
ATOM     70  H   UNL A   1      34.653  16.888  26.325  1.00  0.00     0.023 H 
ATOM     71  H   UNL A   1      35.082  16.041  24.858  1.00  0.00     0.023 H 
ENDBRANCH  19  68
BRANCH  30  72
ATOM     72  C   UNL A   1      32.931  22.260  21.694  1.00  0.00    -0.055 C 
ATOM     73  H   UNL A   1      33.842  21.811  21.357  1.00  0.00     0.024 H 
ATOM     74  H   UNL A   1      32.657  23.054  21.032  1.00  0.00     0.024 H 
ATOM     75  H   UNL A   1      32.155  21.525  21.711  1.00  0.00     0.024 H 
ENDBRANCH  30  72
BRANCH  37  76
ATOM     76  C   UNL A   1      30.717  23.828  22.873  1.00  0.00    -0.059 C 
ATOM     77  H   UNL A   1      30.638  23.994  21.818  1.00  0.00     0.024 H 
ATOM     78  H   UNL A   1      30.038  24.477  23.387  1.00  0.00     0.024 H 
ATOM     79  H   UNL A   1      30.474  22.810  23.093  1.00  0.00     0.024 H 
ENDBRANCH  37  76
BRANCH  46  80
ATOM     80  C   UNL A   1      30.456  26.037  25.769  1.00  0.00    -0.059 C 
ATOM     81  H   UNL A   1      30.370  26.294  26.804  1.00  0.00     0.024 H 
ATOM     82  H   UNL A   1      29.960  25.106  25.589  1.00  0.00     0.024 H 
ATOM     83  H   UNL A   1      30.005  26.803  25.173  1.00  0.00     0.024 H 
ENDBRANCH  46  80
BRANCH  58  84
ATOM     84  C   UNL A   1      30.842  28.994  24.833  1.00  0.00    -0.057 C 
ATOM     85  H   UNL A   1      30.780  29.918  24.298  1.00  0.00     0.024 H 
ATOM     86  H   UNL A   1      30.528  29.145  25.845  1.00  0.00     0.024 H 
ATOM     87  H   UNL A   1      30.208  28.268  24.368  1.00  0.00     0.024 H 
ENDBRANCH  58  84
BRANCH  58  88
ATOM     88  C   UNL A   1      33.036  29.430  23.818  1.00  0.00    -0.057 C 
ATOM     89  H   UNL A   1      33.533  28.843  23.074  1.00  0.00     0.024 H 
ATOM     90  H   UNL A   1      33.755  30.018  24.347  1.00  0.00     0.024 H 
ATOM     91  H   UNL A   1      32.325  30.075  23.346  1.00  0.00     0.024 H 
ENDBRANCH  58  88
BRANCH  60  92
ATOM     92  O   UNL A   1      32.724  29.932  26.775  1.00  0.00    -0.393 OA
ATOM     93  H   UNL A   1      31.774  29.999  26.953  1.00  0.00     0.210 HD
ENDBRANCH  60  92
ENDBRANCH  14  17
ENDBRANCH  10  13
ENDBRANCH   7  10
ENDBRANCH   4   7
ENDBRANCH   1   4
BRANCH   1  94
ATOM     94  C   UNL A   1      39.589  20.846  26.547  1.00  0.00    -0.036 C 
ATOM     95  H   UNL A   1      38.601  20.669  26.917  1.00  0.00     0.028 H 
ATOM     96  H   UNL A   1      40.381  20.714  27.255  1.00  0.00     0.028 H 
BRANCH  94  97
ATOM     97  C   UNL A   1      39.863  19.810  25.471  1.00  0.00     0.018 C 
ATOM     98  H   UNL A   1      40.205  20.319  24.594  1.00  0.00     0.049 H 
ATOM     99  H   UNL A   1      38.945  19.282  25.313  1.00  0.00     0.049 H 
BRANCH  97 100
ATOM    100  N   UNL A   1      40.854  18.820  25.838  1.00  0.00    -0.352 N 
ATOM    101  C   UNL A   1      42.129  19.005  26.325  1.00  0.00     0.251 C 
ATOM    102  H   UNL A   1      40.578  17.882  25.722  1.00  0.00     0.163 HD
ATOM    103  O   UNL A   1      42.859  18.042  26.511  1.00  0.00    -0.269 OA
BRANCH 101 104
ATOM    104  C   UNL A   1      42.639  20.375  26.586  1.00  0.00     0.039 A 
ATOM    105  C   UNL A   1      43.121  21.123  25.508  1.00  0.00    -0.049 A 
ATOM    106  C   UNL A   1      42.650  20.923  27.872  1.00  0.00    -0.049 A 
ATOM    107  C   UNL A   1      43.557  22.436  25.710  1.00  0.00    -0.053 A 
ATOM    108  H   UNL A   1      43.155  20.706  24.565  1.00  0.00     0.063 H 
ATOM    109  C   UNL A   1      43.001  22.260  28.056  1.00  0.00    -0.053 A 
ATOM    110  H   UNL A   1      42.399  20.339  28.684  1.00  0.00     0.063 H 
ATOM    111  C   UNL A   1      43.470  23.027  26.980  1.00  0.00    -0.014 A 
ATOM    112  H   UNL A   1      43.947  22.973  24.919  1.00  0.00     0.063 H 
ATOM    113  H   UNL A   1      42.915  22.687  28.992  1.00  0.00     0.063 H 
BRANCH 111 114
ATOM    114  C   UNL A   1      43.884  24.438  27.200  1.00  0.00     0.031 A 
ATOM    115  C   UNL A   1      42.879  25.456  27.669  1.00  0.00     0.074 A 
ATOM    116  C   UNL A   1      45.151  24.814  26.936  1.00  0.00     0.049 A 
ATOM    117  N   UNL A   1      43.033  26.739  27.877  1.00  0.00    -0.248 NA
ATOM    118  C   UNL A   1      41.511  24.971  27.912  1.00  0.00    -0.034 C 
ATOM    119  C   UNL A   1      46.207  23.933  26.433  1.00  0.00    -0.036 A 
ATOM    120  N   UNL A   1      45.767  26.036  27.048  1.00  0.00    -0.354 N 
ATOM    121  C   UNL A   1      41.784  27.213  28.260  1.00  0.00     0.074 A 
ATOM    122  C   UNL A   1      40.870  26.095  28.194  1.00  0.00    -0.034 C 
ATOM    123  H   UNL A   1      41.146  24.007  27.871  1.00  0.00     0.065 H 
ATOM    124  C   UNL A   1      47.344  24.635  26.309  1.00  0.00    -0.036 A 
ATOM    125  H   UNL A   1      46.094  22.932  26.210  1.00  0.00     0.065 H 
ATOM    126  C   UNL A   1      47.091  26.024  26.682  1.00  0.00     0.049 A 
ATOM    127  H   UNL A   1      45.303  26.846  27.363  1.00  0.00     0.167 HD
ATOM    128  C   UNL A   1      41.438  28.461  28.657  1.00  0.00     0.037 A 
ATOM    129  H   UNL A   1      39.852  26.163  28.347  1.00  0.00     0.065 H 
ATOM    130  H   UNL A   1      48.252  24.254  26.000  1.00  0.00     0.065 H 
ATOM    131  C   UNL A   1      47.996  27.020  26.644  1.00  0.00     0.037 A 
ATOM    132  C   UNL A   1      42.357  29.566  28.741  1.00  0.00     0.049 A 
ATOM    133  C   UNL A   1      47.581  28.402  27.073  1.00  0.00     0.074 A 
ATOM    134  C   UNL A   1      42.120  30.854  29.184  1.00  0.00    -0.036 A 
ATOM    135  N   UNL A   1      43.693  29.511  28.367  1.00  0.00    -0.354 N 
ATOM    136  N   UNL A   1      46.415  28.821  27.502  1.00  0.00    -0.248 NA
ATOM    137  C   UNL A   1      48.610  29.450  27.021  1.00  0.00    -0.034 C 
ATOM    138  C   UNL A   1      43.295  31.595  29.023  1.00  0.00    -0.036 A 
ATOM    139  H   UNL A   1      41.229  31.207  29.568  1.00  0.00     0.065 H 
ATOM    140  C   UNL A   1      44.283  30.752  28.543  1.00  0.00     0.049 A 
ATOM    141  H   UNL A   1      44.152  28.709  28.028  1.00  0.00     0.167 HD
ATOM    142  C   UNL A   1      46.577  30.167  27.801  1.00  0.00     0.074 A 
ATOM    143  C   UNL A   1      47.961  30.491  27.519  1.00  0.00    -0.034 C 
ATOM    144  H   UNL A   1      49.584  29.389  26.685  1.00  0.00     0.065 H 
ATOM    145  H   UNL A   1      43.406  32.600  29.228  1.00  0.00     0.065 H 
ATOM    146  C   UNL A   1      45.665  31.056  28.265  1.00  0.00     0.037 A 
ATOM    147  H   UNL A   1      48.386  31.417  27.686  1.00  0.00     0.065 H 
BRANCH 128 148
ATOM    148  C   UNL A   1      40.002  28.698  29.032  1.00  0.00     0.064 A 
ATOM    149  C   UNL A   1      39.537  28.503  30.342  1.00  0.00     0.173 A 
ATOM    150  C   UNL A   1      39.084  29.161  28.076  1.00  0.00     0.173 A 
ATOM    151  F   UNL A   1      40.369  28.052  31.293  1.00  0.00    -0.203 F 
ATOM    152  C   UNL A   1      38.203  28.728  30.673  1.00  0.00     0.198 A 
ATOM    153  C   UNL A   1      37.758  29.419  28.419  1.00  0.00     0.198 A 
ATOM    154  F   UNL A   1      39.473  29.371  26.809  1.00  0.00    -0.203 F 
ATOM    155  F   UNL A   1      37.771  28.479  31.917  1.00  0.00    -0.200 F 
ATOM    156  C   UNL A   1      37.317  29.192  29.713  1.00  0.00     0.200 A 
ATOM    157  F   UNL A   1      36.907  29.882  27.493  1.00  0.00    -0.200 F 
ATOM    158  F   UNL A   1      36.035  29.416  30.034  1.00  0.00    -0.200 F 
ENDBRANCH 128 148
BRANCH 131 159
ATOM    159  C   UNL A   1      49.390  26.747  26.199  1.00  0.00     0.064 A 
ATOM    160  C   UNL A   1      49.776  26.950  24.867  1.00  0.00     0.173 A 
ATOM    161  C   UNL A   1      50.361  26.268  27.092  1.00  0.00     0.173 A 
ATOM    162  F   UNL A   1      48.881  27.388  23.970  1.00  0.00    -0.203 F 
ATOM    163  C   UNL A   1      51.071  26.661  24.439  1.00  0.00     0.198 A 
ATOM    164  C   UNL A   1      51.664  26.011  26.670  1.00  0.00     0.198 A 
ATOM    165  F   UNL A   1      50.047  26.061  28.379  1.00  0.00    -0.203 F 
ATOM    166  F   UNL A   1      51.396  26.813  23.148  1.00  0.00    -0.200 F 
ATOM    167  C   UNL A   1      52.015  26.197  25.341  1.00  0.00     0.200 A 
ATOM    168  F   UNL A   1      52.577  25.578  27.550  1.00  0.00    -0.200 F 
ATOM    169  F   UNL A   1      53.261  25.923  24.931  1.00  0.00    -0.200 F 
ENDBRANCH 131 159
BRANCH 146 170
ATOM    170  C   UNL A   1      46.139  32.454  28.538  1.00  0.00     0.064 A 
ATOM    171  C   UNL A   1      46.677  32.826  29.779  1.00  0.00     0.173 A 
ATOM    172  C   UNL A   1      46.091  33.427  27.527  1.00  0.00     0.173 A 
ATOM    173  F   UNL A   1      46.732  31.938  30.783  1.00  0.00    -0.203 F 
ATOM    174  C   UNL A   1      47.121  34.126  30.007  1.00  0.00     0.198 A 
ATOM    175  C   UNL A   1      46.570  34.716  27.746  1.00  0.00     0.198 A 
ATOM    176  F   UNL A   1      45.594  33.123  26.318  1.00  0.00    -0.203 F 
ATOM    177  F   UNL A   1      47.581  34.472  31.217  1.00  0.00    -0.200 F 
ATOM    178  C   UNL A   1      47.075  35.066  28.989  1.00  0.00     0.200 A 
ATOM    179  F   UNL A   1      46.541  35.618  26.756  1.00  0.00    -0.200 F 
ATOM    180  F   UNL A   1      47.513  36.314  29.207  1.00  0.00    -0.200 F 
ENDBRANCH 146 170
ENDBRANCH 111 114
ENDBRANCH 101 104
ENDBRANCH  97 100
ENDBRANCH  94  97
ENDBRANCH   1  94
TORSDOF 21
ENDMDL
MODEL 8
REMARK VINA RESULT:     -11.7      0.937      2.056
REMARK SMILES C[C@H]1[C@H](C)CC[C@@]2(C(=O)NCCCCCCNC(=O)c3ccc(-c4c5nc(c(-c6c(F)c(F)c(F)c(F)c6F)c6ccc([nH]6)c(-c6c(F)c(F)c(F)c(F)c6F)c6nc(c(-c7c(F)c(F)c(F)c(F)c7F)c7ccc4[nH]7)C=C6)C=C5)cc3)CC[C@@]3(C)C(=CC[C@@H]4[C@@]5(C)CC[C@H](O)C(C)(C)[C@@H]5CC[C@]43C)[C@H]12
REMARK SMILES IDX 14 1 13 4 12 7 11 10 10 13 8 14 9 15 7 17 2 18 3 19 105 20
REMARK SMILES IDX 5 22 87 24 6 26 83 29 85 30 88 31 84 34 103 37 89 38 90 42
REMARK SMILES IDX 102 43 91 46 101 48 93 51 100 52 94 55 97 58 95 60 1 64 4 68
REMARK SMILES IDX 86 72 104 76 92 80 98 84 99 88 96 92 15 94 16 97 17 100
REMARK SMILES IDX 18 101 19 103 20 104 21 105 82 106 22 107 81 109 23 111
REMARK SMILES IDX 24 114 25 115 75 116 26 117 80 118 74 119 76 120 27 121
REMARK SMILES IDX 79 122 73 124 72 126 28 128 60 131 40 132 59 133 41 134
REMARK SMILES IDX 44 135 58 136 77 137 42 138 43 140 57 142 78 143 45 146
REMARK SMILES IDX 29 148 30 149 38 150 31 151 32 152 36 153 39 154 33 155
REMARK SMILES IDX 34 156 37 157 35 158 61 159 62 160 70 161 63 162 64 163
REMARK SMILES IDX 68 164 71 165 65 166 66 167 69 168 67 169 46 170 47 171
REMARK SMILES IDX 55 172 48 173 49 174 53 175 56 176 50 177 51 178 54 179
REMARK SMILES IDX 52 180
REMARK H PARENT 14 2 14 3 13 5 13 6 12 8 12 9 11 11 11 12 10 16 2 21 3 23
REMARK H PARENT 105 25 5 27 5 28 6 32 6 33 83 35 83 36 88 39 84 40 84 41 89 44
REMARK H PARENT 89 45 90 47 102 49 102 50 101 53 101 54 93 56 93 57 100 59
REMARK H PARENT 94 61 94 62 95 63 1 65 1 66 1 67 4 69 4 70 4 71 86 73 86 74
REMARK H PARENT 86 75 104 77 104 78 104 79 92 81 92 82 92 83 98 85 98 86 98 87
REMARK H PARENT 99 89 99 90 99 91 96 93 15 95 15 96 16 98 16 99 17 102 21 108
REMARK H PARENT 82 110 22 112 81 113 80 123 74 125 76 127 79 129 73 130 41 139
REMARK H PARENT 44 141 77 144 42 145 78 147
REMARK Flexibility Score: inf
ROOT
ATOM      1  C   UNL A   1      39.919  22.075  26.147  1.00  0.00    -0.052 C 
ATOM      2  H   UNL A   1      40.866  22.239  26.615  1.00  0.00     0.027 H 
ATOM      3  H   UNL A   1      39.840  22.378  25.122  1.00  0.00     0.027 H 
ENDROOT
BRANCH   1   4
ATOM      4  C   UNL A   1      38.896  22.953  26.876  1.00  0.00    -0.052 C 
ATOM      5  H   UNL A   1      38.136  22.299  27.250  1.00  0.00     0.027 H 
ATOM      6  H   UNL A   1      39.488  23.478  27.597  1.00  0.00     0.027 H 
BRANCH   4   7
ATOM      7  C   UNL A   1      38.179  24.080  26.117  1.00  0.00    -0.036 C 
ATOM      8  H   UNL A   1      38.325  24.980  26.678  1.00  0.00     0.028 H 
ATOM      9  H   UNL A   1      38.615  24.054  25.141  1.00  0.00     0.028 H 
BRANCH   7  10
ATOM     10  C   UNL A   1      36.674  23.953  25.855  1.00  0.00     0.017 C 
ATOM     11  H   UNL A   1      36.201  24.850  26.196  1.00  0.00     0.049 H 
ATOM     12  H   UNL A   1      36.567  23.789  24.803  1.00  0.00     0.049 H 
BRANCH  10  13
ATOM     13  N   UNL A   1      36.030  22.828  26.510  1.00  0.00    -0.356 N 
ATOM     14  C   UNL A   1      35.142  21.899  26.028  1.00  0.00     0.226 C 
ATOM     15  O   UNL A   1      34.239  21.609  26.824  1.00  0.00    -0.274 OA
ATOM     16  H   UNL A   1      36.271  22.712  27.457  1.00  0.00     0.163 HD
BRANCH  14  17
ATOM     17  C   UNL A   1      35.253  21.165  24.634  1.00  0.00     0.056 C 
ATOM     18  C   UNL A   1      33.518  19.256  24.859  1.00  0.00    -0.034 C 
ATOM     19  C   UNL A   1      34.659  18.209  24.626  1.00  0.00    -0.041 C 
ATOM     20  C   UNL A   1      33.883  20.596  24.156  1.00  0.00    -0.002 C 
ATOM     21  H   UNL A   1      33.431  19.435  25.910  1.00  0.00     0.031 H 
ATOM     22  C   UNL A   1      36.082  18.707  24.940  1.00  0.00    -0.049 C 
ATOM     23  H   UNL A   1      34.540  18.039  23.576  1.00  0.00     0.030 H 
ATOM     24  C   UNL A   1      32.925  21.811  24.180  1.00  0.00    -0.063 C 
ATOM     25  H   UNL A   1      33.850  20.223  23.153  1.00  0.00     0.036 H 
ATOM     26  C   UNL A   1      36.405  20.149  24.629  1.00  0.00    -0.038 C 
ATOM     27  H   UNL A   1      36.764  18.099  24.384  1.00  0.00     0.027 H 
ATOM     28  H   UNL A   1      36.165  18.636  26.005  1.00  0.00     0.027 H 
ATOM     29  C   UNL A   1      35.684  22.204  23.527  1.00  0.00    -0.037 C 
ATOM     30  C   UNL A   1      33.168  22.880  23.072  1.00  0.00    -0.006 C 
ATOM     31  C   UNL A   1      32.160  22.073  25.261  1.00  0.00    -0.084 C 
ATOM     32  H   UNL A   1      36.844  20.171  23.653  1.00  0.00     0.028 H 
ATOM     33  H   UNL A   1      37.039  20.460  25.433  1.00  0.00     0.028 H 
ATOM     34  C   UNL A   1      34.679  23.286  23.123  1.00  0.00    -0.043 C 
ATOM     35  H   UNL A   1      35.923  21.648  22.645  1.00  0.00     0.028 H 
ATOM     36  H   UNL A   1      36.494  22.745  23.971  1.00  0.00     0.028 H 
ATOM     37  C   UNL A   1      32.233  24.199  23.281  1.00  0.00    -0.020 C 
ATOM     38  C   UNL A   1      31.675  23.454  25.631  1.00  0.00    -0.031 C 
ATOM     39  H   UNL A   1      31.891  21.284  25.870  1.00  0.00     0.058 H 
ATOM     40  H   UNL A   1      34.954  23.631  22.148  1.00  0.00     0.028 H 
ATOM     41  H   UNL A   1      34.740  24.020  23.900  1.00  0.00     0.028 H 
ATOM     42  C   UNL A   1      32.374  24.567  24.804  1.00  0.00    -0.026 C 
ATOM     43  C   UNL A   1      32.658  25.377  22.363  1.00  0.00    -0.046 C 
ATOM     44  H   UNL A   1      31.874  23.621  26.669  1.00  0.00     0.031 H 
ATOM     45  H   UNL A   1      30.627  23.500  25.421  1.00  0.00     0.031 H 
ATOM     46  C   UNL A   1      32.125  26.063  25.270  1.00  0.00    -0.025 C 
ATOM     47  H   UNL A   1      33.423  24.579  25.014  1.00  0.00     0.032 H 
ATOM     48  C   UNL A   1      32.068  26.723  22.786  1.00  0.00    -0.049 C 
ATOM     49  H   UNL A   1      33.725  25.454  22.381  1.00  0.00     0.027 H 
ATOM     50  H   UNL A   1      32.284  25.163  21.383  1.00  0.00     0.027 H 
ATOM     51  C   UNL A   1      33.051  26.345  26.501  1.00  0.00    -0.045 C 
ATOM     52  C   UNL A   1      32.601  27.091  24.175  1.00  0.00    -0.028 C 
ATOM     53  H   UNL A   1      32.354  27.477  22.082  1.00  0.00     0.027 H 
ATOM     54  H   UNL A   1      31.001  26.656  22.816  1.00  0.00     0.027 H 
ATOM     55  C   UNL A   1      33.010  27.791  26.996  1.00  0.00    -0.026 C 
ATOM     56  H   UNL A   1      34.058  26.113  26.224  1.00  0.00     0.027 H 
ATOM     57  H   UNL A   1      32.692  25.734  27.304  1.00  0.00     0.027 H 
ATOM     58  C   UNL A   1      32.476  28.614  24.566  1.00  0.00    -0.006 C 
ATOM     59  H   UNL A   1      33.664  26.985  24.122  1.00  0.00     0.031 H 
ATOM     60  C   UNL A   1      33.257  28.832  25.900  1.00  0.00     0.059 C 
ATOM     61  H   UNL A   1      33.761  27.910  27.748  1.00  0.00     0.029 H 
ATOM     62  H   UNL A   1      32.021  27.962  27.367  1.00  0.00     0.029 H 
ATOM     63  H   UNL A   1      34.281  28.720  25.608  1.00  0.00     0.061 H 
BRANCH  18  64
ATOM     64  C   UNL A   1      32.153  18.725  24.393  1.00  0.00    -0.062 C 
ATOM     65  H   UNL A   1      31.814  17.970  25.072  1.00  0.00     0.023 H 
ATOM     66  H   UNL A   1      32.248  18.306  23.413  1.00  0.00     0.023 H 
ATOM     67  H   UNL A   1      31.446  19.528  24.371  1.00  0.00     0.023 H 
ENDBRANCH  18  64
BRANCH  19  68
ATOM     68  C   UNL A   1      34.510  16.898  25.417  1.00  0.00    -0.062 C 
ATOM     69  H   UNL A   1      33.897  17.068  26.277  1.00  0.00     0.023 H 
ATOM     70  H   UNL A   1      35.475  16.558  25.730  1.00  0.00     0.023 H 
ATOM     71  H   UNL A   1      34.055  16.157  24.795  1.00  0.00     0.023 H 
ENDBRANCH  19  68
BRANCH  30  72
ATOM     72  C   UNL A   1      32.885  22.256  21.679  1.00  0.00    -0.055 C 
ATOM     73  H   UNL A   1      33.665  22.534  21.000  1.00  0.00     0.024 H 
ATOM     74  H   UNL A   1      31.947  22.614  21.312  1.00  0.00     0.024 H 
ATOM     75  H   UNL A   1      32.852  21.191  21.767  1.00  0.00     0.024 H 
ENDBRANCH  30  72
BRANCH  37  76
ATOM     76  C   UNL A   1      30.750  23.897  22.903  1.00  0.00    -0.059 C 
ATOM     77  H   UNL A   1      30.238  24.816  22.703  1.00  0.00     0.024 H 
ATOM     78  H   UNL A   1      30.271  23.392  23.717  1.00  0.00     0.024 H 
ATOM     79  H   UNL A   1      30.723  23.276  22.033  1.00  0.00     0.024 H 
ENDBRANCH  37  76
BRANCH  46  80
ATOM     80  C   UNL A   1      30.660  26.226  25.714  1.00  0.00    -0.059 C 
ATOM     81  H   UNL A   1      30.456  25.557  26.523  1.00  0.00     0.024 H 
ATOM     82  H   UNL A   1      30.012  26.002  24.893  1.00  0.00     0.024 H 
ATOM     83  H   UNL A   1      30.495  27.234  26.035  1.00  0.00     0.024 H 
ENDBRANCH  46  80
BRANCH  58  84
ATOM     84  C   UNL A   1      31.025  29.137  24.637  1.00  0.00    -0.057 C 
ATOM     85  H   UNL A   1      30.925  29.797  25.473  1.00  0.00     0.024 H 
ATOM     86  H   UNL A   1      30.353  28.312  24.751  1.00  0.00     0.024 H 
ATOM     87  H   UNL A   1      30.792  29.665  23.735  1.00  0.00     0.024 H 
ENDBRANCH  58  84
BRANCH  58  88
ATOM     88  C   UNL A   1      33.167  29.506  23.493  1.00  0.00    -0.057 C 
ATOM     89  H   UNL A   1      32.551  29.554  22.619  1.00  0.00     0.024 H 
ATOM     90  H   UNL A   1      34.116  29.084  23.236  1.00  0.00     0.024 H 
ATOM     91  H   UNL A   1      33.308  30.492  23.884  1.00  0.00     0.024 H 
ENDBRANCH  58  88
BRANCH  60  92
ATOM     92  O   UNL A   1      33.014  30.133  26.438  1.00  0.00    -0.393 OA
ATOM     93  H   UNL A   1      33.443  30.209  27.304  1.00  0.00     0.210 HD
ENDBRANCH  60  92
ENDBRANCH  14  17
ENDBRANCH  10  13
ENDBRANCH   7  10
ENDBRANCH   4   7
ENDBRANCH   1   4
BRANCH   1  94
ATOM     94  C   UNL A   1      39.688  20.567  26.109  1.00  0.00    -0.036 C 
ATOM     95  H   UNL A   1      39.719  20.268  25.082  1.00  0.00     0.028 H 
ATOM     96  H   UNL A   1      38.750  20.429  26.606  1.00  0.00     0.028 H 
BRANCH  94  97
ATOM     97  C   UNL A   1      40.656  19.677  26.869  1.00  0.00     0.018 C 
ATOM     98  H   UNL A   1      40.098  18.881  27.317  1.00  0.00     0.049 H 
ATOM     99  H   UNL A   1      41.143  20.299  27.591  1.00  0.00     0.049 H 
BRANCH  97 100
ATOM    100  N   UNL A   1      41.698  19.096  26.049  1.00  0.00    -0.352 N 
ATOM    101  C   UNL A   1      42.858  19.671  25.580  1.00  0.00     0.251 C 
ATOM    102  H   UNL A   1      41.558  18.156  25.791  1.00  0.00     0.163 HD
ATOM    103  O   UNL A   1      43.593  19.044  24.831  1.00  0.00    -0.269 OA
BRANCH 101 104
ATOM    104  C   UNL A   1      43.201  21.069  25.945  1.00  0.00     0.039 A 
ATOM    105  C   UNL A   1      43.267  22.027  24.929  1.00  0.00    -0.049 A 
ATOM    106  C   UNL A   1      43.460  21.441  27.268  1.00  0.00    -0.049 A 
ATOM    107  C   UNL A   1      43.533  23.362  25.245  1.00  0.00    -0.053 A 
ATOM    108  H   UNL A   1      43.119  21.747  23.947  1.00  0.00     0.063 H 
ATOM    109  C   UNL A   1      43.636  22.786  27.591  1.00  0.00    -0.053 A 
ATOM    110  H   UNL A   1      43.520  20.722  28.004  1.00  0.00     0.063 H 
ATOM    111  C   UNL A   1      43.687  23.759  26.582  1.00  0.00    -0.014 A 
ATOM    112  H   UNL A   1      43.617  24.059  24.489  1.00  0.00     0.063 H 
ATOM    113  H   UNL A   1      43.731  23.066  28.580  1.00  0.00     0.063 H 
BRANCH 111 114
ATOM    114  C   UNL A   1      43.922  25.184  26.938  1.00  0.00     0.031 A 
ATOM    115  C   UNL A   1      45.293  25.785  26.780  1.00  0.00     0.074 A 
ATOM    116  C   UNL A   1      42.916  25.924  27.444  1.00  0.00     0.049 A 
ATOM    117  N   UNL A   1      45.709  26.991  27.075  1.00  0.00    -0.248 NA
ATOM    118  C   UNL A   1      46.344  24.905  26.244  1.00  0.00    -0.034 C 
ATOM    119  C   UNL A   1      41.554  25.444  27.688  1.00  0.00    -0.036 A 
ATOM    120  N   UNL A   1      42.881  27.235  27.850  1.00  0.00    -0.354 N 
ATOM    121  C   UNL A   1      47.065  27.008  26.774  1.00  0.00     0.074 A 
ATOM    122  C   UNL A   1      47.416  25.677  26.334  1.00  0.00    -0.034 C 
ATOM    123  H   UNL A   1      46.265  23.939  25.891  1.00  0.00     0.065 H 
ATOM    124  C   UNL A   1      40.812  26.452  28.171  1.00  0.00    -0.036 A 
ATOM    125  H   UNL A   1      41.218  24.484  27.515  1.00  0.00     0.065 H 
ATOM    126  C   UNL A   1      41.652  27.638  28.313  1.00  0.00     0.049 A 
ATOM    127  H   UNL A   1      43.664  27.831  27.811  1.00  0.00     0.167 HD
ATOM    128  C   UNL A   1      47.932  28.047  26.832  1.00  0.00     0.037 A 
ATOM    129  H   UNL A   1      48.377  25.367  26.118  1.00  0.00     0.065 H 
ATOM    130  H   UNL A   1      39.808  26.398  28.406  1.00  0.00     0.065 H 
ATOM    131  C   UNL A   1      41.251  28.826  28.803  1.00  0.00     0.037 A 
ATOM    132  C   UNL A   1      47.572  29.377  27.250  1.00  0.00     0.049 A 
ATOM    133  C   UNL A   1      42.238  29.960  28.874  1.00  0.00     0.074 A 
ATOM    134  C   UNL A   1      48.360  30.512  27.291  1.00  0.00    -0.036 A 
ATOM    135  N   UNL A   1      46.314  29.747  27.706  1.00  0.00    -0.354 N 
ATOM    136  N   UNL A   1      43.500  29.983  28.518  1.00  0.00    -0.248 NA
ATOM    137  C   UNL A   1      41.745  31.237  29.408  1.00  0.00    -0.034 C 
ATOM    138  C   UNL A   1      47.598  31.555  27.827  1.00  0.00    -0.036 A 
ATOM    139  H   UNL A   1      49.343  30.578  26.979  1.00  0.00     0.065 H 
ATOM    140  C   UNL A   1      46.315  31.087  28.057  1.00  0.00     0.049 A 
ATOM    141  H   UNL A   1      45.537  29.146  27.769  1.00  0.00     0.167 HD
ATOM    142  C   UNL A   1      43.941  31.278  28.753  1.00  0.00     0.074 A 
ATOM    143  C   UNL A   1      42.806  32.017  29.267  1.00  0.00    -0.034 C 
ATOM    144  H   UNL A   1      40.815  31.466  29.792  1.00  0.00     0.065 H 
ATOM    145  H   UNL A   1      47.936  32.511  28.018  1.00  0.00     0.065 H 
ATOM    146  C   UNL A   1      45.174  31.810  28.560  1.00  0.00     0.037 A 
ATOM    147  H   UNL A   1      42.823  33.024  29.495  1.00  0.00     0.065 H 
BRANCH 128 148
ATOM    148  C   UNL A   1      49.358  27.787  26.432  1.00  0.00     0.064 A 
ATOM    149  C   UNL A   1      50.373  27.612  27.385  1.00  0.00     0.173 A 
ATOM    150  C   UNL A   1      49.708  27.676  25.077  1.00  0.00     0.173 A 
ATOM    151  F   UNL A   1      50.096  27.718  28.694  1.00  0.00    -0.203 F 
ATOM    152  C   UNL A   1      51.689  27.371  26.998  1.00  0.00     0.198 A 
ATOM    153  C   UNL A   1      51.019  27.400  24.695  1.00  0.00     0.198 A 
ATOM    154  F   UNL A   1      48.779  27.828  24.122  1.00  0.00    -0.203 F 
ATOM    155  F   UNL A   1      52.650  27.266  27.927  1.00  0.00    -0.200 F 
ATOM    156  C   UNL A   1      52.009  27.258  25.654  1.00  0.00     0.200 A 
ATOM    157  F   UNL A   1      51.324  27.276  23.396  1.00  0.00    -0.200 F 
ATOM    158  F   UNL A   1      53.275  27.019  25.284  1.00  0.00    -0.200 F 
ENDBRANCH 128 148
BRANCH 131 159
ATOM    159  C   UNL A   1      39.843  29.013  29.250  1.00  0.00     0.064 A 
ATOM    160  C   UNL A   1      39.476  28.806  30.587  1.00  0.00     0.173 A 
ATOM    161  C   UNL A   1      38.835  29.391  28.350  1.00  0.00     0.173 A 
ATOM    162  F   UNL A   1      40.398  28.425  31.483  1.00  0.00    -0.203 F 
ATOM    163  C   UNL A   1      38.153  28.945  31.002  1.00  0.00     0.198 A 
ATOM    164  C   UNL A   1      37.518  29.561  28.773  1.00  0.00     0.198 A 
ATOM    165  F   UNL A   1      39.131  29.607  27.060  1.00  0.00    -0.203 F 
ATOM    166  F   UNL A   1      37.822  28.688  32.275  1.00  0.00    -0.200 F 
ATOM    167  C   UNL A   1      37.176  29.327  30.096  1.00  0.00     0.200 A 
ATOM    168  F   UNL A   1      36.581  29.947  27.896  1.00  0.00    -0.200 F 
ATOM    169  F   UNL A   1      35.904  29.465  30.495  1.00  0.00    -0.200 F 
ENDBRANCH 131 159
BRANCH 146 170
ATOM    170  C   UNL A   1      45.353  33.269  28.869  1.00  0.00     0.064 A 
ATOM    171  C   UNL A   1      45.091  34.265  27.918  1.00  0.00     0.173 A 
ATOM    172  C   UNL A   1      45.755  33.676  30.151  1.00  0.00     0.173 A 
ATOM    173  F   UNL A   1      44.718  33.929  26.674  1.00  0.00    -0.203 F 
ATOM    174  C   UNL A   1      45.253  35.613  28.228  1.00  0.00     0.198 A 
ATOM    175  C   UNL A   1      45.881  35.025  30.469  1.00  0.00     0.198 A 
ATOM    176  F   UNL A   1      46.011  32.765  31.102  1.00  0.00    -0.203 F 
ATOM    177  F   UNL A   1      45.049  36.545  27.287  1.00  0.00    -0.200 F 
ATOM    178  C   UNL A   1      45.639  35.991  29.505  1.00  0.00     0.200 A 
ATOM    179  F   UNL A   1      46.237  35.390  31.709  1.00  0.00    -0.200 F 
ATOM    180  F   UNL A   1      45.784  37.290  29.806  1.00  0.00    -0.200 F 
ENDBRANCH 146 170
ENDBRANCH 111 114
ENDBRANCH 101 104
ENDBRANCH  97 100
ENDBRANCH  94  97
ENDBRANCH   1  94
TORSDOF 21
ENDMDL
MODEL 9
REMARK VINA RESULT:     -11.4      4.375      5.712
REMARK SMILES C[C@H]1[C@H](C)CC[C@@]2(C(=O)NCCCCCCNC(=O)c3ccc(-c4c5nc(c(-c6c(F)c(F)c(F)c(F)c6F)c6ccc([nH]6)c(-c6c(F)c(F)c(F)c(F)c6F)c6nc(c(-c7c(F)c(F)c(F)c(F)c7F)c7ccc4[nH]7)C=C6)C=C5)cc3)CC[C@@]3(C)C(=CC[C@@H]4[C@@]5(C)CC[C@H](O)C(C)(C)[C@@H]5CC[C@]43C)[C@H]12
REMARK SMILES IDX 14 1 13 4 12 7 11 10 10 13 8 14 9 15 7 17 2 18 3 19 105 20
REMARK SMILES IDX 5 22 87 24 6 26 83 29 85 30 88 31 84 34 103 37 89 38 90 42
REMARK SMILES IDX 102 43 91 46 101 48 93 51 100 52 94 55 97 58 95 60 1 64 4 68
REMARK SMILES IDX 86 72 104 76 92 80 98 84 99 88 96 92 15 94 16 97 17 100
REMARK SMILES IDX 18 101 19 103 20 104 21 105 82 106 22 107 81 109 23 111
REMARK SMILES IDX 24 114 25 115 75 116 26 117 80 118 74 119 76 120 27 121
REMARK SMILES IDX 79 122 73 124 72 126 28 128 60 131 40 132 59 133 41 134
REMARK SMILES IDX 44 135 58 136 77 137 42 138 43 140 57 142 78 143 45 146
REMARK SMILES IDX 29 148 30 149 38 150 31 151 32 152 36 153 39 154 33 155
REMARK SMILES IDX 34 156 37 157 35 158 61 159 62 160 70 161 63 162 64 163
REMARK SMILES IDX 68 164 71 165 65 166 66 167 69 168 67 169 46 170 47 171
REMARK SMILES IDX 55 172 48 173 49 174 53 175 56 176 50 177 51 178 54 179
REMARK SMILES IDX 52 180
REMARK H PARENT 14 2 14 3 13 5 13 6 12 8 12 9 11 11 11 12 10 16 2 21 3 23
REMARK H PARENT 105 25 5 27 5 28 6 32 6 33 83 35 83 36 88 39 84 40 84 41 89 44
REMARK H PARENT 89 45 90 47 102 49 102 50 101 53 101 54 93 56 93 57 100 59
REMARK H PARENT 94 61 94 62 95 63 1 65 1 66 1 67 4 69 4 70 4 71 86 73 86 74
REMARK H PARENT 86 75 104 77 104 78 104 79 92 81 92 82 92 83 98 85 98 86 98 87
REMARK H PARENT 99 89 99 90 99 91 96 93 15 95 15 96 16 98 16 99 17 102 21 108
REMARK H PARENT 82 110 22 112 81 113 80 123 74 125 76 127 79 129 73 130 41 139
REMARK H PARENT 44 141 77 144 42 145 78 147
REMARK Flexibility Score: inf
ROOT
ATOM      1  C   UNL A   1      40.241  22.507  26.885  1.00  0.00    -0.052 C 
ATOM      2  H   UNL A   1      40.089  21.827  27.696  1.00  0.00     0.027 H 
ATOM      3  H   UNL A   1      40.469  23.519  27.154  1.00  0.00     0.027 H 
ENDROOT
BRANCH   1   4
ATOM      4  C   UNL A   1      38.914  22.612  26.127  1.00  0.00    -0.052 C 
ATOM      5  H   UNL A   1      39.121  22.374  25.105  1.00  0.00     0.027 H 
ATOM      6  H   UNL A   1      38.268  21.948  26.663  1.00  0.00     0.027 H 
BRANCH   4   7
ATOM      7  C   UNL A   1      38.138  23.939  26.127  1.00  0.00    -0.036 C 
ATOM      8  H   UNL A   1      38.333  24.418  27.064  1.00  0.00     0.028 H 
ATOM      9  H   UNL A   1      38.489  24.445  25.253  1.00  0.00     0.028 H 
BRANCH   7  10
ATOM     10  C   UNL A   1      36.616  23.904  25.949  1.00  0.00     0.017 C 
ATOM     11  H   UNL A   1      36.211  24.799  26.373  1.00  0.00     0.049 H 
ATOM     12  H   UNL A   1      36.440  23.814  24.897  1.00  0.00     0.049 H 
BRANCH  10  13
ATOM     13  N   UNL A   1      35.951  22.771  26.569  1.00  0.00    -0.356 N 
ATOM     14  C   UNL A   1      35.086  21.843  26.047  1.00  0.00     0.226 C 
ATOM     15  O   UNL A   1      34.154  21.545  26.806  1.00  0.00    -0.274 OA
ATOM     16  H   UNL A   1      36.156  22.648  27.524  1.00  0.00     0.163 HD
BRANCH  14  17
ATOM     17  C   UNL A   1      35.252  21.121  24.653  1.00  0.00     0.056 C 
ATOM     18  C   UNL A   1      33.605  19.132  24.845  1.00  0.00    -0.034 C 
ATOM     19  C   UNL A   1      34.797  18.140  24.626  1.00  0.00    -0.041 C 
ATOM     20  C   UNL A   1      33.918  20.491  24.152  1.00  0.00    -0.002 C 
ATOM     21  H   UNL A   1      33.494  19.303  25.895  1.00  0.00     0.031 H 
ATOM     22  C   UNL A   1      36.190  18.703  24.964  1.00  0.00    -0.049 C 
ATOM     23  H   UNL A   1      34.702  17.969  23.574  1.00  0.00     0.030 H 
ATOM     24  C   UNL A   1      32.903  21.659  24.165  1.00  0.00    -0.063 C 
ATOM     25  H   UNL A   1      33.917  20.120  23.147  1.00  0.00     0.036 H 
ATOM     26  C   UNL A   1      36.450  20.160  24.662  1.00  0.00    -0.038 C 
ATOM     27  H   UNL A   1      36.908  18.130  24.416  1.00  0.00     0.027 H 
ATOM     28  H   UNL A   1      36.260  18.632  26.029  1.00  0.00     0.027 H 
ATOM     29  C   UNL A   1      35.651  22.183  23.556  1.00  0.00    -0.037 C 
ATOM     30  C   UNL A   1      33.113  22.743  23.064  1.00  0.00    -0.006 C 
ATOM     31  C   UNL A   1      32.110  21.881  25.234  1.00  0.00    -0.084 C 
ATOM     32  H   UNL A   1      36.903  20.206  23.693  1.00  0.00     0.028 H 
ATOM     33  H   UNL A   1      37.056  20.497  25.477  1.00  0.00     0.028 H 
ATOM     34  C   UNL A   1      34.603  23.219  23.139  1.00  0.00    -0.043 C 
ATOM     35  H   UNL A   1      35.929  21.642  22.675  1.00  0.00     0.028 H 
ATOM     36  H   UNL A   1      36.427  22.760  24.013  1.00  0.00     0.028 H 
ATOM     37  C   UNL A   1      32.115  24.016  23.263  1.00  0.00    -0.020 C 
ATOM     38  C   UNL A   1      31.556  23.237  25.601  1.00  0.00    -0.031 C 
ATOM     39  H   UNL A   1      31.869  21.079  25.837  1.00  0.00     0.058 H 
ATOM     40  H   UNL A   1      34.876  23.580  22.170  1.00  0.00     0.028 H 
ATOM     41  H   UNL A   1      34.617  23.952  23.920  1.00  0.00     0.028 H 
ATOM     42  C   UNL A   1      32.215  24.385  24.788  1.00  0.00    -0.026 C 
ATOM     43  C   UNL A   1      32.498  25.216  22.355  1.00  0.00    -0.046 C 
ATOM     44  H   UNL A   1      31.731  23.409  26.643  1.00  0.00     0.031 H 
ATOM     45  H   UNL A   1      30.511  23.234  25.375  1.00  0.00     0.031 H 
ATOM     46  C   UNL A   1      31.889  25.865  25.256  1.00  0.00    -0.025 C 
ATOM     47  H   UNL A   1      33.259  24.445  25.015  1.00  0.00     0.032 H 
ATOM     48  C   UNL A   1      31.839  26.532  22.773  1.00  0.00    -0.049 C 
ATOM     49  H   UNL A   1      33.560  25.343  22.390  1.00  0.00     0.027 H 
ATOM     50  H   UNL A   1      32.149  24.988  21.369  1.00  0.00     0.027 H 
ATOM     51  C   UNL A   1      32.782  26.185  26.501  1.00  0.00    -0.045 C 
ATOM     52  C   UNL A   1      32.333  26.918  24.171  1.00  0.00    -0.028 C 
ATOM     53  H   UNL A   1      32.100  27.301  22.076  1.00  0.00     0.027 H 
ATOM     54  H   UNL A   1      30.776  26.414  22.787  1.00  0.00     0.027 H 
ATOM     55  C   UNL A   1      32.666  27.626  27.000  1.00  0.00    -0.026 C 
ATOM     56  H   UNL A   1      33.803  26.002  26.239  1.00  0.00     0.027 H 
ATOM     57  H   UNL A   1      32.439  25.556  27.297  1.00  0.00     0.027 H 
ATOM     58  C   UNL A   1      32.131  28.432  24.565  1.00  0.00    -0.006 C 
ATOM     59  H   UNL A   1      33.400  26.862  24.134  1.00  0.00     0.031 H 
ATOM     60  C   UNL A   1      32.881  28.681  25.911  1.00  0.00     0.059 C 
ATOM     61  H   UNL A   1      33.398  27.777  27.765  1.00  0.00     0.029 H 
ATOM     62  H   UNL A   1      31.664  27.749  27.357  1.00  0.00     0.029 H 
ATOM     63  H   UNL A   1      33.913  28.619  25.635  1.00  0.00     0.061 H 
BRANCH  18  64
ATOM     64  C   UNL A   1      32.273  18.539  24.356  1.00  0.00    -0.062 C 
ATOM     65  H   UNL A   1      31.496  19.266  24.472  1.00  0.00     0.023 H 
ATOM     66  H   UNL A   1      32.037  17.669  24.932  1.00  0.00     0.023 H 
ATOM     67  H   UNL A   1      32.360  18.271  23.324  1.00  0.00     0.023 H 
ENDBRANCH  18  64
BRANCH  19  68
ATOM     68  C   UNL A   1      34.698  16.821  25.411  1.00  0.00    -0.062 C 
ATOM     69  H   UNL A   1      35.519  16.750  26.094  1.00  0.00     0.023 H 
ATOM     70  H   UNL A   1      34.729  15.997  24.729  1.00  0.00     0.023 H 
ATOM     71  H   UNL A   1      33.777  16.799  25.955  1.00  0.00     0.023 H 
ENDBRANCH  19  68
BRANCH  30  72
ATOM     72  C   UNL A   1      32.881  22.112  21.665  1.00  0.00    -0.055 C 
ATOM     73  H   UNL A   1      33.801  22.114  21.117  1.00  0.00     0.024 H 
ATOM     74  H   UNL A   1      32.148  22.681  21.134  1.00  0.00     0.024 H 
ATOM     75  H   UNL A   1      32.537  21.106  21.781  1.00  0.00     0.024 H 
ENDBRANCH  30  72
BRANCH  37  76
ATOM     76  C   UNL A   1      30.653  23.646  22.861  1.00  0.00    -0.059 C 
ATOM     77  H   UNL A   1      30.672  22.909  22.085  1.00  0.00     0.024 H 
ATOM     78  H   UNL A   1      30.148  24.522  22.508  1.00  0.00     0.024 H 
ATOM     79  H   UNL A   1      30.136  23.256  23.712  1.00  0.00     0.024 H 
ENDBRANCH  37  76
BRANCH  46  80
ATOM     80  C   UNL A   1      30.412  25.958  25.677  1.00  0.00    -0.059 C 
ATOM     81  H   UNL A   1      29.924  25.027  25.476  1.00  0.00     0.024 H 
ATOM     82  H   UNL A   1      29.931  26.739  25.125  1.00  0.00     0.024 H 
ATOM     83  H   UNL A   1      30.352  26.173  26.724  1.00  0.00     0.024 H 
ENDBRANCH  46  80
BRANCH  58  84
ATOM     84  C   UNL A   1      30.656  28.887  24.615  1.00  0.00    -0.057 C 
ATOM     85  H   UNL A   1      30.481  29.611  23.847  1.00  0.00     0.024 H 
ATOM     86  H   UNL A   1      30.449  29.322  25.570  1.00  0.00     0.024 H 
ATOM     87  H   UNL A   1      30.017  28.042  24.462  1.00  0.00     0.024 H 
ENDBRANCH  58  84
BRANCH  58  88
ATOM     88  C   UNL A   1      32.796  29.359  23.505  1.00  0.00    -0.057 C 
ATOM     89  H   UNL A   1      32.136  29.477  22.671  1.00  0.00     0.024 H 
ATOM     90  H   UNL A   1      33.714  28.922  23.175  1.00  0.00     0.024 H 
ATOM     91  H   UNL A   1      32.993  30.317  23.941  1.00  0.00     0.024 H 
ENDBRANCH  58  88
BRANCH  60  92
ATOM     92  O   UNL A   1      32.568  29.967  26.449  1.00  0.00    -0.393 OA
ATOM     93  H   UNL A   1      32.693  30.643  25.765  1.00  0.00     0.210 HD
ENDBRANCH  60  92
ENDBRANCH  14  17
ENDBRANCH  10  13
ENDBRANCH   7  10
ENDBRANCH   4   7
ENDBRANCH   1   4
BRANCH   1  94
ATOM     94  C   UNL A   1      41.478  22.036  26.126  1.00  0.00    -0.036 C 
ATOM     95  H   UNL A   1      41.139  21.405  25.330  1.00  0.00     0.028 H 
ATOM     96  H   UNL A   1      42.082  21.560  26.871  1.00  0.00     0.028 H 
BRANCH  94  97
ATOM     97  C   UNL A   1      42.386  23.088  25.515  1.00  0.00     0.018 C 
ATOM     98  H   UNL A   1      42.189  24.023  25.997  1.00  0.00     0.049 H 
ATOM     99  H   UNL A   1      42.170  23.109  24.467  1.00  0.00     0.049 H 
BRANCH  97 100
ATOM    100  N   UNL A   1      43.799  22.801  25.642  1.00  0.00    -0.352 N 
ATOM    101  C   UNL A   1      44.710  23.300  26.547  1.00  0.00     0.251 C 
ATOM    102  H   UNL A   1      44.160  22.157  24.990  1.00  0.00     0.163 HD
ATOM    103  O   UNL A   1      45.891  22.997  26.457  1.00  0.00    -0.269 OA
BRANCH 101 104
ATOM    104  C   UNL A   1      44.272  24.240  27.609  1.00  0.00     0.039 A 
ATOM    105  C   UNL A   1      44.616  25.590  27.488  1.00  0.00    -0.049 A 
ATOM    106  C   UNL A   1      43.535  23.809  28.716  1.00  0.00    -0.049 A 
ATOM    107  C   UNL A   1      44.173  26.511  28.441  1.00  0.00    -0.053 A 
ATOM    108  H   UNL A   1      45.197  25.904  26.695  1.00  0.00     0.063 H 
ATOM    109  C   UNL A   1      43.019  24.741  29.615  1.00  0.00    -0.053 A 
ATOM    110  H   UNL A   1      43.372  22.802  28.866  1.00  0.00     0.063 H 
ATOM    111  C   UNL A   1      43.343  26.100  29.495  1.00  0.00    -0.014 A 
ATOM    112  H   UNL A   1      44.460  27.500  28.369  1.00  0.00     0.063 H 
ATOM    113  H   UNL A   1      42.395  24.427  30.376  1.00  0.00     0.063 H 
BRANCH 111 114
ATOM    114  C   UNL A   1      42.824  27.076  30.489  1.00  0.00     0.031 A 
ATOM    115  C   UNL A   1      43.481  27.204  31.837  1.00  0.00     0.074 A 
ATOM    116  C   UNL A   1      41.735  27.815  30.198  1.00  0.00     0.049 A 
ATOM    117  N   UNL A   1      43.152  27.962  32.852  1.00  0.00    -0.248 NA
ATOM    118  C   UNL A   1      44.650  26.345  32.087  1.00  0.00    -0.034 C 
ATOM    119  C   UNL A   1      40.980  27.751  28.945  1.00  0.00    -0.036 A 
ATOM    120  N   UNL A   1      41.069  28.763  30.936  1.00  0.00    -0.354 N 
ATOM    121  C   UNL A   1      44.061  27.662  33.859  1.00  0.00     0.074 A 
ATOM    122  C   UNL A   1      44.914  26.609  33.357  1.00  0.00    -0.034 C 
ATOM    123  H   UNL A   1      45.135  25.704  31.441  1.00  0.00     0.065 H 
ATOM    124  C   UNL A   1      39.976  28.640  28.989  1.00  0.00    -0.036 A 
ATOM    125  H   UNL A   1      41.188  27.122  28.153  1.00  0.00     0.065 H 
ATOM    126  C   UNL A   1      39.987  29.308  30.288  1.00  0.00     0.049 A 
ATOM    127  H   UNL A   1      41.342  29.028  31.844  1.00  0.00     0.167 HD
ATOM    128  C   UNL A   1      44.190  28.233  35.081  1.00  0.00     0.037 A 
ATOM    129  H   UNL A   1      45.636  26.125  33.916  1.00  0.00     0.065 H 
ATOM    130  H   UNL A   1      39.304  28.823  28.227  1.00  0.00     0.065 H 
ATOM    131  C   UNL A   1      39.101  30.235  30.696  1.00  0.00     0.037 A 
ATOM    132  C   UNL A   1      43.351  29.296  35.568  1.00  0.00     0.049 A 
ATOM    133  C   UNL A   1      39.255  30.842  32.066  1.00  0.00     0.074 A 
ATOM    134  C   UNL A   1      43.433  29.981  36.766  1.00  0.00    -0.036 A 
ATOM    135  N   UNL A   1      42.269  29.826  34.878  1.00  0.00    -0.354 N 
ATOM    136  N   UNL A   1      40.162  30.600  32.981  1.00  0.00    -0.248 NA
ATOM    137  C   UNL A   1      38.266  31.855  32.458  1.00  0.00    -0.034 C 
ATOM    138  C   UNL A   1      42.367  30.884  36.829  1.00  0.00    -0.036 A 
ATOM    139  H   UNL A   1      44.158  29.849  37.490  1.00  0.00     0.065 H 
ATOM    140  C   UNL A   1      41.659  30.810  35.640  1.00  0.00     0.049 A 
ATOM    141  H   UNL A   1      41.979  29.545  33.980  1.00  0.00     0.167 HD
ATOM    142  C   UNL A   1      39.875  31.451  34.039  1.00  0.00     0.074 A 
ATOM    143  C   UNL A   1      38.718  32.228  33.646  1.00  0.00    -0.034 C 
ATOM    144  H   UNL A   1      37.437  32.190  31.942  1.00  0.00     0.065 H 
ATOM    145  H   UNL A   1      42.146  31.501  37.625  1.00  0.00     0.065 H 
ATOM    146  C   UNL A   1      40.511  31.579  35.230  1.00  0.00     0.037 A 
ATOM    147  H   UNL A   1      38.298  32.977  34.220  1.00  0.00     0.065 H 
BRANCH 128 148
ATOM    148  C   UNL A   1      45.280  27.717  35.978  1.00  0.00     0.064 A 
ATOM    149  C   UNL A   1      46.573  28.264  35.962  1.00  0.00     0.173 A 
ATOM    150  C   UNL A   1      45.020  26.684  36.893  1.00  0.00     0.173 A 
ATOM    151  F   UNL A   1      46.879  29.245  35.100  1.00  0.00    -0.203 F 
ATOM    152  C   UNL A   1      47.571  27.775  36.800  1.00  0.00     0.198 A 
ATOM    153  C   UNL A   1      46.012  26.222  37.756  1.00  0.00     0.198 A 
ATOM    154  F   UNL A   1      43.801  26.128  36.958  1.00  0.00    -0.203 F 
ATOM    155  F   UNL A   1      48.813  28.275  36.724  1.00  0.00    -0.200 F 
ATOM    156  C   UNL A   1      47.288  26.759  37.701  1.00  0.00     0.200 A 
ATOM    157  F   UNL A   1      45.731  25.251  38.636  1.00  0.00    -0.200 F 
ATOM    158  F   UNL A   1      48.248  26.295  38.513  1.00  0.00    -0.200 F 
ENDBRANCH 128 148
BRANCH 131 159
ATOM    159  C   UNL A   1      37.997  30.663  29.794  1.00  0.00     0.064 A 
ATOM    160  C   UNL A   1      37.993  31.940  29.214  1.00  0.00     0.173 A 
ATOM    161  C   UNL A   1      36.921  29.812  29.501  1.00  0.00     0.173 A 
ATOM    162  F   UNL A   1      38.988  32.798  29.477  1.00  0.00    -0.203 F 
ATOM    163  C   UNL A   1      36.943  32.357  28.397  1.00  0.00     0.198 A 
ATOM    164  C   UNL A   1      35.889  30.219  28.657  1.00  0.00     0.198 A 
ATOM    165  F   UNL A   1      36.878  28.578  30.025  1.00  0.00    -0.203 F 
ATOM    166  F   UNL A   1      36.939  33.602  27.900  1.00  0.00    -0.200 F 
ATOM    167  C   UNL A   1      35.895  31.495  28.115  1.00  0.00     0.200 A 
ATOM    168  F   UNL A   1      34.887  29.376  28.375  1.00  0.00    -0.200 F 
ATOM    169  F   UNL A   1      34.888  31.895  27.326  1.00  0.00    -0.200 F 
ENDBRANCH 131 159
BRANCH 146 170
ATOM    170  C   UNL A   1      39.997  32.623  36.180  1.00  0.00     0.064 A 
ATOM    171  C   UNL A   1      38.918  32.374  37.041  1.00  0.00     0.173 A 
ATOM    172  C   UNL A   1      40.620  33.879  36.255  1.00  0.00     0.173 A 
ATOM    173  F   UNL A   1      38.279  31.195  36.998  1.00  0.00    -0.203 F 
ATOM    174  C   UNL A   1      38.464  33.352  37.921  1.00  0.00     0.198 A 
ATOM    175  C   UNL A   1      40.186  34.842  37.163  1.00  0.00     0.198 A 
ATOM    176  F   UNL A   1      41.661  34.167  35.461  1.00  0.00    -0.203 F 
ATOM    177  F   UNL A   1      37.398  33.110  38.697  1.00  0.00    -0.200 F 
ATOM    178  C   UNL A   1      39.103  34.581  37.988  1.00  0.00     0.200 A 
ATOM    179  F   UNL A   1      40.817  36.022  37.238  1.00  0.00    -0.200 F 
ATOM    180  F   UNL A   1      38.671  35.518  38.844  1.00  0.00    -0.200 F 
ENDBRANCH 146 170
ENDBRANCH 111 114
ENDBRANCH 101 104
ENDBRANCH  97 100
ENDBRANCH  94  97
ENDBRANCH   1  94
TORSDOF 21
ENDMDL
MODEL 10
REMARK VINA RESULT:     -11.4      2.756      8.743
REMARK SMILES C[C@H]1[C@H](C)CC[C@@]2(C(=O)NCCCCCCNC(=O)c3ccc(-c4c5nc(c(-c6c(F)c(F)c(F)c(F)c6F)c6ccc([nH]6)c(-c6c(F)c(F)c(F)c(F)c6F)c6nc(c(-c7c(F)c(F)c(F)c(F)c7F)c7ccc4[nH]7)C=C6)C=C5)cc3)CC[C@@]3(C)C(=CC[C@@H]4[C@@]5(C)CC[C@H](O)C(C)(C)[C@@H]5CC[C@]43C)[C@H]12
REMARK SMILES IDX 14 1 13 4 12 7 11 10 10 13 8 14 9 15 7 17 2 18 3 19 105 20
REMARK SMILES IDX 5 22 87 24 6 26 83 29 85 30 88 31 84 34 103 37 89 38 90 42
REMARK SMILES IDX 102 43 91 46 101 48 93 51 100 52 94 55 97 58 95 60 1 64 4 68
REMARK SMILES IDX 86 72 104 76 92 80 98 84 99 88 96 92 15 94 16 97 17 100
REMARK SMILES IDX 18 101 19 103 20 104 21 105 82 106 22 107 81 109 23 111
REMARK SMILES IDX 24 114 25 115 75 116 26 117 80 118 74 119 76 120 27 121
REMARK SMILES IDX 79 122 73 124 72 126 28 128 60 131 40 132 59 133 41 134
REMARK SMILES IDX 44 135 58 136 77 137 42 138 43 140 57 142 78 143 45 146
REMARK SMILES IDX 29 148 30 149 38 150 31 151 32 152 36 153 39 154 33 155
REMARK SMILES IDX 34 156 37 157 35 158 61 159 62 160 70 161 63 162 64 163
REMARK SMILES IDX 68 164 71 165 65 166 66 167 69 168 67 169 46 170 47 171
REMARK SMILES IDX 55 172 48 173 49 174 53 175 56 176 50 177 51 178 54 179
REMARK SMILES IDX 52 180
REMARK H PARENT 14 2 14 3 13 5 13 6 12 8 12 9 11 11 11 12 10 16 2 21 3 23
REMARK H PARENT 105 25 5 27 5 28 6 32 6 33 83 35 83 36 88 39 84 40 84 41 89 44
REMARK H PARENT 89 45 90 47 102 49 102 50 101 53 101 54 93 56 93 57 100 59
REMARK H PARENT 94 61 94 62 95 63 1 65 1 66 1 67 4 69 4 70 4 71 86 73 86 74
REMARK H PARENT 86 75 104 77 104 78 104 79 92 81 92 82 92 83 98 85 98 86 98 87
REMARK H PARENT 99 89 99 90 99 91 96 93 15 95 15 96 16 98 16 99 17 102 21 108
REMARK H PARENT 82 110 22 112 81 113 80 123 74 125 76 127 79 129 73 130 41 139
REMARK H PARENT 44 141 77 144 42 145 78 147
REMARK Flexibility Score: inf
ROOT
ATOM      1  C   UNL A   1      35.394  31.832  28.415  1.00  0.00    -0.052 C 
ATOM      2  H   UNL A   1      35.707  32.584  27.723  1.00  0.00     0.027 H 
ATOM      3  H   UNL A   1      36.172  31.252  28.867  1.00  0.00     0.027 H 
ENDROOT
BRANCH   1   4
ATOM      4  C   UNL A   1      34.572  30.806  27.626  1.00  0.00    -0.052 C 
ATOM      5  H   UNL A   1      33.575  30.845  28.011  1.00  0.00     0.027 H 
ATOM      6  H   UNL A   1      34.715  31.103  26.607  1.00  0.00     0.027 H 
BRANCH   4   7
ATOM      7  C   UNL A   1      34.993  29.328  27.627  1.00  0.00    -0.036 C 
ATOM      8  H   UNL A   1      36.058  29.304  27.519  1.00  0.00     0.028 H 
ATOM      9  H   UNL A   1      34.601  28.948  28.547  1.00  0.00     0.028 H 
BRANCH   7  10
ATOM     10  C   UNL A   1      34.411  28.394  26.561  1.00  0.00     0.017 C 
ATOM     11  H   UNL A   1      35.146  27.651  26.333  1.00  0.00     0.049 H 
ATOM     12  H   UNL A   1      33.512  27.990  26.976  1.00  0.00     0.049 H 
BRANCH  10  13
ATOM     13  N   UNL A   1      34.028  29.043  25.319  1.00  0.00    -0.356 N 
ATOM     14  C   UNL A   1      32.843  29.026  24.627  1.00  0.00     0.226 C 
ATOM     15  O   UNL A   1      32.981  28.959  23.399  1.00  0.00    -0.274 OA
ATOM     16  H   UNL A   1      34.737  29.586  24.905  1.00  0.00     0.163 HD
BRANCH  14  17
ATOM     17  C   UNL A   1      31.407  29.165  25.270  1.00  0.00     0.056 C 
ATOM     18  C   UNL A   1      29.914  29.674  23.216  1.00  0.00    -0.034 C 
ATOM     19  C   UNL A   1      29.491  31.030  23.876  1.00  0.00    -0.041 C 
ATOM     20  C   UNL A   1      30.284  28.643  24.323  1.00  0.00    -0.002 C 
ATOM     21  H   UNL A   1      30.778  29.847  22.609  1.00  0.00     0.031 H 
ATOM     22  C   UNL A   1      30.466  31.578  24.934  1.00  0.00    -0.049 C 
ATOM     23  H   UNL A   1      28.568  30.732  24.330  1.00  0.00     0.030 H 
ATOM     24  C   UNL A   1      30.707  27.196  23.973  1.00  0.00    -0.063 C 
ATOM     25  H   UNL A   1      29.306  28.563  24.749  1.00  0.00     0.036 H 
ATOM     26  C   UNL A   1      31.176  30.580  25.818  1.00  0.00    -0.038 C 
ATOM     27  H   UNL A   1      29.911  32.233  25.572  1.00  0.00     0.027 H 
ATOM     28  H   UNL A   1      31.248  32.040  24.368  1.00  0.00     0.027 H 
ATOM     29  C   UNL A   1      31.320  28.260  26.559  1.00  0.00    -0.037 C 
ATOM     30  C   UNL A   1      30.577  26.161  25.132  1.00  0.00    -0.006 C 
ATOM     31  C   UNL A   1      31.427  26.930  22.863  1.00  0.00    -0.084 C 
ATOM     32  H   UNL A   1      30.597  30.484  26.714  1.00  0.00     0.028 H 
ATOM     33  H   UNL A   1      32.159  30.984  25.940  1.00  0.00     0.028 H 
ATOM     34  C   UNL A   1      31.330  26.740  26.376  1.00  0.00    -0.043 C 
ATOM     35  H   UNL A   1      30.411  28.512  27.065  1.00  0.00     0.028 H 
ATOM     36  H   UNL A   1      32.224  28.469  27.093  1.00  0.00     0.028 H 
ATOM     37  C   UNL A   1      31.207  24.712  24.728  1.00  0.00    -0.020 C 
ATOM     38  C   UNL A   1      32.355  25.747  22.728  1.00  0.00    -0.031 C 
ATOM     39  H   UNL A   1      31.338  27.572  22.059  1.00  0.00     0.058 H 
ATOM     40  H   UNL A   1      30.888  26.308  27.250  1.00  0.00     0.028 H 
ATOM     41  H   UNL A   1      32.358  26.490  26.216  1.00  0.00     0.028 H 
ATOM     42  C   UNL A   1      32.605  25.035  24.086  1.00  0.00    -0.026 C 
ATOM     43  C   UNL A   1      31.340  23.764  25.950  1.00  0.00    -0.046 C 
ATOM     44  H   UNL A   1      33.292  26.088  22.342  1.00  0.00     0.031 H 
ATOM     45  H   UNL A   1      31.893  25.042  22.070  1.00  0.00     0.031 H 
ATOM     46  C   UNL A   1      33.747  23.934  24.111  1.00  0.00    -0.025 C 
ATOM     47  H   UNL A   1      33.102  25.697  24.764  1.00  0.00     0.032 H 
ATOM     48  C   UNL A   1      32.254  22.565  25.695  1.00  0.00    -0.049 C 
ATOM     49  H   UNL A   1      31.736  24.323  26.772  1.00  0.00     0.027 H 
ATOM     50  H   UNL A   1      30.363  23.378  26.157  1.00  0.00     0.027 H 
ATOM     51  C   UNL A   1      35.126  24.671  24.202  1.00  0.00    -0.045 C 
ATOM     52  C   UNL A   1      33.676  23.066  25.425  1.00  0.00    -0.028 C 
ATOM     53  H   UNL A   1      32.257  21.927  26.554  1.00  0.00     0.027 H 
ATOM     54  H   UNL A   1      31.900  22.015  24.848  1.00  0.00     0.027 H 
ATOM     55  C   UNL A   1      36.326  23.735  24.353  1.00  0.00    -0.026 C 
ATOM     56  H   UNL A   1      35.102  25.326  25.047  1.00  0.00     0.027 H 
ATOM     57  H   UNL A   1      35.257  25.193  23.277  1.00  0.00     0.027 H 
ATOM     58  C   UNL A   1      34.817  21.990  25.596  1.00  0.00    -0.006 C 
ATOM     59  H   UNL A   1      33.911  23.736  26.226  1.00  0.00     0.031 H 
ATOM     60  C   UNL A   1      36.190  22.727  25.498  1.00  0.00     0.059 C 
ATOM     61  H   UNL A   1      37.196  24.331  24.530  1.00  0.00     0.029 H 
ATOM     62  H   UNL A   1      36.390  23.168  23.448  1.00  0.00     0.029 H 
ATOM     63  H   UNL A   1      36.230  23.298  26.403  1.00  0.00     0.061 H 
BRANCH  18  64
ATOM     64  C   UNL A   1      28.824  29.132  22.278  1.00  0.00    -0.062 C 
ATOM     65  H   UNL A   1      29.209  28.298  21.729  1.00  0.00     0.023 H 
ATOM     66  H   UNL A   1      28.525  29.901  21.596  1.00  0.00     0.023 H 
ATOM     67  H   UNL A   1      27.979  28.819  22.856  1.00  0.00     0.023 H 
ENDBRANCH  18  64
BRANCH  19  68
ATOM     68  C   UNL A   1      29.272  32.192  22.893  1.00  0.00    -0.062 C 
ATOM     69  H   UNL A   1      29.105  31.801  21.910  1.00  0.00     0.023 H 
ATOM     70  H   UNL A   1      30.138  32.820  22.884  1.00  0.00     0.023 H 
ATOM     71  H   UNL A   1      28.421  32.762  23.199  1.00  0.00     0.023 H 
ENDBRANCH  19  68
BRANCH  30  72
ATOM     72  C   UNL A   1      29.081  25.992  25.511  1.00  0.00    -0.055 C 
ATOM     73  H   UNL A   1      28.934  26.305  26.524  1.00  0.00     0.024 H 
ATOM     74  H   UNL A   1      28.801  24.965  25.409  1.00  0.00     0.024 H 
ATOM     75  H   UNL A   1      28.480  26.593  24.861  1.00  0.00     0.024 H 
ENDBRANCH  30  72
BRANCH  37  76
ATOM     76  C   UNL A   1      30.278  23.961  23.724  1.00  0.00    -0.059 C 
ATOM     77  H   UNL A   1      29.458  24.594  23.454  1.00  0.00     0.024 H 
ATOM     78  H   UNL A   1      29.903  23.070  24.184  1.00  0.00     0.024 H 
ATOM     79  H   UNL A   1      30.834  23.704  22.847  1.00  0.00     0.024 H 
ENDBRANCH  37  76
BRANCH  46  80
ATOM     80  C   UNL A   1      33.711  23.124  22.803  1.00  0.00    -0.059 C 
ATOM     81  H   UNL A   1      33.812  22.082  23.025  1.00  0.00     0.024 H 
ATOM     82  H   UNL A   1      34.517  23.434  22.169  1.00  0.00     0.024 H 
ATOM     83  H   UNL A   1      32.779  23.294  22.304  1.00  0.00     0.024 H 
ENDBRANCH  46  80
BRANCH  58  84
ATOM     84  C   UNL A   1      34.716  20.794  24.626  1.00  0.00    -0.057 C 
ATOM     85  H   UNL A   1      33.693  20.648  24.346  1.00  0.00     0.024 H 
ATOM     86  H   UNL A   1      35.083  19.911  25.107  1.00  0.00     0.024 H 
ATOM     87  H   UNL A   1      35.300  20.993  23.752  1.00  0.00     0.024 H 
ENDBRANCH  58  84
BRANCH  58  88
ATOM     88  C   UNL A   1      34.752  21.356  27.017  1.00  0.00    -0.057 C 
ATOM     89  H   UNL A   1      35.568  20.675  27.141  1.00  0.00     0.024 H 
ATOM     90  H   UNL A   1      33.828  20.828  27.129  1.00  0.00     0.024 H 
ATOM     91  H   UNL A   1      34.815  22.127  27.756  1.00  0.00     0.024 H 
ENDBRANCH  58  88
BRANCH  60  92
ATOM     92  O   UNL A   1      37.273  21.799  25.425  1.00  0.00    -0.393 OA
ATOM     93  H   UNL A   1      37.661  21.826  24.537  1.00  0.00     0.210 HD
ENDBRANCH  60  92
ENDBRANCH  14  17
ENDBRANCH  10  13
ENDBRANCH   7  10
ENDBRANCH   4   7
ENDBRANCH   1   4
BRANCH   1  94
ATOM     94  C   UNL A   1      34.731  32.546  29.590  1.00  0.00    -0.036 C 
ATOM     95  H   UNL A   1      33.678  32.376  29.510  1.00  0.00     0.028 H 
ATOM     96  H   UNL A   1      35.047  33.564  29.494  1.00  0.00     0.028 H 
BRANCH  94  97
ATOM     97  C   UNL A   1      35.149  32.148  30.995  1.00  0.00     0.018 C 
ATOM     98  H   UNL A   1      36.023  31.534  30.925  1.00  0.00     0.049 H 
ATOM     99  H   UNL A   1      34.316  31.635  31.429  1.00  0.00     0.049 H 
BRANCH  97 100
ATOM    100  N   UNL A   1      35.448  33.266  31.865  1.00  0.00    -0.352 N 
ATOM    101  C   UNL A   1      36.669  33.811  32.192  1.00  0.00     0.251 C 
ATOM    102  H   UNL A   1      34.667  33.698  32.282  1.00  0.00     0.163 HD
ATOM    103  O   UNL A   1      36.736  34.717  33.010  1.00  0.00    -0.269 OA
BRANCH 101 104
ATOM    104  C   UNL A   1      37.914  33.275  31.586  1.00  0.00     0.039 A 
ATOM    105  C   UNL A   1      38.741  32.463  32.369  1.00  0.00    -0.049 A 
ATOM    106  C   UNL A   1      38.275  33.565  30.267  1.00  0.00    -0.049 A 
ATOM    107  C   UNL A   1      39.891  31.898  31.813  1.00  0.00    -0.053 A 
ATOM    108  H   UNL A   1      38.500  32.283  33.356  1.00  0.00     0.063 H 
ATOM    109  C   UNL A   1      39.373  32.929  29.689  1.00  0.00    -0.053 A 
ATOM    110  H   UNL A   1      37.729  34.249  29.721  1.00  0.00     0.063 H 
ATOM    111  C   UNL A   1      40.200  32.098  30.459  1.00  0.00    -0.014 A 
ATOM    112  H   UNL A   1      40.518  31.329  32.404  1.00  0.00     0.063 H 
ATOM    113  H   UNL A   1      39.578  33.072  28.688  1.00  0.00     0.063 H 
BRANCH 111 114
ATOM    114  C   UNL A   1      41.394  31.463  29.841  1.00  0.00     0.031 A 
ATOM    115  C   UNL A   1      42.652  32.263  29.633  1.00  0.00     0.074 A 
ATOM    116  C   UNL A   1      41.334  30.183  29.427  1.00  0.00     0.049 A 
ATOM    117  N   UNL A   1      43.781  31.905  29.074  1.00  0.00    -0.248 NA
ATOM    118  C   UNL A   1      42.630  33.662  30.090  1.00  0.00    -0.034 C 
ATOM    119  C   UNL A   1      40.159  29.315  29.530  1.00  0.00    -0.036 A 
ATOM    120  N   UNL A   1      42.280  29.386  28.830  1.00  0.00    -0.354 N 
ATOM    121  C   UNL A   1      44.592  33.032  29.102  1.00  0.00     0.074 A 
ATOM    122  C   UNL A   1      43.807  34.103  29.673  1.00  0.00    -0.034 C 
ATOM    123  H   UNL A   1      41.890  34.167  30.602  1.00  0.00     0.065 H 
ATOM    124  C   UNL A   1      40.463  28.102  29.043  1.00  0.00    -0.036 A 
ATOM    125  H   UNL A   1      39.243  29.593  29.916  1.00  0.00     0.065 H 
ATOM    126  C   UNL A   1      41.838  28.115  28.554  1.00  0.00     0.049 A 
ATOM    127  H   UNL A   1      43.191  29.697  28.621  1.00  0.00     0.167 HD
ATOM    128  C   UNL A   1      45.883  33.155  28.712  1.00  0.00     0.037 A 
ATOM    129  H   UNL A   1      44.122  35.084  29.747  1.00  0.00     0.065 H 
ATOM    130  H   UNL A   1      39.826  27.290  29.019  1.00  0.00     0.065 H 
ATOM    131  C   UNL A   1      42.468  27.080  27.967  1.00  0.00     0.037 A 
ATOM    132  C   UNL A   1      46.667  32.080  28.163  1.00  0.00     0.049 A 
ATOM    133  C   UNL A   1      43.898  27.248  27.526  1.00  0.00     0.074 A 
ATOM    134  C   UNL A   1      47.999  32.086  27.790  1.00  0.00    -0.036 A 
ATOM    135  N   UNL A   1      46.185  30.804  27.906  1.00  0.00    -0.354 N 
ATOM    136  N   UNL A   1      44.677  28.298  27.624  1.00  0.00    -0.248 NA
ATOM    137  C   UNL A   1      44.540  26.084  26.900  1.00  0.00    -0.034 C 
ATOM    138  C   UNL A   1      48.307  30.833  27.251  1.00  0.00    -0.036 A 
ATOM    139  H   UNL A   1      48.652  32.879  27.892  1.00  0.00     0.065 H 
ATOM    140  C   UNL A   1      47.187  30.025  27.350  1.00  0.00     0.049 A 
ATOM    141  H   UNL A   1      45.267  30.500  28.090  1.00  0.00     0.167 HD
ATOM    142  C   UNL A   1      45.905  27.914  27.104  1.00  0.00     0.074 A 
ATOM    143  C   UNL A   1      45.773  26.528  26.707  1.00  0.00    -0.034 C 
ATOM    144  H   UNL A   1      44.136  25.163  26.671  1.00  0.00     0.065 H 
ATOM    145  H   UNL A   1      49.216  30.558  26.847  1.00  0.00     0.065 H 
ATOM    146  C   UNL A   1      47.041  28.643  26.967  1.00  0.00     0.037 A 
ATOM    147  H   UNL A   1      46.543  25.958  26.322  1.00  0.00     0.065 H 
BRANCH 128 148
ATOM    148  C   UNL A   1      46.531  34.504  28.866  1.00  0.00     0.064 A 
ATOM    149  C   UNL A   1      47.217  34.866  30.035  1.00  0.00     0.173 A 
ATOM    150  C   UNL A   1      46.495  35.434  27.815  1.00  0.00     0.173 A 
ATOM    151  F   UNL A   1      47.274  34.019  31.074  1.00  0.00    -0.203 F 
ATOM    152  C   UNL A   1      47.812  36.119  30.161  1.00  0.00     0.198 A 
ATOM    153  C   UNL A   1      47.122  36.673  27.931  1.00  0.00     0.198 A 
ATOM    154  F   UNL A   1      45.858  35.141  26.671  1.00  0.00    -0.203 F 
ATOM    155  F   UNL A   1      48.411  36.462  31.310  1.00  0.00    -0.200 F 
ATOM    156  C   UNL A   1      47.770  37.018  29.107  1.00  0.00     0.200 A 
ATOM    157  F   UNL A   1      47.093  37.535  26.906  1.00  0.00    -0.200 F 
ATOM    158  F   UNL A   1      48.349  38.221  29.227  1.00  0.00    -0.200 F 
ENDBRANCH 128 148
BRANCH 131 159
ATOM    159  C   UNL A   1      41.760  25.785  27.776  1.00  0.00     0.064 A 
ATOM    160  C   UNL A   1      40.749  25.649  26.814  1.00  0.00     0.173 A 
ATOM    161  C   UNL A   1      42.069  24.661  28.557  1.00  0.00     0.173 A 
ATOM    162  F   UNL A   1      40.403  26.699  26.055  1.00  0.00    -0.203 F 
ATOM    163  C   UNL A   1      40.059  24.449  26.656  1.00  0.00     0.198 A 
ATOM    164  C   UNL A   1      41.400  23.451  28.376  1.00  0.00     0.198 A 
ATOM    165  F   UNL A   1      43.030  24.733  29.489  1.00  0.00    -0.203 F 
ATOM    166  F   UNL A   1      39.061  24.365  25.766  1.00  0.00    -0.200 F 
ATOM    167  C   UNL A   1      40.388  23.350  27.433  1.00  0.00     0.200 A 
ATOM    168  F   UNL A   1      41.733  22.387  29.119  1.00  0.00    -0.200 F 
ATOM    169  F   UNL A   1      39.727  22.194  27.280  1.00  0.00    -0.200 F 
ENDBRANCH 131 159
BRANCH 146 170
ATOM    170  C   UNL A   1      48.244  27.946  26.400  1.00  0.00     0.064 A 
ATOM    171  C   UNL A   1      49.263  27.439  27.221  1.00  0.00     0.173 A 
ATOM    172  C   UNL A   1      48.359  27.747  25.015  1.00  0.00     0.173 A 
ATOM    173  F   UNL A   1      49.209  27.615  28.550  1.00  0.00    -0.203 F 
ATOM    174  C   UNL A   1      50.365  26.787  26.675  1.00  0.00     0.198 A 
ATOM    175  C   UNL A   1      49.444  27.062  24.475  1.00  0.00     0.198 A 
ATOM    176  F   UNL A   1      47.409  28.203  24.185  1.00  0.00    -0.203 F 
ATOM    177  F   UNL A   1      51.352  26.359  27.474  1.00  0.00    -0.200 F 
ATOM    178  C   UNL A   1      50.450  26.591  25.305  1.00  0.00     0.200 A 
ATOM    179  F   UNL A   1      49.515  26.858  23.153  1.00  0.00    -0.200 F 
ATOM    180  F   UNL A   1      51.507  25.953  24.782  1.00  0.00    -0.200 F 
ENDBRANCH 146 170
ENDBRANCH 111 114
ENDBRANCH 101 104
ENDBRANCH  97 100
ENDBRANCH  94  97
ENDBRANCH   1  94
TORSDOF 21
ENDMDL
