MODEL 1
REMARK VINA RESULT:     -12.9      0.000      0.000
REMARK SMILES CS(=O)(=O)c1ccc(-n2nc(C(F)(F)F)cc2-c2ccc(CC(=O)NCCCCCCNC(=O)c3ccc(-c4c5nc(c(-c6c(F)c(F)c(F)c(F)c6F)c6ccc([nH]6)c(-c6c(F)c(F)c(F)c(F)c6F)c6nc(c(-c7c(F)c(F)c(F)c(F)c7F)c7ccc4[nH]7)C=C6)C=C5)cc3)cc2)cc1
REMARK SMILES IDX 27 1 26 4 25 7 23 8 24 9 22 11 21 14 18 15 19 16 99 17 20 18
REMARK SMILES IDX 98 20 17 24 9 25 10 26 11 27 16 28 8 30 5 31 6 32 101 33
REMARK SMILES IDX 7 34 100 36 2 40 3 41 4 42 1 43 12 47 13 48 14 49 15 50
REMARK SMILES IDX 28 51 29 54 30 57 31 60 32 63 33 64 34 66 35 67 36 68 97 69
REMARK SMILES IDX 37 70 96 72 38 74 39 77 40 78 90 79 41 80 95 81 89 82 91 83
REMARK SMILES IDX 42 84 94 85 88 87 87 89 43 91 75 94 55 95 74 96 56 97 59 98
REMARK SMILES IDX 73 99 92 100 57 101 58 103 72 105 93 106 60 109 44 111
REMARK SMILES IDX 45 112 53 113 46 114 47 115 51 116 54 117 48 118 49 119
REMARK SMILES IDX 52 120 50 121 76 122 77 123 85 124 78 125 79 126 83 127
REMARK SMILES IDX 86 128 80 129 81 130 84 131 82 132 61 133 62 134 70 135
REMARK SMILES IDX 63 136 64 137 68 138 71 139 65 140 66 141 69 142 67 143
REMARK H PARENT 27 2 27 3 26 5 26 6 25 10 22 12 22 13 19 19 99 21 20 22 98 23
REMARK H PARENT 16 29 6 35 101 37 7 38 100 39 1 44 1 45 1 46 28 52 28 53 29 55
REMARK H PARENT 29 56 30 58 30 59 31 61 31 62 32 65 36 71 97 73 37 75 96 76
REMARK H PARENT 95 86 89 88 91 90 94 92 88 93 56 102 59 104 92 107 57 108
REMARK H PARENT 93 110
REMARK Flexibility Score: inf
ROOT
ATOM      1  C   UNL A   1      34.158  20.673  25.469  1.00  0.00    -0.036 C 
ATOM      2  H   UNL A   1      34.987  20.803  24.804  1.00  0.00     0.028 H 
ATOM      3  H   UNL A   1      34.126  19.692  25.895  1.00  0.00     0.028 H 
ENDROOT
BRANCH   1   4
ATOM      4  C   UNL A   1      32.867  20.851  24.668  1.00  0.00     0.017 C 
ATOM      5  H   UNL A   1      32.978  21.688  24.010  1.00  0.00     0.049 H 
ATOM      6  H   UNL A   1      32.687  19.953  24.115  1.00  0.00     0.049 H 
BRANCH   4   7
ATOM      7  N   UNL A   1      31.732  21.083  25.539  1.00  0.00    -0.356 N 
ATOM      8  C   UNL A   1      30.904  22.166  25.608  1.00  0.00     0.224 C 
ATOM      9  O   UNL A   1      30.044  22.194  26.490  1.00  0.00    -0.275 OA
ATOM     10  H   UNL A   1      31.528  20.355  26.170  1.00  0.00     0.163 HD
BRANCH   8  11
ATOM     11  C   UNL A   1      31.020  23.281  24.583  1.00  0.00     0.052 C 
ATOM     12  H   UNL A   1      31.593  22.919  23.754  1.00  0.00     0.042 H 
ATOM     13  H   UNL A   1      30.022  23.552  24.305  1.00  0.00     0.042 H 
BRANCH  11  14
ATOM     14  C   UNL A   1      31.682  24.530  25.109  1.00  0.00    -0.039 A 
ATOM     15  C   UNL A   1      32.829  26.933  25.986  1.00  0.00     0.000 A 
ATOM     16  C   UNL A   1      33.477  26.147  25.025  1.00  0.00    -0.053 A 
ATOM     17  C   UNL A   1      31.635  26.484  26.550  1.00  0.00    -0.053 A 
ATOM     18  C   UNL A   1      32.903  24.959  24.580  1.00  0.00    -0.058 A 
ATOM     19  H   UNL A   1      34.386  26.451  24.641  1.00  0.00     0.063 H 
ATOM     20  C   UNL A   1      31.074  25.281  26.126  1.00  0.00    -0.058 A 
ATOM     21  H   UNL A   1      31.167  27.043  27.280  1.00  0.00     0.063 H 
ATOM     22  H   UNL A   1      33.381  24.393  23.861  1.00  0.00     0.063 H 
ATOM     23  H   UNL A   1      30.203  24.941  26.562  1.00  0.00     0.063 H 
BRANCH  15  24
ATOM     24  C   UNL A   1      33.408  28.194  26.422  1.00  0.00     0.075 A 
ATOM     25  N   UNL A   1      32.988  29.447  26.012  1.00  0.00    -0.233 N 
ATOM     26  N   UNL A   1      33.786  30.441  26.482  1.00  0.00    -0.163 NA
ATOM     27  C   UNL A   1      34.719  29.813  27.228  1.00  0.00     0.167 A 
ATOM     28  C   UNL A   1      34.503  28.413  27.231  1.00  0.00    -0.003 A 
ATOM     29  H   UNL A   1      35.053  27.702  27.736  1.00  0.00     0.067 H 
BRANCH  25  30
ATOM     30  C   UNL A   1      31.882  29.744  25.184  1.00  0.00     0.065 A 
ATOM     31  C   UNL A   1      29.705  30.270  23.533  1.00  0.00     0.067 A 
ATOM     32  C   UNL A   1      29.969  31.105  24.628  1.00  0.00    -0.041 A 
ATOM     33  C   UNL A   1      30.508  29.156  23.280  1.00  0.00    -0.041 A 
ATOM     34  C   UNL A   1      31.064  30.845  25.461  1.00  0.00    -0.035 A 
ATOM     35  H   UNL A   1      29.355  31.913  24.819  1.00  0.00     0.064 H 
ATOM     36  C   UNL A   1      31.589  28.885  24.119  1.00  0.00    -0.035 A 
ATOM     37  H   UNL A   1      30.305  28.538  22.479  1.00  0.00     0.064 H 
ATOM     38  H   UNL A   1      31.265  31.456  26.267  1.00  0.00     0.065 H 
ATOM     39  H   UNL A   1      32.173  28.051  23.956  1.00  0.00     0.065 H 
BRANCH  31  40
ATOM     40  S   UNL A   1      28.262  30.542  22.524  1.00  0.00     0.175 S 
ATOM     41  O   UNL A   1      27.113  30.247  23.372  1.00  0.00    -0.224 OA
ATOM     42  O   UNL A   1      28.464  29.865  21.267  1.00  0.00    -0.224 OA
BRANCH  40  43
ATOM     43  C   UNL A   1      28.240  32.271  22.185  1.00  0.00     0.043 C 
ATOM     44  H   UNL A   1      27.303  32.684  22.493  1.00  0.00     0.040 H 
ATOM     45  H   UNL A   1      28.373  32.431  21.135  1.00  0.00     0.040 H 
ATOM     46  H   UNL A   1      29.034  32.750  22.721  1.00  0.00     0.040 H 
ENDBRANCH  40  43
ENDBRANCH  31  40
ENDBRANCH  25  30
BRANCH  27  47
ATOM     47  C   UNL A   1      35.839  30.530  27.936  1.00  0.00     0.435 C 
ATOM     48  F   UNL A   1      35.969  31.821  27.534  1.00  0.00    -0.164 F 
ATOM     49  F   UNL A   1      35.668  30.547  29.285  1.00  0.00    -0.164 F 
ATOM     50  F   UNL A   1      37.042  29.931  27.710  1.00  0.00    -0.164 F 
ENDBRANCH  27  47
ENDBRANCH  15  24
ENDBRANCH  11  14
ENDBRANCH   8  11
ENDBRANCH   4   7
ENDBRANCH   1   4
BRANCH   1  51
ATOM     51  C   UNL A   1      34.311  21.660  26.633  1.00  0.00    -0.052 C 
ATOM     52  H   UNL A   1      34.725  21.128  27.463  1.00  0.00     0.027 H 
ATOM     53  H   UNL A   1      33.332  22.052  26.814  1.00  0.00     0.027 H 
BRANCH  51  54
ATOM     54  C   UNL A   1      35.206  22.879  26.358  1.00  0.00    -0.052 C 
ATOM     55  H   UNL A   1      35.924  22.942  27.147  1.00  0.00     0.027 H 
ATOM     56  H   UNL A   1      34.541  23.715  26.298  1.00  0.00     0.027 H 
BRANCH  54  57
ATOM     57  C   UNL A   1      35.974  22.871  25.027  1.00  0.00    -0.036 C 
ATOM     58  H   UNL A   1      35.538  23.604  24.380  1.00  0.00     0.028 H 
ATOM     59  H   UNL A   1      35.899  21.880  24.629  1.00  0.00     0.028 H 
BRANCH  57  60
ATOM     60  C   UNL A   1      37.455  23.179  25.172  1.00  0.00     0.018 C 
ATOM     61  H   UNL A   1      37.562  24.152  25.604  1.00  0.00     0.049 H 
ATOM     62  H   UNL A   1      37.895  23.131  24.198  1.00  0.00     0.049 H 
BRANCH  60  63
ATOM     63  N   UNL A   1      38.149  22.209  26.023  1.00  0.00    -0.352 N 
ATOM     64  C   UNL A   1      39.300  22.378  26.770  1.00  0.00     0.251 C 
ATOM     65  H   UNL A   1      37.741  21.314  26.069  1.00  0.00     0.163 HD
ATOM     66  O   UNL A   1      39.980  21.420  27.112  1.00  0.00    -0.269 OA
BRANCH  64  67
ATOM     67  C   UNL A   1      39.683  23.741  27.178  1.00  0.00     0.039 A 
ATOM     68  C   UNL A   1      38.818  24.834  27.052  1.00  0.00    -0.049 A 
ATOM     69  C   UNL A   1      40.959  23.907  27.706  1.00  0.00    -0.049 A 
ATOM     70  C   UNL A   1      39.240  26.082  27.514  1.00  0.00    -0.053 A 
ATOM     71  H   UNL A   1      37.885  24.720  26.626  1.00  0.00     0.063 H 
ATOM     72  C   UNL A   1      41.283  25.068  28.346  1.00  0.00    -0.053 A 
ATOM     73  H   UNL A   1      41.659  23.154  27.614  1.00  0.00     0.063 H 
ATOM     74  C   UNL A   1      40.477  26.183  28.163  1.00  0.00    -0.014 A 
ATOM     75  H   UNL A   1      38.649  26.917  27.380  1.00  0.00     0.063 H 
ATOM     76  H   UNL A   1      42.113  25.116  28.957  1.00  0.00     0.063 H 
BRANCH  74  77
ATOM     77  C   UNL A   1      40.945  27.404  28.806  1.00  0.00     0.031 A 
ATOM     78  C   UNL A   1      42.156  27.979  28.175  1.00  0.00     0.074 A 
ATOM     79  C   UNL A   1      40.172  28.099  29.671  1.00  0.00     0.049 A 
ATOM     80  N   UNL A   1      43.328  28.087  28.703  1.00  0.00    -0.248 NA
ATOM     81  C   UNL A   1      42.112  28.322  26.744  1.00  0.00    -0.034 C 
ATOM     82  C   UNL A   1      38.829  27.775  30.149  1.00  0.00    -0.036 A 
ATOM     83  N   UNL A   1      40.385  29.320  30.233  1.00  0.00    -0.354 N 
ATOM     84  C   UNL A   1      44.107  28.736  27.752  1.00  0.00     0.074 A 
ATOM     85  C   UNL A   1      43.391  28.629  26.511  1.00  0.00    -0.034 C 
ATOM     86  H   UNL A   1      41.310  28.326  26.095  1.00  0.00     0.065 H 
ATOM     87  C   UNL A   1      38.258  28.867  30.712  1.00  0.00    -0.036 A 
ATOM     88  H   UNL A   1      38.380  26.849  30.070  1.00  0.00     0.065 H 
ATOM     89  C   UNL A   1      39.250  29.919  30.791  1.00  0.00     0.049 A 
ATOM     90  H   UNL A   1      41.270  29.751  30.246  1.00  0.00     0.167 HD
ATOM     91  C   UNL A   1      45.114  29.567  28.142  1.00  0.00     0.037 A 
ATOM     92  H   UNL A   1      43.804  28.767  25.575  1.00  0.00     0.065 H 
ATOM     93  H   UNL A   1      37.280  28.938  31.031  1.00  0.00     0.065 H 
ATOM     94  C   UNL A   1      39.156  31.185  31.280  1.00  0.00     0.037 A 
ATOM     95  C   UNL A   1      45.470  29.319  29.522  1.00  0.00     0.049 A 
ATOM     96  C   UNL A   1      40.546  31.641  31.523  1.00  0.00     0.074 A 
ATOM     97  C   UNL A   1      45.860  28.198  30.234  1.00  0.00    -0.036 A 
ATOM     98  N   UNL A   1      45.045  30.219  30.472  1.00  0.00    -0.354 N 
ATOM     99  N   UNL A   1      41.295  31.153  32.470  1.00  0.00    -0.248 NA
ATOM    100  C   UNL A   1      41.245  32.247  30.400  1.00  0.00    -0.034 C 
ATOM    101  C   UNL A   1      45.155  28.284  31.472  1.00  0.00    -0.036 A 
ATOM    102  H   UNL A   1      46.516  27.461  29.934  1.00  0.00     0.065 H 
ATOM    103  C   UNL A   1      44.471  29.498  31.489  1.00  0.00     0.049 A 
ATOM    104  H   UNL A   1      45.137  31.198  30.432  1.00  0.00     0.167 HD
ATOM    105  C   UNL A   1      42.532  30.983  31.872  1.00  0.00     0.074 A 
ATOM    106  C   UNL A   1      42.457  31.725  30.610  1.00  0.00    -0.034 C 
ATOM    107  H   UNL A   1      40.907  32.886  29.663  1.00  0.00     0.065 H 
ATOM    108  H   UNL A   1      45.152  27.574  32.222  1.00  0.00     0.065 H 
ATOM    109  C   UNL A   1      43.383  30.002  32.288  1.00  0.00     0.037 A 
ATOM    110  H   UNL A   1      43.249  31.831  29.959  1.00  0.00     0.065 H 
BRANCH  91 111
ATOM    111  C   UNL A   1      45.481  30.855  27.431  1.00  0.00     0.064 A 
ATOM    112  C   UNL A   1      46.833  31.073  27.094  1.00  0.00     0.173 A 
ATOM    113  C   UNL A   1      44.647  31.991  27.329  1.00  0.00     0.173 A 
ATOM    114  F   UNL A   1      47.723  30.072  27.154  1.00  0.00    -0.203 F 
ATOM    115  C   UNL A   1      47.325  32.345  26.785  1.00  0.00     0.198 A 
ATOM    116  C   UNL A   1      45.132  33.247  26.967  1.00  0.00     0.198 A 
ATOM    117  F   UNL A   1      43.357  31.978  27.673  1.00  0.00    -0.203 F 
ATOM    118  F   UNL A   1      48.641  32.521  26.612  1.00  0.00    -0.200 F 
ATOM    119  C   UNL A   1      46.476  33.432  26.731  1.00  0.00     0.200 A 
ATOM    120  F   UNL A   1      44.290  34.289  26.929  1.00  0.00    -0.200 F 
ATOM    121  F   UNL A   1      46.953  34.661  26.498  1.00  0.00    -0.200 F 
ENDBRANCH  91 111
BRANCH  94 122
ATOM    122  C   UNL A   1      38.030  32.152  31.330  1.00  0.00     0.064 A 
ATOM    123  C   UNL A   1      37.730  32.980  30.233  1.00  0.00     0.173 A 
ATOM    124  C   UNL A   1      37.034  32.045  32.313  1.00  0.00     0.173 A 
ATOM    125  F   UNL A   1      38.618  33.125  29.239  1.00  0.00    -0.203 F 
ATOM    126  C   UNL A   1      36.489  33.614  30.098  1.00  0.00     0.198 A 
ATOM    127  C   UNL A   1      35.795  32.684  32.174  1.00  0.00     0.198 A 
ATOM    128  F   UNL A   1      37.230  31.250  33.371  1.00  0.00    -0.203 F 
ATOM    129  F   UNL A   1      36.220  34.341  29.005  1.00  0.00    -0.200 F 
ATOM    130  C   UNL A   1      35.514  33.448  31.060  1.00  0.00     0.200 A 
ATOM    131  F   UNL A   1      34.835  32.535  33.093  1.00  0.00    -0.200 F 
ATOM    132  F   UNL A   1      34.300  33.996  30.909  1.00  0.00    -0.200 F 
ENDBRANCH  94 122
BRANCH 109 133
ATOM    133  C   UNL A   1      43.055  29.260  33.554  1.00  0.00     0.064 A 
ATOM    134  C   UNL A   1      42.240  28.115  33.625  1.00  0.00     0.173 A 
ATOM    135  C   UNL A   1      43.711  29.650  34.727  1.00  0.00     0.173 A 
ATOM    136  F   UNL A   1      41.657  27.610  32.529  1.00  0.00    -0.203 F 
ATOM    137  C   UNL A   1      42.057  27.427  34.825  1.00  0.00     0.198 A 
ATOM    138  C   UNL A   1      43.558  28.942  35.915  1.00  0.00     0.198 A 
ATOM    139  F   UNL A   1      44.544  30.704  34.710  1.00  0.00    -0.203 F 
ATOM    140  F   UNL A   1      41.266  26.345  34.869  1.00  0.00    -0.200 F 
ATOM    141  C   UNL A   1      42.722  27.839  35.968  1.00  0.00     0.200 A 
ATOM    142  F   UNL A   1      44.245  29.316  37.003  1.00  0.00    -0.200 F 
ATOM    143  F   UNL A   1      42.580  27.158  37.114  1.00  0.00    -0.200 F 
ENDBRANCH 109 133
ENDBRANCH  74  77
ENDBRANCH  64  67
ENDBRANCH  60  63
ENDBRANCH  57  60
ENDBRANCH  54  57
ENDBRANCH  51  54
ENDBRANCH   1  51
TORSDOF 19
ENDMDL
MODEL 2
REMARK VINA RESULT:     -12.4      3.418      8.941
REMARK SMILES CS(=O)(=O)c1ccc(-n2nc(C(F)(F)F)cc2-c2ccc(CC(=O)NCCCCCCNC(=O)c3ccc(-c4c5nc(c(-c6c(F)c(F)c(F)c(F)c6F)c6ccc([nH]6)c(-c6c(F)c(F)c(F)c(F)c6F)c6nc(c(-c7c(F)c(F)c(F)c(F)c7F)c7ccc4[nH]7)C=C6)C=C5)cc3)cc2)cc1
REMARK SMILES IDX 27 1 26 4 25 7 23 8 24 9 22 11 21 14 18 15 19 16 99 17 20 18
REMARK SMILES IDX 98 20 17 24 9 25 10 26 11 27 16 28 8 30 5 31 6 32 101 33
REMARK SMILES IDX 7 34 100 36 2 40 3 41 4 42 1 43 12 47 13 48 14 49 15 50
REMARK SMILES IDX 28 51 29 54 30 57 31 60 32 63 33 64 34 66 35 67 36 68 97 69
REMARK SMILES IDX 37 70 96 72 38 74 39 77 40 78 90 79 41 80 95 81 89 82 91 83
REMARK SMILES IDX 42 84 94 85 88 87 87 89 43 91 75 94 55 95 74 96 56 97 59 98
REMARK SMILES IDX 73 99 92 100 57 101 58 103 72 105 93 106 60 109 44 111
REMARK SMILES IDX 45 112 53 113 46 114 47 115 51 116 54 117 48 118 49 119
REMARK SMILES IDX 52 120 50 121 76 122 77 123 85 124 78 125 79 126 83 127
REMARK SMILES IDX 86 128 80 129 81 130 84 131 82 132 61 133 62 134 70 135
REMARK SMILES IDX 63 136 64 137 68 138 71 139 65 140 66 141 69 142 67 143
REMARK H PARENT 27 2 27 3 26 5 26 6 25 10 22 12 22 13 19 19 99 21 20 22 98 23
REMARK H PARENT 16 29 6 35 101 37 7 38 100 39 1 44 1 45 1 46 28 52 28 53 29 55
REMARK H PARENT 29 56 30 58 30 59 31 61 31 62 32 65 36 71 97 73 37 75 96 76
REMARK H PARENT 95 86 89 88 91 90 94 92 88 93 56 102 59 104 92 107 57 108
REMARK H PARENT 93 110
REMARK Flexibility Score: inf
ROOT
ATOM      1  C   UNL A   1      31.264  28.843  24.029  1.00  0.00    -0.036 C 
ATOM      2  H   UNL A   1      30.397  28.596  23.451  1.00  0.00     0.028 H 
ATOM      3  H   UNL A   1      31.367  29.896  24.185  1.00  0.00     0.028 H 
ENDROOT
BRANCH   1   4
ATOM      4  C   UNL A   1      32.503  28.384  23.258  1.00  0.00     0.017 C 
ATOM      5  H   UNL A   1      33.101  29.239  23.019  1.00  0.00     0.049 H 
ATOM      6  H   UNL A   1      33.048  27.699  23.875  1.00  0.00     0.049 H 
BRANCH   4   7
ATOM      7  N   UNL A   1      32.142  27.702  22.032  1.00  0.00    -0.356 N 
ATOM      8  C   UNL A   1      31.748  26.409  21.847  1.00  0.00     0.224 C 
ATOM      9  O   UNL A   1      31.570  26.006  20.697  1.00  0.00    -0.275 OA
ATOM     10  H   UNL A   1      32.187  28.250  21.215  1.00  0.00     0.163 HD
BRANCH   8  11
ATOM     11  C   UNL A   1      31.490  25.512  23.046  1.00  0.00     0.052 C 
ATOM     12  H   UNL A   1      31.024  26.098  23.812  1.00  0.00     0.042 H 
ATOM     13  H   UNL A   1      30.868  24.710  22.706  1.00  0.00     0.042 H 
BRANCH  11  14
ATOM     14  C   UNL A   1      32.736  24.884  23.620  1.00  0.00    -0.039 A 
ATOM     15  C   UNL A   1      35.125  23.856  24.668  1.00  0.00     0.000 A 
ATOM     16  C   UNL A   1      34.802  23.667  23.318  1.00  0.00    -0.053 A 
ATOM     17  C   UNL A   1      34.221  24.511  25.505  1.00  0.00    -0.053 A 
ATOM     18  C   UNL A   1      33.621  24.186  22.794  1.00  0.00    -0.058 A 
ATOM     19  H   UNL A   1      35.445  23.139  22.707  1.00  0.00     0.063 H 
ATOM     20  C   UNL A   1      33.026  25.007  24.987  1.00  0.00    -0.058 A 
ATOM     21  H   UNL A   1      34.438  24.627  26.507  1.00  0.00     0.063 H 
ATOM     22  H   UNL A   1      33.398  24.054  21.795  1.00  0.00     0.063 H 
ATOM     23  H   UNL A   1      32.350  25.469  25.615  1.00  0.00     0.063 H 
BRANCH  15  24
ATOM     24  C   UNL A   1      36.376  23.348  25.207  1.00  0.00     0.075 A 
ATOM     25  N   UNL A   1      36.646  22.017  25.473  1.00  0.00    -0.233 N 
ATOM     26  N   UNL A   1      37.846  21.845  26.086  1.00  0.00    -0.163 NA
ATOM     27  C   UNL A   1      38.364  23.086  26.189  1.00  0.00     0.167 A 
ATOM     28  C   UNL A   1      37.485  24.047  25.633  1.00  0.00    -0.003 A 
ATOM     29  H   UNL A   1      37.643  25.064  25.562  1.00  0.00     0.067 H 
BRANCH  25  30
ATOM     30  C   UNL A   1      35.815  20.909  25.193  1.00  0.00     0.065 A 
ATOM     31  C   UNL A   1      34.228  18.690  24.647  1.00  0.00     0.067 A 
ATOM     32  C   UNL A   1      33.634  19.884  25.077  1.00  0.00    -0.041 A 
ATOM     33  C   UNL A   1      35.615  18.594  24.518  1.00  0.00    -0.041 A 
ATOM     34  C   UNL A   1      34.429  21.004  25.352  1.00  0.00    -0.035 A 
ATOM     35  H   UNL A   1      32.609  19.938  25.192  1.00  0.00     0.064 H 
ATOM     36  C   UNL A   1      36.410  19.702  24.809  1.00  0.00    -0.035 A 
ATOM     37  H   UNL A   1      36.049  17.710  24.209  1.00  0.00     0.064 H 
ATOM     38  H   UNL A   1      33.998  21.887  25.668  1.00  0.00     0.065 H 
ATOM     39  H   UNL A   1      37.436  19.633  24.741  1.00  0.00     0.065 H 
BRANCH  31  40
ATOM     40  S   UNL A   1      33.232  17.237  24.383  1.00  0.00     0.175 S 
ATOM     41  O   UNL A   1      33.331  16.930  22.961  1.00  0.00    -0.224 OA
ATOM     42  O   UNL A   1      31.956  17.449  25.021  1.00  0.00    -0.224 OA
BRANCH  40  43
ATOM     43  C   UNL A   1      34.043  15.942  25.261  1.00  0.00     0.043 C 
ATOM     44  H   UNL A   1      34.371  16.305  26.212  1.00  0.00     0.040 H 
ATOM     45  H   UNL A   1      34.889  15.604  24.698  1.00  0.00     0.040 H 
ATOM     46  H   UNL A   1      33.364  15.128  25.405  1.00  0.00     0.040 H 
ENDBRANCH  40  43
ENDBRANCH  31  40
ENDBRANCH  25  30
BRANCH  27  47
ATOM     47  C   UNL A   1      39.694  23.381  26.833  1.00  0.00     0.435 C 
ATOM     48  F   UNL A   1      40.463  24.215  26.085  1.00  0.00    -0.164 F 
ATOM     49  F   UNL A   1      39.557  23.957  28.057  1.00  0.00    -0.164 F 
ATOM     50  F   UNL A   1      40.425  22.247  27.022  1.00  0.00    -0.164 F 
ENDBRANCH  27  47
ENDBRANCH  15  24
ENDBRANCH  11  14
ENDBRANCH   8  11
ENDBRANCH   4   7
ENDBRANCH   1   4
BRANCH   1  51
ATOM     51  C   UNL A   1      31.120  28.200  25.415  1.00  0.00    -0.052 C 
ATOM     52  H   UNL A   1      31.588  27.238  25.381  1.00  0.00     0.027 H 
ATOM     53  H   UNL A   1      30.069  28.164  25.613  1.00  0.00     0.027 H 
BRANCH  51  54
ATOM     54  C   UNL A   1      31.741  28.986  26.580  1.00  0.00    -0.052 C 
ATOM     55  H   UNL A   1      31.032  28.999  27.381  1.00  0.00     0.027 H 
ATOM     56  H   UNL A   1      31.973  29.952  26.181  1.00  0.00     0.027 H 
BRANCH  54  57
ATOM     57  C   UNL A   1      33.066  28.444  27.137  1.00  0.00    -0.036 C 
ATOM     58  H   UNL A   1      33.136  27.405  26.891  1.00  0.00     0.028 H 
ATOM     59  H   UNL A   1      33.054  28.613  28.194  1.00  0.00     0.028 H 
BRANCH  57  60
ATOM     60  C   UNL A   1      34.296  29.151  26.590  1.00  0.00     0.018 C 
ATOM     61  H   UNL A   1      34.308  29.042  25.525  1.00  0.00     0.049 H 
ATOM     62  H   UNL A   1      35.156  28.702  27.040  1.00  0.00     0.049 H 
BRANCH  60  63
ATOM     63  N   UNL A   1      34.314  30.578  26.916  1.00  0.00    -0.352 N 
ATOM     64  C   UNL A   1      35.106  31.249  27.830  1.00  0.00     0.251 C 
ATOM     65  H   UNL A   1      33.675  31.137  26.417  1.00  0.00     0.163 HD
ATOM     66  O   UNL A   1      34.769  32.334  28.284  1.00  0.00    -0.269 OA
BRANCH  64  67
ATOM     67  C   UNL A   1      36.388  30.644  28.231  1.00  0.00     0.039 A 
ATOM     68  C   UNL A   1      36.682  29.293  28.014  1.00  0.00    -0.049 A 
ATOM     69  C   UNL A   1      37.317  31.480  28.843  1.00  0.00    -0.049 A 
ATOM     70  C   UNL A   1      37.942  28.813  28.375  1.00  0.00    -0.053 A 
ATOM     71  H   UNL A   1      35.980  28.663  27.595  1.00  0.00     0.063 H 
ATOM     72  C   UNL A   1      38.608  31.064  28.994  1.00  0.00    -0.053 A 
ATOM     73  H   UNL A   1      37.030  32.412  29.181  1.00  0.00     0.063 H 
ATOM     74  C   UNL A   1      38.899  29.714  28.862  1.00  0.00    -0.014 A 
ATOM     75  H   UNL A   1      38.167  27.810  28.284  1.00  0.00     0.063 H 
ATOM     76  H   UNL A   1      39.356  31.743  29.201  1.00  0.00     0.063 H 
BRANCH  74  77
ATOM     77  C   UNL A   1      40.281  29.343  29.131  1.00  0.00     0.031 A 
ATOM     78  C   UNL A   1      40.604  29.267  30.575  1.00  0.00     0.074 A 
ATOM     79  C   UNL A   1      41.080  28.817  28.175  1.00  0.00     0.049 A 
ATOM     80  N   UNL A   1      41.418  30.025  31.228  1.00  0.00    -0.248 NA
ATOM     81  C   UNL A   1      39.819  28.359  31.428  1.00  0.00    -0.034 C 
ATOM     82  C   UNL A   1      40.771  28.574  26.767  1.00  0.00    -0.036 A 
ATOM     83  N   UNL A   1      42.325  28.279  28.288  1.00  0.00    -0.354 N 
ATOM     84  C   UNL A   1      41.426  29.530  32.528  1.00  0.00     0.074 A 
ATOM     85  C   UNL A   1      40.266  28.691  32.641  1.00  0.00    -0.034 C 
ATOM     86  H   UNL A   1      39.113  27.655  31.160  1.00  0.00     0.065 H 
ATOM     87  C   UNL A   1      41.681  27.727  26.229  1.00  0.00    -0.036 A 
ATOM     88  H   UNL A   1      39.975  28.988  26.256  1.00  0.00     0.065 H 
ATOM     89  C   UNL A   1      42.732  27.502  27.198  1.00  0.00     0.049 A 
ATOM     90  H   UNL A   1      42.897  28.425  29.076  1.00  0.00     0.167 HD
ATOM     91  C   UNL A   1      42.557  29.612  33.285  1.00  0.00     0.037 A 
ATOM     92  H   UNL A   1      39.839  28.388  33.531  1.00  0.00     0.065 H 
ATOM     93  H   UNL A   1      41.633  27.312  25.286  1.00  0.00     0.065 H 
ATOM     94  C   UNL A   1      43.857  26.740  27.118  1.00  0.00     0.037 A 
ATOM     95  C   UNL A   1      43.469  30.588  32.729  1.00  0.00     0.049 A 
ATOM     96  C   UNL A   1      44.768  27.230  28.181  1.00  0.00     0.074 A 
ATOM     97  C   UNL A   1      43.366  31.926  32.392  1.00  0.00    -0.036 A 
ATOM     98  N   UNL A   1      44.571  30.129  32.045  1.00  0.00    -0.354 N 
ATOM     99  N   UNL A   1      45.352  28.393  28.133  1.00  0.00    -0.248 NA
ATOM    100  C   UNL A   1      44.604  26.649  29.506  1.00  0.00    -0.034 C 
ATOM    101  C   UNL A   1      44.054  32.047  31.147  1.00  0.00    -0.036 A 
ATOM    102  H   UNL A   1      42.895  32.673  32.925  1.00  0.00     0.065 H 
ATOM    103  C   UNL A   1      44.627  30.811  30.856  1.00  0.00     0.049 A 
ATOM    104  H   UNL A   1      45.203  29.439  32.351  1.00  0.00     0.167 HD
ATOM    105  C   UNL A   1      45.226  28.890  29.418  1.00  0.00     0.074 A 
ATOM    106  C   UNL A   1      44.804  27.750  30.235  1.00  0.00    -0.034 C 
ATOM    107  H   UNL A   1      44.396  25.680  29.794  1.00  0.00     0.065 H 
ATOM    108  H   UNL A   1      44.115  32.898  30.566  1.00  0.00     0.065 H 
ATOM    109  C   UNL A   1      45.155  30.234  29.646  1.00  0.00     0.037 A 
ATOM    110  H   UNL A   1      44.675  27.792  31.258  1.00  0.00     0.065 H 
BRANCH  91 111
ATOM    111  C   UNL A   1      43.012  28.542  34.256  1.00  0.00     0.064 A 
ATOM    112  C   UNL A   1      43.386  28.933  35.559  1.00  0.00     0.173 A 
ATOM    113  C   UNL A   1      43.375  27.223  33.901  1.00  0.00     0.173 A 
ATOM    114  F   UNL A   1      43.099  30.163  36.012  1.00  0.00    -0.203 F 
ATOM    115  C   UNL A   1      44.151  28.111  36.391  1.00  0.00     0.198 A 
ATOM    116  C   UNL A   1      44.091  26.386  34.755  1.00  0.00     0.198 A 
ATOM    117  F   UNL A   1      43.158  26.713  32.686  1.00  0.00    -0.203 F 
ATOM    118  F   UNL A   1      44.599  28.586  37.561  1.00  0.00    -0.200 F 
ATOM    119  C   UNL A   1      44.510  26.842  35.985  1.00  0.00     0.200 A 
ATOM    120  F   UNL A   1      44.435  25.160  34.335  1.00  0.00    -0.200 F 
ATOM    121  F   UNL A   1      45.296  26.076  36.752  1.00  0.00    -0.200 F 
ENDBRANCH  91 111
BRANCH  94 122
ATOM    122  C   UNL A   1      44.153  25.472  26.403  1.00  0.00     0.064 A 
ATOM    123  C   UNL A   1      45.189  25.394  25.455  1.00  0.00     0.173 A 
ATOM    124  C   UNL A   1      43.656  24.248  26.876  1.00  0.00     0.173 A 
ATOM    125  F   UNL A   1      45.735  26.515  24.963  1.00  0.00    -0.203 F 
ATOM    126  C   UNL A   1      45.733  24.170  25.048  1.00  0.00     0.198 A 
ATOM    127  C   UNL A   1      44.202  23.026  26.464  1.00  0.00     0.198 A 
ATOM    128  F   UNL A   1      42.693  24.239  27.805  1.00  0.00    -0.203 F 
ATOM    129  F   UNL A   1      46.763  24.142  24.191  1.00  0.00    -0.200 F 
ATOM    130  C   UNL A   1      45.252  22.987  25.570  1.00  0.00     0.200 A 
ATOM    131  F   UNL A   1      43.753  21.868  26.958  1.00  0.00    -0.200 F 
ATOM    132  F   UNL A   1      45.810  21.813  25.238  1.00  0.00    -0.200 F 
ENDBRANCH  94 122
BRANCH 109 133
ATOM    133  C   UNL A   1      45.450  31.169  28.506  1.00  0.00     0.064 A 
ATOM    134  C   UNL A   1      44.518  31.557  27.526  1.00  0.00     0.173 A 
ATOM    135  C   UNL A   1      46.697  31.806  28.491  1.00  0.00     0.173 A 
ATOM    136  F   UNL A   1      43.268  31.077  27.529  1.00  0.00    -0.203 F 
ATOM    137  C   UNL A   1      44.842  32.503  26.552  1.00  0.00     0.198 A 
ATOM    138  C   UNL A   1      47.005  32.776  27.541  1.00  0.00     0.198 A 
ATOM    139  F   UNL A   1      47.609  31.516  29.433  1.00  0.00    -0.203 F 
ATOM    140  F   UNL A   1      43.939  32.848  25.621  1.00  0.00    -0.200 F 
ATOM    141  C   UNL A   1      46.084  33.115  26.565  1.00  0.00     0.200 A 
ATOM    142  F   UNL A   1      48.189  33.400  27.593  1.00  0.00    -0.200 F 
ATOM    143  F   UNL A   1      46.384  34.052  25.655  1.00  0.00    -0.200 F 
ENDBRANCH 109 133
ENDBRANCH  74  77
ENDBRANCH  64  67
ENDBRANCH  60  63
ENDBRANCH  57  60
ENDBRANCH  54  57
ENDBRANCH  51  54
ENDBRANCH   1  51
TORSDOF 19
ENDMDL
MODEL 3
REMARK VINA RESULT:     -11.9      3.560      9.024
REMARK SMILES CS(=O)(=O)c1ccc(-n2nc(C(F)(F)F)cc2-c2ccc(CC(=O)NCCCCCCNC(=O)c3ccc(-c4c5nc(c(-c6c(F)c(F)c(F)c(F)c6F)c6ccc([nH]6)c(-c6c(F)c(F)c(F)c(F)c6F)c6nc(c(-c7c(F)c(F)c(F)c(F)c7F)c7ccc4[nH]7)C=C6)C=C5)cc3)cc2)cc1
REMARK SMILES IDX 27 1 26 4 25 7 23 8 24 9 22 11 21 14 18 15 19 16 99 17 20 18
REMARK SMILES IDX 98 20 17 24 9 25 10 26 11 27 16 28 8 30 5 31 6 32 101 33
REMARK SMILES IDX 7 34 100 36 2 40 3 41 4 42 1 43 12 47 13 48 14 49 15 50
REMARK SMILES IDX 28 51 29 54 30 57 31 60 32 63 33 64 34 66 35 67 36 68 97 69
REMARK SMILES IDX 37 70 96 72 38 74 39 77 40 78 90 79 41 80 95 81 89 82 91 83
REMARK SMILES IDX 42 84 94 85 88 87 87 89 43 91 75 94 55 95 74 96 56 97 59 98
REMARK SMILES IDX 73 99 92 100 57 101 58 103 72 105 93 106 60 109 44 111
REMARK SMILES IDX 45 112 53 113 46 114 47 115 51 116 54 117 48 118 49 119
REMARK SMILES IDX 52 120 50 121 76 122 77 123 85 124 78 125 79 126 83 127
REMARK SMILES IDX 86 128 80 129 81 130 84 131 82 132 61 133 62 134 70 135
REMARK SMILES IDX 63 136 64 137 68 138 71 139 65 140 66 141 69 142 67 143
REMARK H PARENT 27 2 27 3 26 5 26 6 25 10 22 12 22 13 19 19 99 21 20 22 98 23
REMARK H PARENT 16 29 6 35 101 37 7 38 100 39 1 44 1 45 1 46 28 52 28 53 29 55
REMARK H PARENT 29 56 30 58 30 59 31 61 31 62 32 65 36 71 97 73 37 75 96 76
REMARK H PARENT 95 86 89 88 91 90 94 92 88 93 56 102 59 104 92 107 57 108
REMARK H PARENT 93 110
REMARK Flexibility Score: inf
ROOT
ATOM      1  C   UNL A   1      31.615  28.517  24.990  1.00  0.00    -0.036 C 
ATOM      2  H   UNL A   1      31.532  29.519  24.622  1.00  0.00     0.028 H 
ATOM      3  H   UNL A   1      32.550  28.063  24.736  1.00  0.00     0.028 H 
ENDROOT
BRANCH   1   4
ATOM      4  C   UNL A   1      30.519  27.672  24.336  1.00  0.00     0.017 C 
ATOM      5  H   UNL A   1      30.464  26.727  24.834  1.00  0.00     0.049 H 
ATOM      6  H   UNL A   1      29.592  28.201  24.421  1.00  0.00     0.049 H 
BRANCH   4   7
ATOM      7  N   UNL A   1      30.789  27.451  22.930  1.00  0.00    -0.356 N 
ATOM      8  C   UNL A   1      31.141  26.298  22.290  1.00  0.00     0.224 C 
ATOM      9  O   UNL A   1      31.411  26.350  21.089  1.00  0.00    -0.275 OA
ATOM     10  H   UNL A   1      30.705  28.245  22.354  1.00  0.00     0.163 HD
BRANCH   8  11
ATOM     11  C   UNL A   1      31.148  24.979  23.043  1.00  0.00     0.052 C 
ATOM     12  H   UNL A   1      30.441  25.044  23.845  1.00  0.00     0.042 H 
ATOM     13  H   UNL A   1      30.898  24.216  22.336  1.00  0.00     0.042 H 
BRANCH  11  14
ATOM     14  C   UNL A   1      32.492  24.613  23.624  1.00  0.00    -0.039 A 
ATOM     15  C   UNL A   1      34.937  23.786  24.717  1.00  0.00     0.000 A 
ATOM     16  C   UNL A   1      33.950  24.352  25.534  1.00  0.00    -0.053 A 
ATOM     17  C   UNL A   1      34.720  23.689  23.342  1.00  0.00    -0.053 A 
ATOM     18  C   UNL A   1      32.731  24.753  24.994  1.00  0.00    -0.058 A 
ATOM     19  H   UNL A   1      34.127  24.471  26.544  1.00  0.00     0.063 H 
ATOM     20  C   UNL A   1      33.510  24.116  22.798  1.00  0.00    -0.058 A 
ATOM     21  H   UNL A   1      35.454  23.302  22.730  1.00  0.00     0.063 H 
ATOM     22  H   UNL A   1      32.004  25.155  25.607  1.00  0.00     0.063 H 
ATOM     23  H   UNL A   1      33.363  24.065  21.778  1.00  0.00     0.063 H 
BRANCH  15  24
ATOM     24  C   UNL A   1      36.196  23.330  25.286  1.00  0.00     0.075 A 
ATOM     25  N   UNL A   1      36.515  22.013  25.561  1.00  0.00    -0.233 N 
ATOM     26  N   UNL A   1      37.706  21.891  26.201  1.00  0.00    -0.163 NA
ATOM     27  C   UNL A   1      38.170  23.152  26.314  1.00  0.00     0.167 A 
ATOM     28  C   UNL A   1      37.265  24.076  25.736  1.00  0.00    -0.003 A 
ATOM     29  H   UNL A   1      37.382  25.098  25.666  1.00  0.00     0.067 H 
BRANCH  25  30
ATOM     30  C   UNL A   1      35.737  20.870  25.264  1.00  0.00     0.065 A 
ATOM     31  C   UNL A   1      34.158  18.658  24.672  1.00  0.00     0.067 A 
ATOM     32  C   UNL A   1      35.550  18.580  24.529  1.00  0.00    -0.041 A 
ATOM     33  C   UNL A   1      33.552  19.848  25.081  1.00  0.00    -0.041 A 
ATOM     34  C   UNL A   1      36.349  19.691  24.827  1.00  0.00    -0.035 A 
ATOM     35  H   UNL A   1      35.986  17.702  24.204  1.00  0.00     0.064 H 
ATOM     36  C   UNL A   1      34.345  20.961  25.361  1.00  0.00    -0.035 A 
ATOM     37  H   UNL A   1      32.526  19.904  25.176  1.00  0.00     0.064 H 
ATOM     38  H   UNL A   1      37.374  19.640  24.726  1.00  0.00     0.065 H 
ATOM     39  H   UNL A   1      33.905  21.851  25.639  1.00  0.00     0.065 H 
BRANCH  31  40
ATOM     40  S   UNL A   1      33.129  17.279  24.209  1.00  0.00     0.175 S 
ATOM     41  O   UNL A   1      33.409  17.020  22.802  1.00  0.00    -0.224 OA
ATOM     42  O   UNL A   1      31.791  17.546  24.674  1.00  0.00    -0.224 OA
BRANCH  40  43
ATOM     43  C   UNL A   1      33.736  15.905  25.131  1.00  0.00     0.043 C 
ATOM     44  H   UNL A   1      34.287  15.256  24.484  1.00  0.00     0.040 H 
ATOM     45  H   UNL A   1      32.912  15.369  25.557  1.00  0.00     0.040 H 
ATOM     46  H   UNL A   1      34.376  16.255  25.914  1.00  0.00     0.040 H 
ENDBRANCH  40  43
ENDBRANCH  31  40
ENDBRANCH  25  30
BRANCH  27  47
ATOM     47  C   UNL A   1      39.472  23.504  26.987  1.00  0.00     0.435 C 
ATOM     48  F   UNL A   1      39.991  22.466  27.695  1.00  0.00    -0.164 F 
ATOM     49  F   UNL A   1      40.423  23.894  26.097  1.00  0.00    -0.164 F 
ATOM     50  F   UNL A   1      39.323  24.534  27.866  1.00  0.00    -0.164 F 
ENDBRANCH  27  47
ENDBRANCH  15  24
ENDBRANCH  11  14
ENDBRANCH   8  11
ENDBRANCH   4   7
ENDBRANCH   1   4
BRANCH   1  51
ATOM     51  C   UNL A   1      31.539  28.556  26.522  1.00  0.00    -0.052 C 
ATOM     52  H   UNL A   1      31.044  27.667  26.849  1.00  0.00     0.027 H 
ATOM     53  H   UNL A   1      31.017  29.458  26.765  1.00  0.00     0.027 H 
BRANCH  51  54
ATOM     54  C   UNL A   1      32.889  28.643  27.252  1.00  0.00    -0.052 C 
ATOM     55  H   UNL A   1      33.090  27.684  27.681  1.00  0.00     0.027 H 
ATOM     56  H   UNL A   1      32.777  29.432  27.966  1.00  0.00     0.027 H 
BRANCH  54  57
ATOM     57  C   UNL A   1      34.101  29.035  26.394  1.00  0.00    -0.036 C 
ATOM     58  H   UNL A   1      33.828  29.871  25.783  1.00  0.00     0.028 H 
ATOM     59  H   UNL A   1      34.365  28.175  25.813  1.00  0.00     0.028 H 
BRANCH  57  60
ATOM     60  C   UNL A   1      35.329  29.414  27.205  1.00  0.00     0.018 C 
ATOM     61  H   UNL A   1      36.157  29.535  26.537  1.00  0.00     0.049 H 
ATOM     62  H   UNL A   1      35.507  28.631  27.912  1.00  0.00     0.049 H 
BRANCH  60  63
ATOM     63  N   UNL A   1      35.145  30.659  27.954  1.00  0.00    -0.352 N 
ATOM     64  C   UNL A   1      35.693  31.030  29.168  1.00  0.00     0.251 C 
ATOM     65  H   UNL A   1      34.549  31.322  27.537  1.00  0.00     0.163 HD
ATOM     66  O   UNL A   1      35.173  31.896  29.860  1.00  0.00    -0.269 OA
BRANCH  64  67
ATOM     67  C   UNL A   1      36.941  30.382  29.607  1.00  0.00     0.039 A 
ATOM     68  C   UNL A   1      36.958  29.129  30.231  1.00  0.00    -0.049 A 
ATOM     69  C   UNL A   1      38.126  31.071  29.374  1.00  0.00    -0.049 A 
ATOM     70  C   UNL A   1      38.188  28.562  30.566  1.00  0.00    -0.053 A 
ATOM     71  H   UNL A   1      36.076  28.634  30.439  1.00  0.00     0.063 H 
ATOM     72  C   UNL A   1      39.323  30.426  29.504  1.00  0.00    -0.053 A 
ATOM     73  H   UNL A   1      38.101  32.066  29.102  1.00  0.00     0.063 H 
ATOM     74  C   UNL A   1      39.365  29.223  30.193  1.00  0.00    -0.014 A 
ATOM     75  H   UNL A   1      38.230  27.669  31.081  1.00  0.00     0.063 H 
ATOM     76  H   UNL A   1      40.181  30.827  29.096  1.00  0.00     0.063 H 
BRANCH  74  77
ATOM     77  C   UNL A   1      40.693  28.650  30.367  1.00  0.00     0.031 A 
ATOM     78  C   UNL A   1      41.125  28.576  31.782  1.00  0.00     0.074 A 
ATOM     79  C   UNL A   1      41.315  27.970  29.377  1.00  0.00     0.049 A 
ATOM     80  N   UNL A   1      42.100  29.220  32.329  1.00  0.00    -0.248 NA
ATOM     81  C   UNL A   1      40.288  27.834  32.739  1.00  0.00    -0.034 C 
ATOM     82  C   UNL A   1      40.850  27.728  28.012  1.00  0.00    -0.036 A 
ATOM     83  N   UNL A   1      42.468  27.248  29.415  1.00  0.00    -0.354 N 
ATOM     84  C   UNL A   1      42.146  28.777  33.646  1.00  0.00     0.074 A 
ATOM     85  C   UNL A   1      40.885  28.135  33.895  1.00  0.00    -0.034 C 
ATOM     86  H   UNL A   1      39.462  27.241  32.565  1.00  0.00     0.065 H 
ATOM     87  C   UNL A   1      41.569  26.729  27.445  1.00  0.00    -0.036 A 
ATOM     88  H   UNL A   1      40.085  28.242  27.547  1.00  0.00     0.065 H 
ATOM     89  C   UNL A   1      42.654  26.377  28.335  1.00  0.00     0.049 A 
ATOM     90  H   UNL A   1      43.122  27.331  30.146  1.00  0.00     0.167 HD
ATOM     91  C   UNL A   1      43.338  28.708  34.304  1.00  0.00     0.037 A 
ATOM     92  H   UNL A   1      40.497  27.936  34.830  1.00  0.00     0.065 H 
ATOM     93  H   UNL A   1      41.375  26.293  26.530  1.00  0.00     0.065 H 
ATOM     94  C   UNL A   1      43.638  25.446  28.202  1.00  0.00     0.037 A 
ATOM     95  C   UNL A   1      44.337  29.508  33.629  1.00  0.00     0.049 A 
ATOM     96  C   UNL A   1      44.702  25.825  29.163  1.00  0.00     0.074 A 
ATOM     97  C   UNL A   1      44.411  30.832  33.236  1.00  0.00    -0.036 A 
ATOM     98  N   UNL A   1      45.291  28.857  32.882  1.00  0.00    -0.354 N 
ATOM     99  N   UNL A   1      45.451  26.880  29.010  1.00  0.00    -0.248 NA
ATOM    100  C   UNL A   1      44.568  25.325  30.524  1.00  0.00    -0.034 C 
ATOM    101  C   UNL A   1      44.997  30.799  31.935  1.00  0.00    -0.036 A 
ATOM    102  H   UNL A   1      44.108  31.663  33.768  1.00  0.00     0.065 H 
ATOM    103  C   UNL A   1      45.346  29.479  31.660  1.00  0.00     0.049 A 
ATOM    104  H   UNL A   1      45.834  28.088  33.170  1.00  0.00     0.167 HD
ATOM    105  C   UNL A   1      45.515  27.437  30.275  1.00  0.00     0.074 A 
ATOM    106  C   UNL A   1      44.997  26.407  31.180  1.00  0.00    -0.034 C 
ATOM    107  H   UNL A   1      44.239  24.412  30.875  1.00  0.00     0.065 H 
ATOM    108  H   UNL A   1      45.137  31.608  31.310  1.00  0.00     0.065 H 
ATOM    109  C   UNL A   1      45.672  28.782  30.442  1.00  0.00     0.037 A 
ATOM    110  H   UNL A   1      44.966  26.506  32.206  1.00  0.00     0.065 H 
BRANCH  91 111
ATOM    111  C   UNL A   1      43.706  27.616  35.288  1.00  0.00     0.064 A 
ATOM    112  C   UNL A   1      44.360  27.982  36.484  1.00  0.00     0.173 A 
ATOM    113  C   UNL A   1      43.720  26.233  34.998  1.00  0.00     0.173 A 
ATOM    114  F   UNL A   1      44.417  29.266  36.866  1.00  0.00    -0.203 F 
ATOM    115  C   UNL A   1      45.057  27.054  37.262  1.00  0.00     0.198 A 
ATOM    116  C   UNL A   1      44.370  25.303  35.808  1.00  0.00     0.198 A 
ATOM    117  F   UNL A   1      43.206  25.721  33.877  1.00  0.00    -0.203 F 
ATOM    118  F   UNL A   1      45.778  27.478  38.309  1.00  0.00    -0.200 F 
ATOM    119  C   UNL A   1      45.070  25.717  36.919  1.00  0.00     0.200 A 
ATOM    120  F   UNL A   1      44.376  24.011  35.449  1.00  0.00    -0.200 F 
ATOM    121  F   UNL A   1      45.789  24.837  37.626  1.00  0.00    -0.200 F 
ENDBRANCH  91 111
BRANCH  94 122
ATOM    122  C   UNL A   1      43.672  24.122  27.530  1.00  0.00     0.064 A 
ATOM    123  C   UNL A   1      43.159  22.972  28.158  1.00  0.00     0.173 A 
ATOM    124  C   UNL A   1      43.894  24.023  26.148  1.00  0.00     0.173 A 
ATOM    125  F   UNL A   1      42.900  22.985  29.473  1.00  0.00    -0.203 F 
ATOM    126  C   UNL A   1      42.835  21.815  27.439  1.00  0.00     0.198 A 
ATOM    127  C   UNL A   1      43.570  22.863  25.434  1.00  0.00     0.198 A 
ATOM    128  F   UNL A   1      44.348  25.086  25.473  1.00  0.00    -0.203 F 
ATOM    129  F   UNL A   1      42.288  20.765  28.065  1.00  0.00    -0.200 F 
ATOM    130  C   UNL A   1      43.021  21.770  26.072  1.00  0.00     0.200 A 
ATOM    131  F   UNL A   1      43.740  22.797  24.110  1.00  0.00    -0.200 F 
ATOM    132  F   UNL A   1      42.653  20.692  25.365  1.00  0.00    -0.200 F 
ENDBRANCH  94 122
BRANCH 109 133
ATOM    133  C   UNL A   1      46.006  29.618  29.237  1.00  0.00     0.064 A 
ATOM    134  C   UNL A   1      45.057  30.196  28.374  1.00  0.00     0.173 A 
ATOM    135  C   UNL A   1      47.348  29.959  29.032  1.00  0.00     0.173 A 
ATOM    136  F   UNL A   1      43.744  30.007  28.561  1.00  0.00    -0.203 F 
ATOM    137  C   UNL A   1      45.443  31.036  27.329  1.00  0.00     0.198 A 
ATOM    138  C   UNL A   1      47.729  30.827  28.012  1.00  0.00     0.198 A 
ATOM    139  F   UNL A   1      48.294  29.480  29.855  1.00  0.00    -0.203 F 
ATOM    140  F   UNL A   1      44.520  31.566  26.513  1.00  0.00    -0.200 F 
ATOM    141  C   UNL A   1      46.780  31.355  27.154  1.00  0.00     0.200 A 
ATOM    142  F   UNL A   1      49.017  31.170  27.882  1.00  0.00    -0.200 F 
ATOM    143  F   UNL A   1      47.151  32.193  26.176  1.00  0.00    -0.200 F 
ENDBRANCH 109 133
ENDBRANCH  74  77
ENDBRANCH  64  67
ENDBRANCH  60  63
ENDBRANCH  57  60
ENDBRANCH  54  57
ENDBRANCH  51  54
ENDBRANCH   1  51
TORSDOF 19
ENDMDL
MODEL 4
REMARK VINA RESULT:     -11.9      3.999      8.076
REMARK SMILES CS(=O)(=O)c1ccc(-n2nc(C(F)(F)F)cc2-c2ccc(CC(=O)NCCCCCCNC(=O)c3ccc(-c4c5nc(c(-c6c(F)c(F)c(F)c(F)c6F)c6ccc([nH]6)c(-c6c(F)c(F)c(F)c(F)c6F)c6nc(c(-c7c(F)c(F)c(F)c(F)c7F)c7ccc4[nH]7)C=C6)C=C5)cc3)cc2)cc1
REMARK SMILES IDX 27 1 26 4 25 7 23 8 24 9 22 11 21 14 18 15 19 16 99 17 20 18
REMARK SMILES IDX 98 20 17 24 9 25 10 26 11 27 16 28 8 30 5 31 6 32 101 33
REMARK SMILES IDX 7 34 100 36 2 40 3 41 4 42 1 43 12 47 13 48 14 49 15 50
REMARK SMILES IDX 28 51 29 54 30 57 31 60 32 63 33 64 34 66 35 67 36 68 97 69
REMARK SMILES IDX 37 70 96 72 38 74 39 77 40 78 90 79 41 80 95 81 89 82 91 83
REMARK SMILES IDX 42 84 94 85 88 87 87 89 43 91 75 94 55 95 74 96 56 97 59 98
REMARK SMILES IDX 73 99 92 100 57 101 58 103 72 105 93 106 60 109 44 111
REMARK SMILES IDX 45 112 53 113 46 114 47 115 51 116 54 117 48 118 49 119
REMARK SMILES IDX 52 120 50 121 76 122 77 123 85 124 78 125 79 126 83 127
REMARK SMILES IDX 86 128 80 129 81 130 84 131 82 132 61 133 62 134 70 135
REMARK SMILES IDX 63 136 64 137 68 138 71 139 65 140 66 141 69 142 67 143
REMARK H PARENT 27 2 27 3 26 5 26 6 25 10 22 12 22 13 19 19 99 21 20 22 98 23
REMARK H PARENT 16 29 6 35 101 37 7 38 100 39 1 44 1 45 1 46 28 52 28 53 29 55
REMARK H PARENT 29 56 30 58 30 59 31 61 31 62 32 65 36 71 97 73 37 75 96 76
REMARK H PARENT 95 86 89 88 91 90 94 92 88 93 56 102 59 104 92 107 57 108
REMARK H PARENT 93 110
REMARK Flexibility Score: inf
ROOT
ATOM      1  C   UNL A   1      31.776  29.190  25.179  1.00  0.00    -0.036 C 
ATOM      2  H   UNL A   1      31.454  29.074  26.193  1.00  0.00     0.028 H 
ATOM      3  H   UNL A   1      31.636  30.188  24.817  1.00  0.00     0.028 H 
ENDROOT
BRANCH   1   4
ATOM      4  C   UNL A   1      30.926  28.274  24.296  1.00  0.00     0.017 C 
ATOM      5  H   UNL A   1      30.017  28.778  24.043  1.00  0.00     0.049 H 
ATOM      6  H   UNL A   1      31.489  28.039  23.416  1.00  0.00     0.049 H 
BRANCH   4   7
ATOM      7  N   UNL A   1      30.606  27.034  24.974  1.00  0.00    -0.356 N 
ATOM      8  C   UNL A   1      30.972  25.758  24.658  1.00  0.00     0.224 C 
ATOM      9  O   UNL A   1      30.512  24.831  25.327  1.00  0.00    -0.275 OA
ATOM     10  H   UNL A   1      30.044  27.125  25.777  1.00  0.00     0.163 HD
BRANCH   8  11
ATOM     11  C   UNL A   1      31.964  25.505  23.535  1.00  0.00     0.052 C 
ATOM     12  H   UNL A   1      31.518  24.826  22.838  1.00  0.00     0.042 H 
ATOM     13  H   UNL A   1      32.187  26.455  23.099  1.00  0.00     0.042 H 
BRANCH  11  14
ATOM     14  C   UNL A   1      33.274  24.917  23.998  1.00  0.00    -0.039 A 
ATOM     15  C   UNL A   1      35.633  23.691  24.888  1.00  0.00     0.000 A 
ATOM     16  C   UNL A   1      34.882  24.497  25.753  1.00  0.00    -0.053 A 
ATOM     17  C   UNL A   1      35.232  23.548  23.559  1.00  0.00    -0.053 A 
ATOM     18  C   UNL A   1      33.705  25.097  25.315  1.00  0.00    -0.058 A 
ATOM     19  H   UNL A   1      35.203  24.646  26.723  1.00  0.00     0.063 H 
ATOM     20  C   UNL A   1      34.068  24.172  23.113  1.00  0.00    -0.058 A 
ATOM     21  H   UNL A   1      35.797  22.981  22.908  1.00  0.00     0.063 H 
ATOM     22  H   UNL A   1      33.149  25.677  25.964  1.00  0.00     0.063 H 
ATOM     23  H   UNL A   1      33.788  24.083  22.124  1.00  0.00     0.063 H 
BRANCH  15  24
ATOM     24  C   UNL A   1      36.843  23.032  25.355  1.00  0.00     0.075 A 
ATOM     25  N   UNL A   1      36.988  21.668  25.535  1.00  0.00    -0.233 N 
ATOM     26  N   UNL A   1      38.180  21.342  26.096  1.00  0.00    -0.163 NA
ATOM     27  C   UNL A   1      38.821  22.519  26.254  1.00  0.00     0.167 A 
ATOM     28  C   UNL A   1      38.027  23.593  25.785  1.00  0.00    -0.003 A 
ATOM     29  H   UNL A   1      38.282  24.592  25.767  1.00  0.00     0.067 H 
BRANCH  25  30
ATOM     30  C   UNL A   1      36.044  20.664  25.217  1.00  0.00     0.065 A 
ATOM     31  C   UNL A   1      34.231  18.648  24.595  1.00  0.00     0.067 A 
ATOM     32  C   UNL A   1      33.772  19.856  25.135  1.00  0.00    -0.041 A 
ATOM     33  C   UNL A   1      35.596  18.433  24.393  1.00  0.00    -0.041 A 
ATOM     34  C   UNL A   1      34.680  20.875  25.449  1.00  0.00    -0.035 A 
ATOM     35  H   UNL A   1      32.762  19.996  25.301  1.00  0.00     0.064 H 
ATOM     36  C   UNL A   1      36.505  19.440  24.722  1.00  0.00    -0.035 A 
ATOM     37  H   UNL A   1      35.932  17.538  24.004  1.00  0.00     0.064 H 
ATOM     38  H   UNL A   1      34.349  21.767  25.845  1.00  0.00     0.065 H 
ATOM     39  H   UNL A   1      37.516  19.282  24.601  1.00  0.00     0.065 H 
BRANCH  31  40
ATOM     40  S   UNL A   1      33.092  17.315  24.278  1.00  0.00     0.175 S 
ATOM     41  O   UNL A   1      33.255  16.968  22.872  1.00  0.00    -0.224 OA
ATOM     42  O   UNL A   1      31.808  17.690  24.816  1.00  0.00    -0.224 OA
BRANCH  40  43
ATOM     43  C   UNL A   1      33.678  15.954  25.232  1.00  0.00     0.043 C 
ATOM     44  H   UNL A   1      32.904  15.618  25.888  1.00  0.00     0.040 H 
ATOM     45  H   UNL A   1      34.526  16.261  25.808  1.00  0.00     0.040 H 
ATOM     46  H   UNL A   1      33.962  15.156  24.577  1.00  0.00     0.040 H 
ENDBRANCH  40  43
ENDBRANCH  31  40
ENDBRANCH  25  30
BRANCH  27  47
ATOM     47  C   UNL A   1      40.191  22.644  26.870  1.00  0.00     0.435 C 
ATOM     48  F   UNL A   1      40.233  23.566  27.868  1.00  0.00    -0.164 F 
ATOM     49  F   UNL A   1      40.628  21.468  27.395  1.00  0.00    -0.164 F 
ATOM     50  F   UNL A   1      41.123  23.025  25.953  1.00  0.00    -0.164 F 
ENDBRANCH  27  47
ENDBRANCH  15  24
ENDBRANCH  11  14
ENDBRANCH   8  11
ENDBRANCH   4   7
ENDBRANCH   1   4
BRANCH   1  51
ATOM     51  C   UNL A   1      33.281  28.899  25.112  1.00  0.00    -0.052 C 
ATOM     52  H   UNL A   1      33.762  29.754  24.687  1.00  0.00     0.027 H 
ATOM     53  H   UNL A   1      33.380  28.009  24.526  1.00  0.00     0.027 H 
BRANCH  51  54
ATOM     54  C   UNL A   1      33.959  28.593  26.457  1.00  0.00    -0.052 C 
ATOM     55  H   UNL A   1      34.783  27.939  26.266  1.00  0.00     0.027 H 
ATOM     56  H   UNL A   1      33.193  28.171  27.074  1.00  0.00     0.027 H 
BRANCH  54  57
ATOM     57  C   UNL A   1      34.493  29.803  27.238  1.00  0.00    -0.036 C 
ATOM     58  H   UNL A   1      33.750  30.103  27.948  1.00  0.00     0.028 H 
ATOM     59  H   UNL A   1      34.705  30.570  26.521  1.00  0.00     0.028 H 
BRANCH  57  60
ATOM     60  C   UNL A   1      35.788  29.528  27.985  1.00  0.00     0.018 C 
ATOM     61  H   UNL A   1      36.584  30.049  27.495  1.00  0.00     0.049 H 
ATOM     62  H   UNL A   1      35.948  28.470  27.979  1.00  0.00     0.049 H 
BRANCH  60  63
ATOM     63  N   UNL A   1      35.733  29.962  29.383  1.00  0.00    -0.352 N 
ATOM     64  C   UNL A   1      36.619  29.694  30.410  1.00  0.00     0.251 C 
ATOM     65  H   UNL A   1      34.959  30.521  29.624  1.00  0.00     0.163 HD
ATOM     66  O   UNL A   1      36.274  29.776  31.582  1.00  0.00    -0.269 OA
BRANCH  64  67
ATOM     67  C   UNL A   1      38.006  29.334  30.070  1.00  0.00     0.039 A 
ATOM     68  C   UNL A   1      38.859  30.201  29.376  1.00  0.00    -0.049 A 
ATOM     69  C   UNL A   1      38.450  28.079  30.472  1.00  0.00    -0.049 A 
ATOM     70  C   UNL A   1      40.176  29.803  29.142  1.00  0.00    -0.053 A 
ATOM     71  H   UNL A   1      38.520  31.116  29.044  1.00  0.00     0.063 H 
ATOM     72  C   UNL A   1      39.782  27.785  30.433  1.00  0.00    -0.053 A 
ATOM     73  H   UNL A   1      37.773  27.372  30.799  1.00  0.00     0.063 H 
ATOM     74  C   UNL A   1      40.626  28.590  29.681  1.00  0.00    -0.014 A 
ATOM     75  H   UNL A   1      40.810  30.393  28.581  1.00  0.00     0.063 H 
ATOM     76  H   UNL A   1      40.157  26.978  30.956  1.00  0.00     0.063 H 
BRANCH  74  77
ATOM     77  C   UNL A   1      42.014  28.153  29.617  1.00  0.00     0.031 A 
ATOM     78  C   UNL A   1      42.244  27.052  28.653  1.00  0.00     0.074 A 
ATOM     79  C   UNL A   1      43.021  28.889  30.140  1.00  0.00     0.049 A 
ATOM     80  N   UNL A   1      42.612  25.846  28.927  1.00  0.00    -0.248 NA
ATOM     81  C   UNL A   1      41.869  27.256  27.244  1.00  0.00    -0.034 C 
ATOM     82  C   UNL A   1      42.936  30.154  30.870  1.00  0.00    -0.036 A 
ATOM     83  N   UNL A   1      44.366  28.712  30.036  1.00  0.00    -0.354 N 
ATOM     84  C   UNL A   1      42.748  25.210  27.698  1.00  0.00     0.074 A 
ATOM     85  C   UNL A   1      42.053  26.031  26.746  1.00  0.00    -0.034 C 
ATOM     86  H   UNL A   1      41.550  28.115  26.768  1.00  0.00     0.065 H 
ATOM     87  C   UNL A   1      44.154  30.746  30.918  1.00  0.00    -0.036 A 
ATOM     88  H   UNL A   1      42.074  30.539  31.287  1.00  0.00     0.065 H 
ATOM     89  C   UNL A   1      45.136  29.830  30.378  1.00  0.00     0.049 A 
ATOM     90  H   UNL A   1      44.768  27.863  29.742  1.00  0.00     0.167 HD
ATOM     91  C   UNL A   1      43.683  24.233  27.533  1.00  0.00     0.037 A 
ATOM     92  H   UNL A   1      41.740  25.720  25.813  1.00  0.00     0.065 H 
ATOM     93  H   UNL A   1      44.348  31.692  31.280  1.00  0.00     0.065 H 
ATOM     94  C   UNL A   1      46.481  29.968  30.225  1.00  0.00     0.037 A 
ATOM     95  C   UNL A   1      44.125  23.731  28.815  1.00  0.00     0.049 A 
ATOM     96  C   UNL A   1      47.024  28.598  30.061  1.00  0.00     0.074 A 
ATOM     97  C   UNL A   1      43.482  23.196  29.918  1.00  0.00    -0.036 A 
ATOM     98  N   UNL A   1      45.359  24.128  29.277  1.00  0.00    -0.354 N 
ATOM     99  N   UNL A   1      47.056  27.729  31.031  1.00  0.00    -0.248 NA
ATOM    100  C   UNL A   1      47.039  28.054  28.712  1.00  0.00    -0.034 C 
ATOM    101  C   UNL A   1      44.130  23.784  31.045  1.00  0.00    -0.036 A 
ATOM    102  H   UNL A   1      42.703  22.519  29.923  1.00  0.00     0.065 H 
ATOM    103  C   UNL A   1      45.194  24.549  30.572  1.00  0.00     0.049 A 
ATOM    104  H   UNL A   1      46.204  24.111  28.772  1.00  0.00     0.167 HD
ATOM    105  C   UNL A   1      46.647  26.546  30.441  1.00  0.00     0.074 A 
ATOM    106  C   UNL A   1      46.702  26.793  28.998  1.00  0.00    -0.034 C 
ATOM    107  H   UNL A   1      47.247  28.506  27.807  1.00  0.00     0.065 H 
ATOM    108  H   UNL A   1      43.860  23.665  32.034  1.00  0.00     0.065 H 
ATOM    109  C   UNL A   1      45.996  25.590  31.164  1.00  0.00     0.037 A 
ATOM    110  H   UNL A   1      46.502  26.076  28.284  1.00  0.00     0.065 H 
BRANCH  91 111
ATOM    111  C   UNL A   1      44.488  24.030  26.264  1.00  0.00     0.064 A 
ATOM    112  C   UNL A   1      44.582  22.727  25.730  1.00  0.00     0.173 A 
ATOM    113  C   UNL A   1      45.396  24.966  25.720  1.00  0.00     0.173 A 
ATOM    114  F   UNL A   1      43.776  21.749  26.169  1.00  0.00    -0.203 F 
ATOM    115  C   UNL A   1      45.571  22.372  24.809  1.00  0.00     0.198 A 
ATOM    116  C   UNL A   1      46.345  24.620  24.760  1.00  0.00     0.198 A 
ATOM    117  F   UNL A   1      45.489  26.225  26.155  1.00  0.00    -0.203 F 
ATOM    118  F   UNL A   1      45.705  21.090  24.443  1.00  0.00    -0.200 F 
ATOM    119  C   UNL A   1      46.458  23.316  24.332  1.00  0.00     0.200 A 
ATOM    120  F   UNL A   1      47.201  25.552  24.317  1.00  0.00    -0.200 F 
ATOM    121  F   UNL A   1      47.446  22.966  23.498  1.00  0.00    -0.200 F 
ENDBRANCH  91 111
BRANCH  94 122
ATOM    122  C   UNL A   1      47.335  31.151  29.949  1.00  0.00     0.064 A 
ATOM    123  C   UNL A   1      47.219  31.869  28.745  1.00  0.00     0.173 A 
ATOM    124  C   UNL A   1      48.032  31.792  30.985  1.00  0.00     0.173 A 
ATOM    125  F   UNL A   1      46.555  31.339  27.709  1.00  0.00    -0.203 F 
ATOM    126  C   UNL A   1      47.718  33.170  28.604  1.00  0.00     0.198 A 
ATOM    127  C   UNL A   1      48.531  33.092  30.839  1.00  0.00     0.198 A 
ATOM    128  F   UNL A   1      48.155  31.188  32.173  1.00  0.00    -0.203 F 
ATOM    129  F   UNL A   1      47.530  33.843  27.462  1.00  0.00    -0.200 F 
ATOM    130  C   UNL A   1      48.356  33.788  29.660  1.00  0.00     0.200 A 
ATOM    131  F   UNL A   1      49.150  33.712  31.849  1.00  0.00    -0.200 F 
ATOM    132  F   UNL A   1      48.779  35.056  29.559  1.00  0.00    -0.200 F 
ENDBRANCH  94 122
BRANCH 109 133
ATOM    133  C   UNL A   1      45.935  25.742  32.659  1.00  0.00     0.064 A 
ATOM    134  C   UNL A   1      44.833  26.254  33.369  1.00  0.00     0.173 A 
ATOM    135  C   UNL A   1      46.991  25.214  33.411  1.00  0.00     0.173 A 
ATOM    136  F   UNL A   1      43.737  26.684  32.732  1.00  0.00    -0.203 F 
ATOM    137  C   UNL A   1      44.817  26.278  34.765  1.00  0.00     0.198 A 
ATOM    138  C   UNL A   1      46.957  25.204  34.803  1.00  0.00     0.198 A 
ATOM    139  F   UNL A   1      48.046  24.663  32.790  1.00  0.00    -0.203 F 
ATOM    140  F   UNL A   1      43.760  26.782  35.418  1.00  0.00    -0.200 F 
ATOM    141  C   UNL A   1      45.878  25.746  35.479  1.00  0.00     0.200 A 
ATOM    142  F   UNL A   1      47.963  24.641  35.485  1.00  0.00    -0.200 F 
ATOM    143  F   UNL A   1      45.848  25.731  36.819  1.00  0.00    -0.200 F 
ENDBRANCH 109 133
ENDBRANCH  74  77
ENDBRANCH  64  67
ENDBRANCH  60  63
ENDBRANCH  57  60
ENDBRANCH  54  57
ENDBRANCH  51  54
ENDBRANCH   1  51
TORSDOF 19
ENDMDL
MODEL 5
REMARK VINA RESULT:     -11.8      3.758      6.505
REMARK SMILES CS(=O)(=O)c1ccc(-n2nc(C(F)(F)F)cc2-c2ccc(CC(=O)NCCCCCCNC(=O)c3ccc(-c4c5nc(c(-c6c(F)c(F)c(F)c(F)c6F)c6ccc([nH]6)c(-c6c(F)c(F)c(F)c(F)c6F)c6nc(c(-c7c(F)c(F)c(F)c(F)c7F)c7ccc4[nH]7)C=C6)C=C5)cc3)cc2)cc1
REMARK SMILES IDX 27 1 26 4 25 7 23 8 24 9 22 11 21 14 18 15 19 16 99 17 20 18
REMARK SMILES IDX 98 20 17 24 9 25 10 26 11 27 16 28 8 30 5 31 6 32 101 33
REMARK SMILES IDX 7 34 100 36 2 40 3 41 4 42 1 43 12 47 13 48 14 49 15 50
REMARK SMILES IDX 28 51 29 54 30 57 31 60 32 63 33 64 34 66 35 67 36 68 97 69
REMARK SMILES IDX 37 70 96 72 38 74 39 77 40 78 90 79 41 80 95 81 89 82 91 83
REMARK SMILES IDX 42 84 94 85 88 87 87 89 43 91 75 94 55 95 74 96 56 97 59 98
REMARK SMILES IDX 73 99 92 100 57 101 58 103 72 105 93 106 60 109 44 111
REMARK SMILES IDX 45 112 53 113 46 114 47 115 51 116 54 117 48 118 49 119
REMARK SMILES IDX 52 120 50 121 76 122 77 123 85 124 78 125 79 126 83 127
REMARK SMILES IDX 86 128 80 129 81 130 84 131 82 132 61 133 62 134 70 135
REMARK SMILES IDX 63 136 64 137 68 138 71 139 65 140 66 141 69 142 67 143
REMARK H PARENT 27 2 27 3 26 5 26 6 25 10 22 12 22 13 19 19 99 21 20 22 98 23
REMARK H PARENT 16 29 6 35 101 37 7 38 100 39 1 44 1 45 1 46 28 52 28 53 29 55
REMARK H PARENT 29 56 30 58 30 59 31 61 31 62 32 65 36 71 97 73 37 75 96 76
REMARK H PARENT 95 86 89 88 91 90 94 92 88 93 56 102 59 104 92 107 57 108
REMARK H PARENT 93 110
REMARK Flexibility Score: inf
ROOT
ATOM      1  C   UNL A   1      42.708  25.914  25.287  1.00  0.00    -0.036 C 
ATOM      2  H   UNL A   1      42.901  25.722  24.252  1.00  0.00     0.028 H 
ATOM      3  H   UNL A   1      43.287  25.288  25.934  1.00  0.00     0.028 H 
ENDROOT
BRANCH   1   4
ATOM      4  C   UNL A   1      41.236  25.603  25.568  1.00  0.00     0.017 C 
ATOM      5  H   UNL A   1      40.814  26.404  26.138  1.00  0.00     0.049 H 
ATOM      6  H   UNL A   1      40.731  25.496  24.630  1.00  0.00     0.049 H 
BRANCH   4   7
ATOM      7  N   UNL A   1      41.088  24.366  26.308  1.00  0.00    -0.356 N 
ATOM      8  C   UNL A   1      39.968  23.826  26.870  1.00  0.00     0.224 C 
ATOM      9  O   UNL A   1      40.082  22.796  27.537  1.00  0.00    -0.275 OA
ATOM     10  H   UNL A   1      41.913  23.840  26.420  1.00  0.00     0.163 HD
BRANCH   8  11
ATOM     11  C   UNL A   1      38.610  24.464  26.630  1.00  0.00     0.052 C 
ATOM     12  H   UNL A   1      38.249  24.848  27.562  1.00  0.00     0.042 H 
ATOM     13  H   UNL A   1      38.753  25.231  25.898  1.00  0.00     0.042 H 
BRANCH  11  14
ATOM     14  C   UNL A   1      37.577  23.515  26.075  1.00  0.00    -0.039 A 
ATOM     15  C   UNL A   1      35.681  21.660  25.169  1.00  0.00     0.000 A 
ATOM     16  C   UNL A   1      37.003  21.606  24.709  1.00  0.00    -0.053 A 
ATOM     17  C   UNL A   1      35.297  22.682  26.039  1.00  0.00    -0.053 A 
ATOM     18  C   UNL A   1      37.948  22.520  25.167  1.00  0.00    -0.058 A 
ATOM     19  H   UNL A   1      37.278  20.882  24.027  1.00  0.00     0.063 H 
ATOM     20  C   UNL A   1      36.236  23.613  26.475  1.00  0.00    -0.058 A 
ATOM     21  H   UNL A   1      34.318  22.746  26.358  1.00  0.00     0.063 H 
ATOM     22  H   UNL A   1      38.924  22.462  24.834  1.00  0.00     0.063 H 
ATOM     23  H   UNL A   1      35.943  24.381  27.099  1.00  0.00     0.063 H 
BRANCH  15  24
ATOM     24  C   UNL A   1      34.701  20.682  24.722  1.00  0.00     0.075 A 
ATOM     25  N   UNL A   1      33.488  20.984  24.129  1.00  0.00    -0.233 N 
ATOM     26  N   UNL A   1      32.722  19.881  23.926  1.00  0.00    -0.163 NA
ATOM     27  C   UNL A   1      33.471  18.852  24.373  1.00  0.00     0.167 A 
ATOM     28  C   UNL A   1      34.720  19.310  24.858  1.00  0.00    -0.003 A 
ATOM     29  H   UNL A   1      35.488  18.734  25.236  1.00  0.00     0.067 H 
BRANCH  25  30
ATOM     30  C   UNL A   1      33.015  22.265  23.765  1.00  0.00     0.065 A 
ATOM     31  C   UNL A   1      32.115  24.783  22.997  1.00  0.00     0.067 A 
ATOM     32  C   UNL A   1      31.437  24.075  23.998  1.00  0.00    -0.041 A 
ATOM     33  C   UNL A   1      33.223  24.223  22.358  1.00  0.00    -0.041 A 
ATOM     34  C   UNL A   1      31.887  22.808  24.389  1.00  0.00    -0.035 A 
ATOM     35  H   UNL A   1      30.604  24.489  24.448  1.00  0.00     0.064 H 
ATOM     36  C   UNL A   1      33.662  22.953  22.733  1.00  0.00    -0.035 A 
ATOM     37  H   UNL A   1      33.715  24.743  21.614  1.00  0.00     0.064 H 
ATOM     38  H   UNL A   1      31.394  22.282  25.127  1.00  0.00     0.065 H 
ATOM     39  H   UNL A   1      34.464  22.520  22.250  1.00  0.00     0.065 H 
BRANCH  31  40
ATOM     40  S   UNL A   1      31.495  26.354  22.432  1.00  0.00     0.175 S 
ATOM     41  O   UNL A   1      30.322  26.645  23.248  1.00  0.00    -0.224 OA
ATOM     42  O   UNL A   1      31.419  26.312  20.992  1.00  0.00    -0.224 OA
BRANCH  40  43
ATOM     43  C   UNL A   1      32.737  27.532  22.852  1.00  0.00     0.043 C 
ATOM     44  H   UNL A   1      32.697  28.353  22.167  1.00  0.00     0.040 H 
ATOM     45  H   UNL A   1      33.701  27.069  22.798  1.00  0.00     0.040 H 
ATOM     46  H   UNL A   1      32.569  27.889  23.846  1.00  0.00     0.040 H 
ENDBRANCH  40  43
ENDBRANCH  31  40
ENDBRANCH  25  30
BRANCH  27  47
ATOM     47  C   UNL A   1      33.006  17.419  24.364  1.00  0.00     0.435 C 
ATOM     48  F   UNL A   1      33.853  16.589  25.028  1.00  0.00    -0.164 F 
ATOM     49  F   UNL A   1      31.779  17.272  24.932  1.00  0.00    -0.164 F 
ATOM     50  F   UNL A   1      32.902  16.931  23.096  1.00  0.00    -0.164 F 
ENDBRANCH  27  47
ENDBRANCH  15  24
ENDBRANCH  11  14
ENDBRANCH   8  11
ENDBRANCH   4   7
ENDBRANCH   1   4
BRANCH   1  51
ATOM     51  C   UNL A   1      43.107  27.363  25.593  1.00  0.00    -0.052 C 
ATOM     52  H   UNL A   1      42.308  27.815  26.142  1.00  0.00     0.027 H 
ATOM     53  H   UNL A   1      43.295  27.821  24.645  1.00  0.00     0.027 H 
BRANCH  51  54
ATOM     54  C   UNL A   1      44.399  27.539  26.407  1.00  0.00    -0.052 C 
ATOM     55  H   UNL A   1      44.122  27.776  27.412  1.00  0.00     0.027 H 
ATOM     56  H   UNL A   1      44.949  28.308  25.907  1.00  0.00     0.027 H 
BRANCH  54  57
ATOM     57  C   UNL A   1      45.341  26.326  26.456  1.00  0.00    -0.036 C 
ATOM     58  H   UNL A   1      46.307  26.634  26.111  1.00  0.00     0.028 H 
ATOM     59  H   UNL A   1      44.909  25.569  25.835  1.00  0.00     0.028 H 
BRANCH  57  60
ATOM     60  C   UNL A   1      45.497  25.726  27.843  1.00  0.00     0.018 C 
ATOM     61  H   UNL A   1      45.426  26.511  28.567  1.00  0.00     0.049 H 
ATOM     62  H   UNL A   1      46.449  25.239  27.883  1.00  0.00     0.049 H 
BRANCH  60  63
ATOM     63  N   UNL A   1      44.471  24.723  28.138  1.00  0.00    -0.352 N 
ATOM     64  C   UNL A   1      43.442  24.780  29.059  1.00  0.00     0.251 C 
ATOM     65  H   UNL A   1      44.521  23.894  27.609  1.00  0.00     0.163 HD
ATOM     66  O   UNL A   1      42.909  23.761  29.479  1.00  0.00    -0.269 OA
BRANCH  64  67
ATOM     67  C   UNL A   1      42.970  26.101  29.510  1.00  0.00     0.039 A 
ATOM     68  C   UNL A   1      43.640  26.844  30.490  1.00  0.00    -0.049 A 
ATOM     69  C   UNL A   1      41.814  26.596  28.917  1.00  0.00    -0.049 A 
ATOM     70  C   UNL A   1      43.157  28.111  30.819  1.00  0.00    -0.053 A 
ATOM     71  H   UNL A   1      44.476  26.462  30.958  1.00  0.00     0.063 H 
ATOM     72  C   UNL A   1      41.473  27.907  29.084  1.00  0.00    -0.053 A 
ATOM     73  H   UNL A   1      41.216  25.973  28.352  1.00  0.00     0.063 H 
ATOM     74  C   UNL A   1      42.071  28.632  30.104  1.00  0.00    -0.014 A 
ATOM     75  H   UNL A   1      43.593  28.656  31.580  1.00  0.00     0.063 H 
ATOM     76  H   UNL A   1      40.782  28.352  28.460  1.00  0.00     0.063 H 
BRANCH  74  77
ATOM     77  C   UNL A   1      41.583  29.994  30.272  1.00  0.00     0.031 A 
ATOM     78  C   UNL A   1      42.505  31.024  29.740  1.00  0.00     0.074 A 
ATOM     79  C   UNL A   1      40.294  30.259  30.585  1.00  0.00     0.049 A 
ATOM     80  N   UNL A   1      43.143  31.918  30.417  1.00  0.00    -0.248 NA
ATOM     81  C   UNL A   1      42.896  30.957  28.322  1.00  0.00    -0.034 C 
ATOM     82  C   UNL A   1      39.212  29.312  30.851  1.00  0.00    -0.036 A 
ATOM     83  N   UNL A   1      39.641  31.452  30.626  1.00  0.00    -0.354 N 
ATOM     84  C   UNL A   1      43.827  32.679  29.476  1.00  0.00     0.074 A 
ATOM     85  C   UNL A   1      43.835  31.904  28.267  1.00  0.00    -0.034 C 
ATOM     86  H   UNL A   1      42.540  30.344  27.572  1.00  0.00     0.065 H 
ATOM     87  C   UNL A   1      38.014  29.940  30.776  1.00  0.00    -0.036 A 
ATOM     88  H   UNL A   1      39.341  28.310  31.065  1.00  0.00     0.065 H 
ATOM     89  C   UNL A   1      38.245  31.361  30.628  1.00  0.00     0.049 A 
ATOM     90  H   UNL A   1      40.115  32.315  30.653  1.00  0.00     0.167 HD
ATOM     91  C   UNL A   1      44.048  34.006  29.698  1.00  0.00     0.037 A 
ATOM     92  H   UNL A   1      44.475  32.056  27.471  1.00  0.00     0.065 H 
ATOM     93  H   UNL A   1      37.090  29.482  30.818  1.00  0.00     0.065 H 
ATOM     94  C   UNL A   1      37.363  32.392  30.521  1.00  0.00     0.037 A 
ATOM     95  C   UNL A   1      43.873  34.321  31.099  1.00  0.00     0.049 A 
ATOM     96  C   UNL A   1      38.120  33.623  30.850  1.00  0.00     0.074 A 
ATOM     97  C   UNL A   1      44.419  33.837  32.275  1.00  0.00    -0.036 A 
ATOM     98  N   UNL A   1      42.721  34.969  31.479  1.00  0.00    -0.354 N 
ATOM     99  N   UNL A   1      38.545  33.894  32.051  1.00  0.00    -0.248 NA
ATOM    100  C   UNL A   1      38.835  34.268  29.758  1.00  0.00    -0.034 C 
ATOM    101  C   UNL A   1      43.321  33.750  33.183  1.00  0.00    -0.036 A 
ATOM    102  H   UNL A   1      45.405  33.591  32.455  1.00  0.00     0.065 H 
ATOM    103  C   UNL A   1      42.203  34.287  32.551  1.00  0.00     0.049 A 
ATOM    104  H   UNL A   1      42.339  35.774  31.060  1.00  0.00     0.167 HD
ATOM    105  C   UNL A   1      39.830  34.369  31.859  1.00  0.00     0.074 A 
ATOM    106  C   UNL A   1      39.937  34.628  30.421  1.00  0.00    -0.034 C 
ATOM    107  H   UNL A   1      38.570  34.405  28.769  1.00  0.00     0.065 H 
ATOM    108  H   UNL A   1      43.351  33.359  34.138  1.00  0.00     0.065 H 
ATOM    109  C   UNL A   1      40.789  34.203  32.815  1.00  0.00     0.037 A 
ATOM    110  H   UNL A   1      40.768  35.042  29.972  1.00  0.00     0.065 H 
BRANCH  91 111
ATOM    111  C   UNL A   1      44.007  35.069  28.619  1.00  0.00     0.064 A 
ATOM    112  C   UNL A   1      45.172  35.829  28.381  1.00  0.00     0.173 A 
ATOM    113  C   UNL A   1      42.831  35.575  28.022  1.00  0.00     0.173 A 
ATOM    114  F   UNL A   1      46.350  35.452  28.897  1.00  0.00    -0.203 F 
ATOM    115  C   UNL A   1      45.137  37.045  27.694  1.00  0.00     0.198 A 
ATOM    116  C   UNL A   1      42.810  36.761  27.290  1.00  0.00     0.198 A 
ATOM    117  F   UNL A   1      41.629  35.018  28.199  1.00  0.00    -0.203 F 
ATOM    118  F   UNL A   1      46.244  37.795  27.619  1.00  0.00    -0.200 F 
ATOM    119  C   UNL A   1      43.955  37.515  27.157  1.00  0.00     0.200 A 
ATOM    120  F   UNL A   1      41.649  37.201  26.785  1.00  0.00    -0.200 F 
ATOM    121  F   UNL A   1      43.905  38.709  26.554  1.00  0.00    -0.200 F 
ENDBRANCH  91 111
BRANCH  94 122
ATOM    122  C   UNL A   1      36.006  32.483  29.924  1.00  0.00     0.064 A 
ATOM    123  C   UNL A   1      35.128  33.528  30.266  1.00  0.00     0.173 A 
ATOM    124  C   UNL A   1      35.677  31.753  28.771  1.00  0.00     0.173 A 
ATOM    125  F   UNL A   1      35.376  34.287  31.342  1.00  0.00    -0.203 F 
ATOM    126  C   UNL A   1      34.022  33.858  29.473  1.00  0.00     0.198 A 
ATOM    127  C   UNL A   1      34.568  32.086  27.983  1.00  0.00     0.198 A 
ATOM    128  F   UNL A   1      36.483  30.766  28.361  1.00  0.00    -0.203 F 
ATOM    129  F   UNL A   1      33.247  34.901  29.800  1.00  0.00    -0.200 F 
ATOM    130  C   UNL A   1      33.756  33.149  28.320  1.00  0.00     0.200 A 
ATOM    131  F   UNL A   1      34.293  31.415  26.861  1.00  0.00    -0.200 F 
ATOM    132  F   UNL A   1      32.739  33.499  27.519  1.00  0.00    -0.200 F 
ENDBRANCH  94 122
BRANCH 109 133
ATOM    133  C   UNL A   1      40.369  33.705  34.171  1.00  0.00     0.064 A 
ATOM    134  C   UNL A   1      40.342  32.351  34.555  1.00  0.00     0.173 A 
ATOM    135  C   UNL A   1      40.115  34.656  35.165  1.00  0.00     0.173 A 
ATOM    136  F   UNL A   1      40.675  31.380  33.694  1.00  0.00    -0.203 F 
ATOM    137  C   UNL A   1      40.029  31.974  35.861  1.00  0.00     0.198 A 
ATOM    138  C   UNL A   1      39.839  34.280  36.476  1.00  0.00     0.198 A 
ATOM    139  F   UNL A   1      40.177  35.965  34.872  1.00  0.00    -0.203 F 
ATOM    140  F   UNL A   1      39.999  30.676  36.199  1.00  0.00    -0.200 F 
ATOM    141  C   UNL A   1      39.783  32.940  36.822  1.00  0.00     0.200 A 
ATOM    142  F   UNL A   1      39.653  35.222  37.411  1.00  0.00    -0.200 F 
ATOM    143  F   UNL A   1      39.521  32.583  38.087  1.00  0.00    -0.200 F 
ENDBRANCH 109 133
ENDBRANCH  74  77
ENDBRANCH  64  67
ENDBRANCH  60  63
ENDBRANCH  57  60
ENDBRANCH  54  57
ENDBRANCH  51  54
ENDBRANCH   1  51
TORSDOF 19
ENDMDL
MODEL 6
REMARK VINA RESULT:     -11.7      3.714      9.017
REMARK SMILES CS(=O)(=O)c1ccc(-n2nc(C(F)(F)F)cc2-c2ccc(CC(=O)NCCCCCCNC(=O)c3ccc(-c4c5nc(c(-c6c(F)c(F)c(F)c(F)c6F)c6ccc([nH]6)c(-c6c(F)c(F)c(F)c(F)c6F)c6nc(c(-c7c(F)c(F)c(F)c(F)c7F)c7ccc4[nH]7)C=C6)C=C5)cc3)cc2)cc1
REMARK SMILES IDX 27 1 26 4 25 7 23 8 24 9 22 11 21 14 18 15 19 16 99 17 20 18
REMARK SMILES IDX 98 20 17 24 9 25 10 26 11 27 16 28 8 30 5 31 6 32 101 33
REMARK SMILES IDX 7 34 100 36 2 40 3 41 4 42 1 43 12 47 13 48 14 49 15 50
REMARK SMILES IDX 28 51 29 54 30 57 31 60 32 63 33 64 34 66 35 67 36 68 97 69
REMARK SMILES IDX 37 70 96 72 38 74 39 77 40 78 90 79 41 80 95 81 89 82 91 83
REMARK SMILES IDX 42 84 94 85 88 87 87 89 43 91 75 94 55 95 74 96 56 97 59 98
REMARK SMILES IDX 73 99 92 100 57 101 58 103 72 105 93 106 60 109 44 111
REMARK SMILES IDX 45 112 53 113 46 114 47 115 51 116 54 117 48 118 49 119
REMARK SMILES IDX 52 120 50 121 76 122 77 123 85 124 78 125 79 126 83 127
REMARK SMILES IDX 86 128 80 129 81 130 84 131 82 132 61 133 62 134 70 135
REMARK SMILES IDX 63 136 64 137 68 138 71 139 65 140 66 141 69 142 67 143
REMARK H PARENT 27 2 27 3 26 5 26 6 25 10 22 12 22 13 19 19 99 21 20 22 98 23
REMARK H PARENT 16 29 6 35 101 37 7 38 100 39 1 44 1 45 1 46 28 52 28 53 29 55
REMARK H PARENT 29 56 30 58 30 59 31 61 31 62 32 65 36 71 97 73 37 75 96 76
REMARK H PARENT 95 86 89 88 91 90 94 92 88 93 56 102 59 104 92 107 57 108
REMARK H PARENT 93 110
REMARK Flexibility Score: inf
ROOT
ATOM      1  C   UNL A   1      33.995  33.473  28.343  1.00  0.00    -0.036 C 
ATOM      2  H   UNL A   1      32.940  33.424  28.168  1.00  0.00     0.028 H 
ATOM      3  H   UNL A   1      34.549  33.671  27.449  1.00  0.00     0.028 H 
ENDROOT
BRANCH   1   4
ATOM      4  C   UNL A   1      34.461  32.112  28.863  1.00  0.00     0.017 C 
ATOM      5  H   UNL A   1      34.741  32.210  29.892  1.00  0.00     0.049 H 
ATOM      6  H   UNL A   1      33.654  31.417  28.753  1.00  0.00     0.049 H 
BRANCH   4   7
ATOM      7  N   UNL A   1      35.594  31.617  28.110  1.00  0.00    -0.356 N 
ATOM      8  C   UNL A   1      35.884  30.339  27.726  1.00  0.00     0.224 C 
ATOM      9  O   UNL A   1      36.957  30.123  27.159  1.00  0.00    -0.275 OA
ATOM     10  H   UNL A   1      36.249  32.298  27.834  1.00  0.00     0.163 HD
BRANCH   8  11
ATOM     11  C   UNL A   1      34.874  29.227  27.954  1.00  0.00     0.052 C 
ATOM     12  H   UNL A   1      35.398  28.292  27.958  1.00  0.00     0.042 H 
ATOM     13  H   UNL A   1      34.393  29.432  28.887  1.00  0.00     0.042 H 
BRANCH  11  14
ATOM     14  C   UNL A   1      33.790  29.159  26.907  1.00  0.00    -0.039 A 
ATOM     15  C   UNL A   1      31.788  29.189  24.945  1.00  0.00     0.000 A 
ATOM     16  C   UNL A   1      31.451  29.216  26.304  1.00  0.00    -0.053 A 
ATOM     17  C   UNL A   1      33.129  29.087  24.572  1.00  0.00    -0.053 A 
ATOM     18  C   UNL A   1      32.444  29.212  27.280  1.00  0.00    -0.058 A 
ATOM     19  H   UNL A   1      30.458  29.241  26.585  1.00  0.00     0.063 H 
ATOM     20  C   UNL A   1      34.122  29.056  25.548  1.00  0.00    -0.058 A 
ATOM     21  H   UNL A   1      33.384  29.036  23.574  1.00  0.00     0.063 H 
ATOM     22  H   UNL A   1      32.186  29.248  28.279  1.00  0.00     0.063 H 
ATOM     23  H   UNL A   1      35.111  28.956  25.269  1.00  0.00     0.063 H 
BRANCH  15  24
ATOM     24  C   UNL A   1      30.753  29.232  23.925  1.00  0.00     0.075 A 
ATOM     25  N   UNL A   1      30.475  28.216  23.028  1.00  0.00    -0.233 N 
ATOM     26  N   UNL A   1      29.541  28.575  22.110  1.00  0.00    -0.163 NA
ATOM     27  C   UNL A   1      29.196  29.836  22.442  1.00  0.00     0.167 A 
ATOM     28  C   UNL A   1      29.915  30.272  23.581  1.00  0.00    -0.003 A 
ATOM     29  H   UNL A   1      29.830  31.184  24.057  1.00  0.00     0.067 H 
BRANCH  25  30
ATOM     30  C   UNL A   1      31.065  26.932  22.990  1.00  0.00     0.065 A 
ATOM     31  C   UNL A   1      32.273  24.428  22.881  1.00  0.00     0.067 A 
ATOM     32  C   UNL A   1      31.338  24.708  23.887  1.00  0.00    -0.041 A 
ATOM     33  C   UNL A   1      32.628  25.405  21.949  1.00  0.00    -0.041 A 
ATOM     34  C   UNL A   1      30.726  25.967  23.944  1.00  0.00    -0.035 A 
ATOM     35  H   UNL A   1      31.099  23.986  24.585  1.00  0.00     0.064 H 
ATOM     36  C   UNL A   1      32.034  26.666  22.016  1.00  0.00    -0.035 A 
ATOM     37  H   UNL A   1      33.324  25.198  21.216  1.00  0.00     0.064 H 
ATOM     38  H   UNL A   1      30.036  26.180  24.681  1.00  0.00     0.065 H 
ATOM     39  H   UNL A   1      32.308  27.402  21.348  1.00  0.00     0.065 H 
BRANCH  31  40
ATOM     40  S   UNL A   1      33.121  22.861  22.856  1.00  0.00     0.175 S 
ATOM     41  O   UNL A   1      34.455  23.131  22.333  1.00  0.00    -0.224 OA
ATOM     42  O   UNL A   1      32.250  21.894  22.235  1.00  0.00    -0.224 OA
BRANCH  40  43
ATOM     43  C   UNL A   1      33.299  22.392  24.545  1.00  0.00     0.043 C 
ATOM     44  H   UNL A   1      32.334  22.208  24.968  1.00  0.00     0.040 H 
ATOM     45  H   UNL A   1      33.781  23.180  25.085  1.00  0.00     0.040 H 
ATOM     46  H   UNL A   1      33.892  21.503  24.608  1.00  0.00     0.040 H 
ENDBRANCH  40  43
ENDBRANCH  31  40
ENDBRANCH  25  30
BRANCH  27  47
ATOM     47  C   UNL A   1      28.191  30.654  21.673  1.00  0.00     0.435 C 
ATOM     48  F   UNL A   1      28.727  31.791  21.157  1.00  0.00    -0.164 F 
ATOM     49  F   UNL A   1      27.650  29.961  20.635  1.00  0.00    -0.164 F 
ATOM     50  F   UNL A   1      27.148  31.041  22.460  1.00  0.00    -0.164 F 
ENDBRANCH  27  47
ENDBRANCH  15  24
ENDBRANCH  11  14
ENDBRANCH   8  11
ENDBRANCH   4   7
ENDBRANCH   1   4
BRANCH   1  51
ATOM     51  C   UNL A   1      34.272  34.636  29.305  1.00  0.00    -0.052 C 
ATOM     52  H   UNL A   1      35.258  35.000  29.105  1.00  0.00     0.027 H 
ATOM     53  H   UNL A   1      34.150  34.235  30.290  1.00  0.00     0.027 H 
BRANCH  51  54
ATOM     54  C   UNL A   1      33.301  35.823  29.211  1.00  0.00    -0.052 C 
ATOM     55  H   UNL A   1      32.565  35.586  28.473  1.00  0.00     0.027 H 
ATOM     56  H   UNL A   1      33.908  36.671  28.973  1.00  0.00     0.027 H 
BRANCH  54  57
ATOM     57  C   UNL A   1      32.561  36.199  30.504  1.00  0.00    -0.036 C 
ATOM     58  H   UNL A   1      31.731  35.535  30.625  1.00  0.00     0.028 H 
ATOM     59  H   UNL A   1      32.255  37.220  30.403  1.00  0.00     0.028 H 
BRANCH  57  60
ATOM     60  C   UNL A   1      33.426  36.119  31.751  1.00  0.00     0.018 C 
ATOM     61  H   UNL A   1      33.425  37.075  32.232  1.00  0.00     0.049 H 
ATOM     62  H   UNL A   1      34.411  35.834  31.446  1.00  0.00     0.049 H 
BRANCH  60  63
ATOM     63  N   UNL A   1      32.947  35.114  32.703  1.00  0.00    -0.352 N 
ATOM     64  C   UNL A   1      33.488  33.879  33.007  1.00  0.00     0.251 C 
ATOM     65  H   UNL A   1      32.126  35.351  33.194  1.00  0.00     0.163 HD
ATOM     66  O   UNL A   1      32.806  32.994  33.507  1.00  0.00    -0.269 OA
BRANCH  64  67
ATOM     67  C   UNL A   1      34.920  33.651  32.744  1.00  0.00     0.039 A 
ATOM     68  C   UNL A   1      35.898  34.611  33.031  1.00  0.00    -0.049 A 
ATOM     69  C   UNL A   1      35.273  32.425  32.192  1.00  0.00    -0.049 A 
ATOM     70  C   UNL A   1      37.237  34.293  32.803  1.00  0.00    -0.053 A 
ATOM     71  H   UNL A   1      35.633  35.535  33.405  1.00  0.00     0.063 H 
ATOM     72  C   UNL A   1      36.583  32.042  32.173  1.00  0.00    -0.053 A 
ATOM     73  H   UNL A   1      34.547  31.806  31.799  1.00  0.00     0.063 H 
ATOM     74  C   UNL A   1      37.566  33.000  32.375  1.00  0.00    -0.014 A 
ATOM     75  H   UNL A   1      37.975  35.000  32.946  1.00  0.00     0.063 H 
ATOM     76  H   UNL A   1      36.839  31.055  32.012  1.00  0.00     0.063 H 
BRANCH  74  77
ATOM     77  C   UNL A   1      38.937  32.525  32.245  1.00  0.00     0.031 A 
ATOM     78  C   UNL A   1      39.642  32.388  33.541  1.00  0.00     0.074 A 
ATOM     79  C   UNL A   1      39.397  31.969  31.101  1.00  0.00     0.049 A 
ATOM     80  N   UNL A   1      40.660  33.069  33.946  1.00  0.00    -0.248 NA
ATOM     81  C   UNL A   1      39.058  31.515  34.573  1.00  0.00    -0.034 C 
ATOM     82  C   UNL A   1      38.691  31.787  29.833  1.00  0.00    -0.036 A 
ATOM     83  N   UNL A   1      40.580  31.343  30.858  1.00  0.00    -0.354 N 
ATOM     84  C   UNL A   1      40.992  32.540  35.188  1.00  0.00     0.074 A 
ATOM     85  C   UNL A   1      39.849  31.782  35.616  1.00  0.00    -0.034 C 
ATOM     86  H   UNL A   1      38.255  30.870  34.509  1.00  0.00     0.065 H 
ATOM     87  C   UNL A   1      39.349  30.893  29.058  1.00  0.00    -0.036 A 
ATOM     88  H   UNL A   1      37.818  32.269  29.567  1.00  0.00     0.065 H 
ATOM     89  C   UNL A   1      40.609  30.568  29.693  1.00  0.00     0.049 A 
ATOM     90  H   UNL A   1      41.358  31.427  31.456  1.00  0.00     0.167 HD
ATOM     91  C   UNL A   1      42.291  32.521  35.600  1.00  0.00     0.037 A 
ATOM     92  H   UNL A   1      39.664  31.486  36.587  1.00  0.00     0.065 H 
ATOM     93  H   UNL A   1      39.010  30.507  28.163  1.00  0.00     0.065 H 
ATOM     94  C   UNL A   1      41.606  29.731  29.298  1.00  0.00     0.037 A 
ATOM     95  C   UNL A   1      43.084  33.445  34.817  1.00  0.00     0.049 A 
ATOM     96  C   UNL A   1      42.810  30.127  30.068  1.00  0.00     0.074 A 
ATOM     97  C   UNL A   1      42.992  34.795  34.531  1.00  0.00    -0.036 A 
ATOM     98  N   UNL A   1      43.914  32.928  33.850  1.00  0.00    -0.354 N 
ATOM     99  N   UNL A   1      43.444  31.247  29.865  1.00  0.00    -0.248 NA
ATOM    100  C   UNL A   1      42.978  29.523  31.382  1.00  0.00    -0.034 C 
ATOM    101  C   UNL A   1      43.313  34.901  33.144  1.00  0.00    -0.036 A 
ATOM    102  H   UNL A   1      42.745  35.560  35.179  1.00  0.00     0.065 H 
ATOM    103  C   UNL A   1      43.688  33.636  32.697  1.00  0.00     0.049 A 
ATOM    104  H   UNL A   1      44.553  32.187  33.964  1.00  0.00     0.167 HD
ATOM    105  C   UNL A   1      43.718  31.717  31.138  1.00  0.00     0.074 A 
ATOM    106  C   UNL A   1      43.455  30.588  32.033  1.00  0.00    -0.034 C 
ATOM    107  H   UNL A   1      42.786  28.564  31.710  1.00  0.00     0.065 H 
ATOM    108  H   UNL A   1      43.275  35.761  32.574  1.00  0.00     0.065 H 
ATOM    109  C   UNL A   1      43.815  33.055  31.385  1.00  0.00     0.037 A 
ATOM    110  H   UNL A   1      43.619  30.612  33.051  1.00  0.00     0.065 H 
BRANCH  91 111
ATOM    111  C   UNL A   1      42.916  31.396  36.400  1.00  0.00     0.064 A 
ATOM    112  C   UNL A   1      43.736  31.729  37.498  1.00  0.00     0.173 A 
ATOM    113  C   UNL A   1      42.994  30.049  35.981  1.00  0.00     0.173 A 
ATOM    114  F   UNL A   1      43.752  32.978  37.985  1.00  0.00    -0.203 F 
ATOM    115  C   UNL A   1      44.634  30.815  38.058  1.00  0.00     0.198 A 
ATOM    116  C   UNL A   1      43.851  29.126  36.578  1.00  0.00     0.198 A 
ATOM    117  F   UNL A   1      42.336  29.579  34.918  1.00  0.00    -0.203 F 
ATOM    118  F   UNL A   1      45.490  31.223  39.004  1.00  0.00    -0.200 F 
ATOM    119  C   UNL A   1      44.697  29.518  37.591  1.00  0.00     0.200 A 
ATOM    120  F   UNL A   1      43.901  27.873  36.103  1.00  0.00    -0.200 F 
ATOM    121  F   UNL A   1      45.600  28.659  38.081  1.00  0.00    -0.200 F 
ENDBRANCH  91 111
BRANCH  94 122
ATOM    122  C   UNL A   1      41.595  28.465  28.521  1.00  0.00     0.064 A 
ATOM    123  C   UNL A   1      40.845  27.354  28.949  1.00  0.00     0.173 A 
ATOM    124  C   UNL A   1      42.042  28.433  27.191  1.00  0.00     0.173 A 
ATOM    125  F   UNL A   1      40.364  27.310  30.199  1.00  0.00    -0.203 F 
ATOM    126  C   UNL A   1      40.512  26.305  28.083  1.00  0.00     0.198 A 
ATOM    127  C   UNL A   1      41.709  27.380  26.331  1.00  0.00     0.198 A 
ATOM    128  F   UNL A   1      42.733  29.469  26.700  1.00  0.00    -0.203 F 
ATOM    129  F   UNL A   1      39.741  25.297  28.512  1.00  0.00    -0.200 F 
ATOM    130  C   UNL A   1      40.927  26.330  26.768  1.00  0.00     0.200 A 
ATOM    131  F   UNL A   1      42.097  27.384  25.052  1.00  0.00    -0.200 F 
ATOM    132  F   UNL A   1      40.560  25.364  25.914  1.00  0.00    -0.200 F 
ENDBRANCH  94 122
BRANCH 109 133
ATOM    133  C   UNL A   1      43.851  33.998  30.213  1.00  0.00     0.064 A 
ATOM    134  C   UNL A   1      42.715  34.554  29.596  1.00  0.00     0.173 A 
ATOM    135  C   UNL A   1      45.101  34.463  29.789  1.00  0.00     0.173 A 
ATOM    136  F   UNL A   1      41.480  34.244  30.010  1.00  0.00    -0.203 F 
ATOM    137  C   UNL A   1      42.833  35.494  28.572  1.00  0.00     0.198 A 
ATOM    138  C   UNL A   1      45.217  35.429  28.793  1.00  0.00     0.198 A 
ATOM    139  F   UNL A   1      46.220  34.009  30.377  1.00  0.00    -0.203 F 
ATOM    140  F   UNL A   1      41.735  36.001  27.991  1.00  0.00    -0.200 F 
ATOM    141  C   UNL A   1      44.085  35.935  28.176  1.00  0.00     0.200 A 
ATOM    142  F   UNL A   1      46.429  35.887  28.453  1.00  0.00    -0.200 F 
ATOM    143  F   UNL A   1      44.202  36.867  27.220  1.00  0.00    -0.200 F 
ENDBRANCH 109 133
ENDBRANCH  74  77
ENDBRANCH  64  67
ENDBRANCH  60  63
ENDBRANCH  57  60
ENDBRANCH  54  57
ENDBRANCH  51  54
ENDBRANCH   1  51
TORSDOF 19
ENDMDL
MODEL 7
REMARK VINA RESULT:     -11.6      2.090      7.158
REMARK SMILES CS(=O)(=O)c1ccc(-n2nc(C(F)(F)F)cc2-c2ccc(CC(=O)NCCCCCCNC(=O)c3ccc(-c4c5nc(c(-c6c(F)c(F)c(F)c(F)c6F)c6ccc([nH]6)c(-c6c(F)c(F)c(F)c(F)c6F)c6nc(c(-c7c(F)c(F)c(F)c(F)c7F)c7ccc4[nH]7)C=C6)C=C5)cc3)cc2)cc1
REMARK SMILES IDX 27 1 26 4 25 7 23 8 24 9 22 11 21 14 18 15 19 16 99 17 20 18
REMARK SMILES IDX 98 20 17 24 9 25 10 26 11 27 16 28 8 30 5 31 6 32 101 33
REMARK SMILES IDX 7 34 100 36 2 40 3 41 4 42 1 43 12 47 13 48 14 49 15 50
REMARK SMILES IDX 28 51 29 54 30 57 31 60 32 63 33 64 34 66 35 67 36 68 97 69
REMARK SMILES IDX 37 70 96 72 38 74 39 77 40 78 90 79 41 80 95 81 89 82 91 83
REMARK SMILES IDX 42 84 94 85 88 87 87 89 43 91 75 94 55 95 74 96 56 97 59 98
REMARK SMILES IDX 73 99 92 100 57 101 58 103 72 105 93 106 60 109 44 111
REMARK SMILES IDX 45 112 53 113 46 114 47 115 51 116 54 117 48 118 49 119
REMARK SMILES IDX 52 120 50 121 76 122 77 123 85 124 78 125 79 126 83 127
REMARK SMILES IDX 86 128 80 129 81 130 84 131 82 132 61 133 62 134 70 135
REMARK SMILES IDX 63 136 64 137 68 138 71 139 65 140 66 141 69 142 67 143
REMARK H PARENT 27 2 27 3 26 5 26 6 25 10 22 12 22 13 19 19 99 21 20 22 98 23
REMARK H PARENT 16 29 6 35 101 37 7 38 100 39 1 44 1 45 1 46 28 52 28 53 29 55
REMARK H PARENT 29 56 30 58 30 59 31 61 31 62 32 65 36 71 97 73 37 75 96 76
REMARK H PARENT 95 86 89 88 91 90 94 92 88 93 56 102 59 104 92 107 57 108
REMARK H PARENT 93 110
REMARK Flexibility Score: inf
ROOT
ATOM      1  C   UNL A   1      35.474  22.526  24.308  1.00  0.00    -0.036 C 
ATOM      2  H   UNL A   1      35.943  23.279  23.709  1.00  0.00     0.028 H 
ATOM      3  H   UNL A   1      36.067  21.639  24.390  1.00  0.00     0.028 H 
ENDROOT
BRANCH   1   4
ATOM      4  C   UNL A   1      34.161  22.122  23.635  1.00  0.00     0.017 C 
ATOM      5  H   UNL A   1      33.780  22.958  23.085  1.00  0.00     0.049 H 
ATOM      6  H   UNL A   1      34.357  21.296  22.984  1.00  0.00     0.049 H 
BRANCH   4   7
ATOM      7  N   UNL A   1      33.172  21.708  24.609  1.00  0.00    -0.356 N 
ATOM      8  C   UNL A   1      32.020  22.334  24.990  1.00  0.00     0.224 C 
ATOM      9  O   UNL A   1      31.360  21.845  25.909  1.00  0.00    -0.275 OA
ATOM     10  H   UNL A   1      33.356  20.852  25.060  1.00  0.00     0.163 HD
BRANCH   8  11
ATOM     11  C   UNL A   1      31.549  23.578  24.256  1.00  0.00     0.052 C 
ATOM     12  H   UNL A   1      31.881  23.515  23.240  1.00  0.00     0.042 H 
ATOM     13  H   UNL A   1      30.483  23.602  24.339  1.00  0.00     0.042 H 
BRANCH  11  14
ATOM     14  C   UNL A   1      32.064  24.868  24.845  1.00  0.00    -0.039 A 
ATOM     15  C   UNL A   1      32.911  27.341  25.858  1.00  0.00     0.000 A 
ATOM     16  C   UNL A   1      33.548  26.773  24.747  1.00  0.00    -0.053 A 
ATOM     17  C   UNL A   1      31.888  26.639  26.497  1.00  0.00    -0.053 A 
ATOM     18  C   UNL A   1      33.121  25.550  24.236  1.00  0.00    -0.058 A 
ATOM     19  H   UNL A   1      34.338  27.266  24.303  1.00  0.00     0.063 H 
ATOM     20  C   UNL A   1      31.479  25.402  26.002  1.00  0.00    -0.058 A 
ATOM     21  H   UNL A   1      31.434  27.037  27.334  1.00  0.00     0.063 H 
ATOM     22  H   UNL A   1      33.587  25.147  23.408  1.00  0.00     0.063 H 
ATOM     23  H   UNL A   1      30.738  24.876  26.491  1.00  0.00     0.063 H 
BRANCH  15  24
ATOM     24  C   UNL A   1      33.330  28.637  26.369  1.00  0.00     0.075 A 
ATOM     25  N   UNL A   1      32.782  29.853  26.001  1.00  0.00    -0.233 N 
ATOM     26  N   UNL A   1      33.448  30.906  26.541  1.00  0.00    -0.163 NA
ATOM     27  C   UNL A   1      34.424  30.352  27.289  1.00  0.00     0.167 A 
ATOM     28  C   UNL A   1      34.369  28.938  27.223  1.00  0.00    -0.003 A 
ATOM     29  H   UNL A   1      34.983  28.270  27.715  1.00  0.00     0.067 H 
BRANCH  25  30
ATOM     30  C   UNL A   1      31.673  30.062  25.150  1.00  0.00     0.065 A 
ATOM     31  C   UNL A   1      29.494  30.417  23.457  1.00  0.00     0.067 A 
ATOM     32  C   UNL A   1      29.700  31.302  24.523  1.00  0.00    -0.041 A 
ATOM     33  C   UNL A   1      30.357  29.337  23.254  1.00  0.00    -0.041 A 
ATOM     34  C   UNL A   1      30.797  31.129  25.378  1.00  0.00    -0.035 A 
ATOM     35  H   UNL A   1      29.044  32.083  24.679  1.00  0.00     0.064 H 
ATOM     36  C   UNL A   1      31.439  29.152  24.114  1.00  0.00    -0.035 A 
ATOM     37  H   UNL A   1      30.196  28.682  22.473  1.00  0.00     0.064 H 
ATOM     38  H   UNL A   1      30.956  31.777  26.163  1.00  0.00     0.065 H 
ATOM     39  H   UNL A   1      32.067  28.344  23.987  1.00  0.00     0.065 H 
BRANCH  31  40
ATOM     40  S   UNL A   1      28.053  30.578  22.422  1.00  0.00     0.175 S 
ATOM     41  O   UNL A   1      26.902  30.390  23.298  1.00  0.00    -0.224 OA
ATOM     42  O   UNL A   1      28.250  29.758  21.253  1.00  0.00    -0.224 OA
BRANCH  40  43
ATOM     43  C   UNL A   1      28.041  32.256  21.885  1.00  0.00     0.043 C 
ATOM     44  H   UNL A   1      27.292  32.385  21.132  1.00  0.00     0.040 H 
ATOM     45  H   UNL A   1      29.000  32.508  21.481  1.00  0.00     0.040 H 
ATOM     46  H   UNL A   1      27.826  32.895  22.715  1.00  0.00     0.040 H 
ENDBRANCH  40  43
ENDBRANCH  31  40
ENDBRANCH  25  30
BRANCH  27  47
ATOM     47  C   UNL A   1      35.435  31.155  28.065  1.00  0.00     0.435 C 
ATOM     48  F   UNL A   1      35.527  32.440  27.631  1.00  0.00    -0.164 F 
ATOM     49  F   UNL A   1      35.145  31.203  29.393  1.00  0.00    -0.164 F 
ATOM     50  F   UNL A   1      36.686  30.624  27.965  1.00  0.00    -0.164 F 
ENDBRANCH  27  47
ENDBRANCH  15  24
ENDBRANCH  11  14
ENDBRANCH   8  11
ENDBRANCH   4   7
ENDBRANCH   1   4
BRANCH   1  51
ATOM     51  C   UNL A   1      35.301  23.078  25.729  1.00  0.00    -0.052 C 
ATOM     52  H   UNL A   1      35.298  22.249  26.405  1.00  0.00     0.027 H 
ATOM     53  H   UNL A   1      34.385  23.632  25.718  1.00  0.00     0.027 H 
BRANCH  51  54
ATOM     54  C   UNL A   1      36.383  24.065  26.196  1.00  0.00    -0.052 C 
ATOM     55  H   UNL A   1      36.333  24.125  27.262  1.00  0.00     0.027 H 
ATOM     56  H   UNL A   1      36.168  24.984  25.691  1.00  0.00     0.027 H 
BRANCH  54  57
ATOM     57  C   UNL A   1      37.830  23.716  25.814  1.00  0.00    -0.036 C 
ATOM     58  H   UNL A   1      37.981  23.977  24.787  1.00  0.00     0.028 H 
ATOM     59  H   UNL A   1      37.956  22.668  25.991  1.00  0.00     0.028 H 
BRANCH  57  60
ATOM     60  C   UNL A   1      38.875  24.435  26.651  1.00  0.00     0.018 C 
ATOM     61  H   UNL A   1      39.029  23.883  27.555  1.00  0.00     0.049 H 
ATOM     62  H   UNL A   1      38.510  25.421  26.851  1.00  0.00     0.049 H 
BRANCH  60  63
ATOM     63  N   UNL A   1      40.157  24.567  25.957  1.00  0.00    -0.352 N 
ATOM     64  C   UNL A   1      41.019  25.647  25.923  1.00  0.00     0.251 C 
ATOM     65  H   UNL A   1      40.445  23.778  25.442  1.00  0.00     0.163 HD
ATOM     66  O   UNL A   1      41.836  25.779  25.021  1.00  0.00    -0.269 OA
BRANCH  64  67
ATOM     67  C   UNL A   1      40.958  26.633  27.017  1.00  0.00     0.039 A 
ATOM     68  C   UNL A   1      41.140  26.279  28.359  1.00  0.00    -0.049 A 
ATOM     69  C   UNL A   1      40.710  27.955  26.662  1.00  0.00    -0.049 A 
ATOM     70  C   UNL A   1      41.122  27.284  29.327  1.00  0.00    -0.053 A 
ATOM     71  H   UNL A   1      41.286  25.294  28.626  1.00  0.00     0.063 H 
ATOM     72  C   UNL A   1      40.905  28.950  27.576  1.00  0.00    -0.053 A 
ATOM     73  H   UNL A   1      40.380  28.182  25.711  1.00  0.00     0.063 H 
ATOM     74  C   UNL A   1      41.006  28.619  28.919  1.00  0.00    -0.014 A 
ATOM     75  H   UNL A   1      41.192  27.047  30.329  1.00  0.00     0.063 H 
ATOM     76  H   UNL A   1      40.979  29.934  27.272  1.00  0.00     0.063 H 
BRANCH  74  77
ATOM     77  C   UNL A   1      41.119  29.747  29.834  1.00  0.00     0.031 A 
ATOM     78  C   UNL A   1      39.812  30.326  30.225  1.00  0.00     0.074 A 
ATOM     79  C   UNL A   1      42.266  30.019  30.496  1.00  0.00     0.049 A 
ATOM     80  N   UNL A   1      39.371  31.504  29.942  1.00  0.00    -0.248 NA
ATOM     81  C   UNL A   1      38.813  29.450  30.859  1.00  0.00    -0.034 C 
ATOM     82  C   UNL A   1      43.552  29.328  30.406  1.00  0.00    -0.036 A 
ATOM     83  N   UNL A   1      42.499  30.921  31.488  1.00  0.00    -0.354 N 
ATOM     84  C   UNL A   1      38.135  31.600  30.571  1.00  0.00     0.074 A 
ATOM     85  C   UNL A   1      37.749  30.255  30.897  1.00  0.00    -0.034 C 
ATOM     86  H   UNL A   1      38.909  28.476  31.187  1.00  0.00     0.065 H 
ATOM     87  C   UNL A   1      44.335  29.661  31.460  1.00  0.00    -0.036 A 
ATOM     88  H   UNL A   1      43.824  28.682  29.649  1.00  0.00     0.065 H 
ATOM     89  C   UNL A   1      43.681  30.714  32.208  1.00  0.00     0.049 A 
ATOM     90  H   UNL A   1      41.884  31.664  31.686  1.00  0.00     0.167 HD
ATOM     91  C   UNL A   1      37.697  32.802  31.041  1.00  0.00     0.037 A 
ATOM     92  H   UNL A   1      36.788  29.954  31.125  1.00  0.00     0.065 H 
ATOM     93  H   UNL A   1      45.245  29.234  31.692  1.00  0.00     0.065 H 
ATOM     94  C   UNL A   1      44.076  31.374  33.330  1.00  0.00     0.037 A 
ATOM     95  C   UNL A   1      38.441  33.885  30.435  1.00  0.00     0.049 A 
ATOM     96  C   UNL A   1      43.272  32.619  33.385  1.00  0.00     0.074 A 
ATOM     97  C   UNL A   1      38.697  34.271  29.132  1.00  0.00    -0.036 A 
ATOM     98  N   UNL A   1      39.403  34.514  31.192  1.00  0.00    -0.354 N 
ATOM     99  N   UNL A   1      43.435  33.604  32.548  1.00  0.00    -0.248 NA
ATOM    100  C   UNL A   1      41.970  32.534  34.029  1.00  0.00    -0.034 C 
ATOM    101  C   UNL A   1      40.074  34.647  29.122  1.00  0.00    -0.036 A 
ATOM    102  H   UNL A   1      38.037  34.283  28.339  1.00  0.00     0.065 H 
ATOM    103  C   UNL A   1      40.543  34.576  30.431  1.00  0.00     0.049 A 
ATOM    104  H   UNL A   1      39.293  34.856  32.108  1.00  0.00     0.167 HD
ATOM    105  C   UNL A   1      42.147  33.988  32.220  1.00  0.00     0.074 A 
ATOM    106  C   UNL A   1      41.283  33.329  33.203  1.00  0.00    -0.034 C 
ATOM    107  H   UNL A   1      41.668  32.015  34.868  1.00  0.00     0.065 H 
ATOM    108  H   UNL A   1      40.624  34.921  28.293  1.00  0.00     0.065 H 
ATOM    109  C   UNL A   1      41.866  34.532  31.000  1.00  0.00     0.037 A 
ATOM    110  H   UNL A   1      40.262  33.464  33.253  1.00  0.00     0.065 H 
BRANCH  91 111
ATOM    111  C   UNL A   1      36.911  32.981  32.325  1.00  0.00     0.064 A 
ATOM    112  C   UNL A   1      35.723  33.740  32.285  1.00  0.00     0.173 A 
ATOM    113  C   UNL A   1      37.400  32.705  33.622  1.00  0.00     0.173 A 
ATOM    114  F   UNL A   1      35.162  34.069  31.112  1.00  0.00    -0.203 F 
ATOM    115  C   UNL A   1      35.138  34.266  33.440  1.00  0.00     0.198 A 
ATOM    116  C   UNL A   1      36.783  33.185  34.775  1.00  0.00     0.198 A 
ATOM    117  F   UNL A   1      38.547  32.056  33.842  1.00  0.00    -0.203 F 
ATOM    118  F   UNL A   1      34.093  35.097  33.333  1.00  0.00    -0.200 F 
ATOM    119  C   UNL A   1      35.673  33.995  34.683  1.00  0.00     0.200 A 
ATOM    120  F   UNL A   1      37.325  32.916  35.971  1.00  0.00    -0.200 F 
ATOM    121  F   UNL A   1      35.153  34.549  35.786  1.00  0.00    -0.200 F 
ENDBRANCH  91 111
BRANCH  94 122
ATOM    122  C   UNL A   1      44.882  30.950  34.504  1.00  0.00     0.064 A 
ATOM    123  C   UNL A   1      44.459  29.899  35.337  1.00  0.00     0.173 A 
ATOM    124  C   UNL A   1      46.225  31.336  34.630  1.00  0.00     0.173 A 
ATOM    125  F   UNL A   1      43.196  29.455  35.270  1.00  0.00    -0.203 F 
ATOM    126  C   UNL A   1      45.339  29.236  36.201  1.00  0.00     0.198 A 
ATOM    127  C   UNL A   1      47.101  30.671  35.498  1.00  0.00     0.198 A 
ATOM    128  F   UNL A   1      46.712  32.306  33.847  1.00  0.00    -0.203 F 
ATOM    129  F   UNL A   1      44.912  28.197  36.931  1.00  0.00    -0.200 F 
ATOM    130  C   UNL A   1      46.666  29.610  36.265  1.00  0.00     0.200 A 
ATOM    131  F   UNL A   1      48.390  31.015  35.574  1.00  0.00    -0.200 F 
ATOM    132  F   UNL A   1      47.532  28.940  37.039  1.00  0.00    -0.200 F 
ENDBRANCH  94 122
BRANCH 109 133
ATOM    133  C   UNL A   1      43.014  34.922  30.110  1.00  0.00     0.064 A 
ATOM    134  C   UNL A   1      43.531  34.124  29.072  1.00  0.00     0.173 A 
ATOM    135  C   UNL A   1      43.519  36.221  30.229  1.00  0.00     0.173 A 
ATOM    136  F   UNL A   1      43.033  32.906  28.821  1.00  0.00    -0.203 F 
ATOM    137  C   UNL A   1      44.538  34.594  28.229  1.00  0.00     0.198 A 
ATOM    138  C   UNL A   1      44.497  36.702  29.363  1.00  0.00     0.198 A 
ATOM    139  F   UNL A   1      43.028  37.048  31.166  1.00  0.00    -0.203 F 
ATOM    140  F   UNL A   1      45.022  33.809  27.254  1.00  0.00    -0.200 F 
ATOM    141  C   UNL A   1      45.016  35.886  28.372  1.00  0.00     0.200 A 
ATOM    142  F   UNL A   1      44.917  37.969  29.476  1.00  0.00    -0.200 F 
ATOM    143  F   UNL A   1      45.955  36.354  27.539  1.00  0.00    -0.200 F 
ENDBRANCH 109 133
ENDBRANCH  74  77
ENDBRANCH  64  67
ENDBRANCH  60  63
ENDBRANCH  57  60
ENDBRANCH  54  57
ENDBRANCH  51  54
ENDBRANCH   1  51
TORSDOF 19
ENDMDL
MODEL 8
REMARK VINA RESULT:     -11.5      3.685      8.834
REMARK SMILES CS(=O)(=O)c1ccc(-n2nc(C(F)(F)F)cc2-c2ccc(CC(=O)NCCCCCCNC(=O)c3ccc(-c4c5nc(c(-c6c(F)c(F)c(F)c(F)c6F)c6ccc([nH]6)c(-c6c(F)c(F)c(F)c(F)c6F)c6nc(c(-c7c(F)c(F)c(F)c(F)c7F)c7ccc4[nH]7)C=C6)C=C5)cc3)cc2)cc1
REMARK SMILES IDX 27 1 26 4 25 7 23 8 24 9 22 11 21 14 18 15 19 16 99 17 20 18
REMARK SMILES IDX 98 20 17 24 9 25 10 26 11 27 16 28 8 30 5 31 6 32 101 33
REMARK SMILES IDX 7 34 100 36 2 40 3 41 4 42 1 43 12 47 13 48 14 49 15 50
REMARK SMILES IDX 28 51 29 54 30 57 31 60 32 63 33 64 34 66 35 67 36 68 97 69
REMARK SMILES IDX 37 70 96 72 38 74 39 77 40 78 90 79 41 80 95 81 89 82 91 83
REMARK SMILES IDX 42 84 94 85 88 87 87 89 43 91 75 94 55 95 74 96 56 97 59 98
REMARK SMILES IDX 73 99 92 100 57 101 58 103 72 105 93 106 60 109 44 111
REMARK SMILES IDX 45 112 53 113 46 114 47 115 51 116 54 117 48 118 49 119
REMARK SMILES IDX 52 120 50 121 76 122 77 123 85 124 78 125 79 126 83 127
REMARK SMILES IDX 86 128 80 129 81 130 84 131 82 132 61 133 62 134 70 135
REMARK SMILES IDX 63 136 64 137 68 138 71 139 65 140 66 141 69 142 67 143
REMARK H PARENT 27 2 27 3 26 5 26 6 25 10 22 12 22 13 19 19 99 21 20 22 98 23
REMARK H PARENT 16 29 6 35 101 37 7 38 100 39 1 44 1 45 1 46 28 52 28 53 29 55
REMARK H PARENT 29 56 30 58 30 59 31 61 31 62 32 65 36 71 97 73 37 75 96 76
REMARK H PARENT 95 86 89 88 91 90 94 92 88 93 56 102 59 104 92 107 57 108
REMARK H PARENT 93 110
REMARK Flexibility Score: inf
ROOT
ATOM      1  C   UNL A   1      33.829  33.268  28.112  1.00  0.00    -0.036 C 
ATOM      2  H   UNL A   1      32.770  33.145  28.207  1.00  0.00     0.028 H 
ATOM      3  H   UNL A   1      34.159  33.207  27.096  1.00  0.00     0.028 H 
ENDROOT
BRANCH   1   4
ATOM      4  C   UNL A   1      34.516  32.132  28.872  1.00  0.00     0.017 C 
ATOM      5  H   UNL A   1      34.867  32.503  29.812  1.00  0.00     0.049 H 
ATOM      6  H   UNL A   1      33.804  31.345  29.015  1.00  0.00     0.049 H 
BRANCH   4   7
ATOM      7  N   UNL A   1      35.638  31.598  28.126  1.00  0.00    -0.356 N 
ATOM      8  C   UNL A   1      35.895  30.310  27.757  1.00  0.00     0.224 C 
ATOM      9  O   UNL A   1      36.963  30.060  27.195  1.00  0.00    -0.275 OA
ATOM     10  H   UNL A   1      36.310  32.260  27.844  1.00  0.00     0.163 HD
BRANCH   8  11
ATOM     11  C   UNL A   1      34.857  29.226  27.997  1.00  0.00     0.052 C 
ATOM     12  H   UNL A   1      35.358  28.280  28.028  1.00  0.00     0.042 H 
ATOM     13  H   UNL A   1      34.368  29.463  28.918  1.00  0.00     0.042 H 
BRANCH  11  14
ATOM     14  C   UNL A   1      33.785  29.161  26.937  1.00  0.00    -0.039 A 
ATOM     15  C   UNL A   1      31.782  29.195  24.976  1.00  0.00     0.000 A 
ATOM     16  C   UNL A   1      31.457  28.964  26.318  1.00  0.00    -0.053 A 
ATOM     17  C   UNL A   1      33.120  29.351  24.609  1.00  0.00    -0.053 A 
ATOM     18  C   UNL A   1      32.449  28.957  27.295  1.00  0.00    -0.058 A 
ATOM     19  H   UNL A   1      30.474  28.798  26.586  1.00  0.00     0.063 H 
ATOM     20  C   UNL A   1      34.116  29.317  25.583  1.00  0.00    -0.058 A 
ATOM     21  H   UNL A   1      33.370  29.491  23.619  1.00  0.00     0.063 H 
ATOM     22  H   UNL A   1      32.198  28.801  28.284  1.00  0.00     0.063 H 
ATOM     23  H   UNL A   1      35.106  29.408  25.305  1.00  0.00     0.063 H 
BRANCH  15  24
ATOM     24  C   UNL A   1      30.742  29.241  23.960  1.00  0.00     0.075 A 
ATOM     25  N   UNL A   1      30.478  28.238  23.045  1.00  0.00    -0.233 N 
ATOM     26  N   UNL A   1      29.535  28.599  22.137  1.00  0.00    -0.163 NA
ATOM     27  C   UNL A   1      29.170  29.848  22.495  1.00  0.00     0.167 A 
ATOM     28  C   UNL A   1      29.886  30.274  23.640  1.00  0.00    -0.003 A 
ATOM     29  H   UNL A   1      29.788  31.174  24.134  1.00  0.00     0.067 H 
BRANCH  25  30
ATOM     30  C   UNL A   1      31.089  26.965  22.979  1.00  0.00     0.065 A 
ATOM     31  C   UNL A   1      32.345  24.487  22.834  1.00  0.00     0.067 A 
ATOM     32  C   UNL A   1      31.169  24.630  23.583  1.00  0.00    -0.041 A 
ATOM     33  C   UNL A   1      32.910  25.585  22.183  1.00  0.00    -0.041 A 
ATOM     34  C   UNL A   1      30.533  25.876  23.658  1.00  0.00    -0.035 A 
ATOM     35  H   UNL A   1      30.772  23.817  24.080  1.00  0.00     0.064 H 
ATOM     36  C   UNL A   1      32.288  26.830  22.272  1.00  0.00    -0.035 A 
ATOM     37  H   UNL A   1      33.781  25.477  21.640  1.00  0.00     0.064 H 
ATOM     38  H   UNL A   1      29.667  25.988  24.206  1.00  0.00     0.065 H 
ATOM     39  H   UNL A   1      32.711  27.652  21.815  1.00  0.00     0.065 H 
BRANCH  31  40
ATOM     40  S   UNL A   1      33.208  22.928  22.809  1.00  0.00     0.175 S 
ATOM     41  O   UNL A   1      34.500  23.191  22.186  1.00  0.00    -0.224 OA
ATOM     42  O   UNL A   1      32.309  21.930  22.285  1.00  0.00    -0.224 OA
BRANCH  40  43
ATOM     43  C   UNL A   1      33.506  22.525  24.498  1.00  0.00     0.043 C 
ATOM     44  H   UNL A   1      34.258  21.767  24.557  1.00  0.00     0.040 H 
ATOM     45  H   UNL A   1      32.602  22.166  24.945  1.00  0.00     0.040 H 
ATOM     46  H   UNL A   1      33.839  23.398  25.020  1.00  0.00     0.040 H 
ENDBRANCH  40  43
ENDBRANCH  31  40
ENDBRANCH  25  30
BRANCH  27  47
ATOM     47  C   UNL A   1      28.148  30.663  21.746  1.00  0.00     0.435 C 
ATOM     48  F   UNL A   1      27.050  30.943  22.496  1.00  0.00    -0.164 F 
ATOM     49  F   UNL A   1      28.652  31.852  21.318  1.00  0.00    -0.164 F 
ATOM     50  F   UNL A   1      27.702  30.014  20.635  1.00  0.00    -0.164 F 
ENDBRANCH  27  47
ENDBRANCH  15  24
ENDBRANCH  11  14
ENDBRANCH   8  11
ENDBRANCH   4   7
ENDBRANCH   1   4
BRANCH   1  51
ATOM     51  C   UNL A   1      34.201  34.668  28.618  1.00  0.00    -0.052 C 
ATOM     52  H   UNL A   1      34.585  35.226  27.790  1.00  0.00     0.027 H 
ATOM     53  H   UNL A   1      34.910  34.516  29.405  1.00  0.00     0.027 H 
BRANCH  51  54
ATOM     54  C   UNL A   1      33.052  35.477  29.240  1.00  0.00    -0.052 C 
ATOM     55  H   UNL A   1      32.135  34.984  28.996  1.00  0.00     0.027 H 
ATOM     56  H   UNL A   1      33.144  36.463  28.833  1.00  0.00     0.027 H 
BRANCH  54  57
ATOM     57  C   UNL A   1      33.095  35.658  30.765  1.00  0.00    -0.036 C 
ATOM     58  H   UNL A   1      32.131  35.416  31.162  1.00  0.00     0.028 H 
ATOM     59  H   UNL A   1      33.369  36.676  30.952  1.00  0.00     0.028 H 
BRANCH  57  60
ATOM     60  C   UNL A   1      34.131  34.786  31.456  1.00  0.00     0.018 C 
ATOM     61  H   UNL A   1      35.062  34.885  30.937  1.00  0.00     0.049 H 
ATOM     62  H   UNL A   1      33.775  33.778  31.435  1.00  0.00     0.049 H 
BRANCH  60  63
ATOM     63  N   UNL A   1      34.333  35.159  32.858  1.00  0.00    -0.352 N 
ATOM     64  C   UNL A   1      35.210  34.621  33.781  1.00  0.00     0.251 C 
ATOM     65  H   UNL A   1      33.767  35.894  33.188  1.00  0.00     0.163 HD
ATOM     66  O   UNL A   1      35.017  34.741  34.984  1.00  0.00    -0.269 OA
BRANCH  64  67
ATOM     67  C   UNL A   1      36.409  33.918  33.290  1.00  0.00     0.039 A 
ATOM     68  C   UNL A   1      37.625  34.573  33.067  1.00  0.00    -0.049 A 
ATOM     69  C   UNL A   1      36.287  32.553  33.053  1.00  0.00    -0.049 A 
ATOM     70  C   UNL A   1      38.727  33.822  32.654  1.00  0.00    -0.053 A 
ATOM     71  H   UNL A   1      37.706  35.592  33.206  1.00  0.00     0.063 H 
ATOM     72  C   UNL A   1      37.407  31.796  32.860  1.00  0.00    -0.053 A 
ATOM     73  H   UNL A   1      35.354  32.114  33.023  1.00  0.00     0.063 H 
ATOM     74  C   UNL A   1      38.603  32.430  32.557  1.00  0.00    -0.014 A 
ATOM     75  H   UNL A   1      39.620  34.286  32.423  1.00  0.00     0.063 H 
ATOM     76  H   UNL A   1      37.364  30.768  32.940  1.00  0.00     0.063 H 
BRANCH  74  77
ATOM     77  C   UNL A   1      39.725  31.545  32.275  1.00  0.00     0.031 A 
ATOM     78  C   UNL A   1      40.394  31.030  33.492  1.00  0.00     0.074 A 
ATOM     79  C   UNL A   1      39.922  31.008  31.049  1.00  0.00     0.049 A 
ATOM     80  N   UNL A   1      41.598  31.281  33.880  1.00  0.00    -0.248 NA
ATOM     81  C   UNL A   1      39.592  30.285  34.477  1.00  0.00    -0.034 C 
ATOM     82  C   UNL A   1      39.144  31.221  29.830  1.00  0.00    -0.036 A 
ATOM     83  N   UNL A   1      40.811  30.056  30.655  1.00  0.00    -0.354 N 
ATOM     84  C   UNL A   1      41.782  30.529  35.035  1.00  0.00     0.074 A 
ATOM     85  C   UNL A   1      40.468  30.149  35.475  1.00  0.00    -0.034 C 
ATOM     86  H   UNL A   1      38.616  29.957  34.414  1.00  0.00     0.065 H 
ATOM     87  C   UNL A   1      39.428  30.257  28.922  1.00  0.00    -0.036 A 
ATOM     88  H   UNL A   1      38.477  31.994  29.681  1.00  0.00     0.065 H 
ATOM     89  C   UNL A   1      40.527  29.459  29.422  1.00  0.00     0.049 A 
ATOM     90  H   UNL A   1      41.595  29.806  31.196  1.00  0.00     0.167 HD
ATOM     91  C   UNL A   1      43.013  30.031  35.340  1.00  0.00     0.037 A 
ATOM     92  H   UNL A   1      40.234  29.819  36.425  1.00  0.00     0.065 H 
ATOM     93  H   UNL A   1      38.941  30.115  28.023  1.00  0.00     0.065 H 
ATOM     94  C   UNL A   1      41.165  28.391  28.870  1.00  0.00     0.037 A 
ATOM     95  C   UNL A   1      44.039  30.723  34.591  1.00  0.00     0.049 A 
ATOM     96  C   UNL A   1      42.462  28.270  29.578  1.00  0.00     0.074 A 
ATOM     97  C   UNL A   1      44.400  32.051  34.446  1.00  0.00    -0.036 A 
ATOM     98  N   UNL A   1      44.605  30.077  33.516  1.00  0.00    -0.354 N 
ATOM     99  N   UNL A   1      43.429  29.131  29.436  1.00  0.00    -0.248 NA
ATOM    100  C   UNL A   1      42.469  27.495  30.810  1.00  0.00    -0.034 C 
ATOM    101  C   UNL A   1      44.681  32.207  33.055  1.00  0.00    -0.036 A 
ATOM    102  H   UNL A   1      44.453  32.772  35.182  1.00  0.00     0.065 H 
ATOM    103  C   UNL A   1      44.586  30.951  32.459  1.00  0.00     0.049 A 
ATOM    104  H   UNL A   1      44.959  29.159  33.507  1.00  0.00     0.167 HD
ATOM    105  C   UNL A   1      43.898  29.330  30.723  1.00  0.00     0.074 A 
ATOM    106  C   UNL A   1      43.305  28.255  31.522  1.00  0.00    -0.034 C 
ATOM    107  H   UNL A   1      41.977  26.622  31.058  1.00  0.00     0.065 H 
ATOM    108  H   UNL A   1      44.913  33.091  32.576  1.00  0.00     0.065 H 
ATOM    109  C   UNL A   1      44.454  30.521  31.090  1.00  0.00     0.037 A 
ATOM    110  H   UNL A   1      43.510  28.103  32.522  1.00  0.00     0.065 H 
BRANCH  91 111
ATOM    111  C   UNL A   1      43.252  28.675  35.975  1.00  0.00     0.064 A 
ATOM    112  C   UNL A   1      44.191  28.582  37.023  1.00  0.00     0.173 A 
ATOM    113  C   UNL A   1      42.839  27.439  35.430  1.00  0.00     0.173 A 
ATOM    114  F   UNL A   1      44.662  29.687  37.620  1.00  0.00    -0.203 F 
ATOM    115  C   UNL A   1      44.747  27.361  37.415  1.00  0.00     0.198 A 
ATOM    116  C   UNL A   1      43.354  26.219  35.862  1.00  0.00     0.198 A 
ATOM    117  F   UNL A   1      42.006  27.346  34.390  1.00  0.00    -0.203 F 
ATOM    118  F   UNL A   1      45.738  27.343  38.317  1.00  0.00    -0.200 F 
ATOM    119  C   UNL A   1      44.335  26.181  36.828  1.00  0.00     0.200 A 
ATOM    120  F   UNL A   1      42.945  25.087  35.271  1.00  0.00    -0.200 F 
ATOM    121  F   UNL A   1      44.909  25.017  37.156  1.00  0.00    -0.200 F 
ENDBRANCH  91 111
BRANCH  94 122
ATOM    122  C   UNL A   1      40.693  27.302  27.977  1.00  0.00     0.064 A 
ATOM    123  C   UNL A   1      41.394  26.966  26.804  1.00  0.00     0.173 A 
ATOM    124  C   UNL A   1      39.754  26.361  28.426  1.00  0.00     0.173 A 
ATOM    125  F   UNL A   1      42.322  27.799  26.315  1.00  0.00    -0.203 F 
ATOM    126  C   UNL A   1      41.208  25.740  26.153  1.00  0.00     0.198 A 
ATOM    127  C   UNL A   1      39.570  25.138  27.770  1.00  0.00     0.198 A 
ATOM    128  F   UNL A   1      39.072  26.593  29.554  1.00  0.00    -0.203 F 
ATOM    129  F   UNL A   1      41.941  25.431  25.076  1.00  0.00    -0.200 F 
ATOM    130  C   UNL A   1      40.310  24.817  26.650  1.00  0.00     0.200 A 
ATOM    131  F   UNL A   1      38.707  24.228  28.234  1.00  0.00    -0.200 F 
ATOM    132  F   UNL A   1      40.171  23.615  26.074  1.00  0.00    -0.200 F 
ENDBRANCH  94 122
BRANCH 109 133
ATOM    133  C   UNL A   1      44.760  31.529  30.017  1.00  0.00     0.064 A 
ATOM    134  C   UNL A   1      43.843  32.475  29.521  1.00  0.00     0.173 A 
ATOM    135  C   UNL A   1      46.083  31.627  29.572  1.00  0.00     0.173 A 
ATOM    136  F   UNL A   1      42.582  32.521  29.971  1.00  0.00    -0.203 F 
ATOM    137  C   UNL A   1      44.229  33.440  28.589  1.00  0.00     0.198 A 
ATOM    138  C   UNL A   1      46.475  32.613  28.671  1.00  0.00     0.198 A 
ATOM    139  F   UNL A   1      47.014  30.785  30.049  1.00  0.00    -0.203 F 
ATOM    140  F   UNL A   1      43.334  34.323  28.123  1.00  0.00    -0.200 F 
ATOM    141  C   UNL A   1      45.547  33.510  28.170  1.00  0.00     0.200 A 
ATOM    142  F   UNL A   1      47.762  32.706  28.310  1.00  0.00    -0.200 F 
ATOM    143  F   UNL A   1      45.931  34.459  27.305  1.00  0.00    -0.200 F 
ENDBRANCH 109 133
ENDBRANCH  74  77
ENDBRANCH  64  67
ENDBRANCH  60  63
ENDBRANCH  57  60
ENDBRANCH  54  57
ENDBRANCH  51  54
ENDBRANCH   1  51
TORSDOF 19
ENDMDL
MODEL 9
REMARK VINA RESULT:     -11.4      5.270     10.557
REMARK SMILES CS(=O)(=O)c1ccc(-n2nc(C(F)(F)F)cc2-c2ccc(CC(=O)NCCCCCCNC(=O)c3ccc(-c4c5nc(c(-c6c(F)c(F)c(F)c(F)c6F)c6ccc([nH]6)c(-c6c(F)c(F)c(F)c(F)c6F)c6nc(c(-c7c(F)c(F)c(F)c(F)c7F)c7ccc4[nH]7)C=C6)C=C5)cc3)cc2)cc1
REMARK SMILES IDX 27 1 26 4 25 7 23 8 24 9 22 11 21 14 18 15 19 16 99 17 20 18
REMARK SMILES IDX 98 20 17 24 9 25 10 26 11 27 16 28 8 30 5 31 6 32 101 33
REMARK SMILES IDX 7 34 100 36 2 40 3 41 4 42 1 43 12 47 13 48 14 49 15 50
REMARK SMILES IDX 28 51 29 54 30 57 31 60 32 63 33 64 34 66 35 67 36 68 97 69
REMARK SMILES IDX 37 70 96 72 38 74 39 77 40 78 90 79 41 80 95 81 89 82 91 83
REMARK SMILES IDX 42 84 94 85 88 87 87 89 43 91 75 94 55 95 74 96 56 97 59 98
REMARK SMILES IDX 73 99 92 100 57 101 58 103 72 105 93 106 60 109 44 111
REMARK SMILES IDX 45 112 53 113 46 114 47 115 51 116 54 117 48 118 49 119
REMARK SMILES IDX 52 120 50 121 76 122 77 123 85 124 78 125 79 126 83 127
REMARK SMILES IDX 86 128 80 129 81 130 84 131 82 132 61 133 62 134 70 135
REMARK SMILES IDX 63 136 64 137 68 138 71 139 65 140 66 141 69 142 67 143
REMARK H PARENT 27 2 27 3 26 5 26 6 25 10 22 12 22 13 19 19 99 21 20 22 98 23
REMARK H PARENT 16 29 6 35 101 37 7 38 100 39 1 44 1 45 1 46 28 52 28 53 29 55
REMARK H PARENT 29 56 30 58 30 59 31 61 31 62 32 65 36 71 97 73 37 75 96 76
REMARK H PARENT 95 86 89 88 91 90 94 92 88 93 56 102 59 104 92 107 57 108
REMARK H PARENT 93 110
REMARK Flexibility Score: inf
ROOT
ATOM      1  C   UNL A   1      42.286  32.829  35.955  1.00  0.00    -0.036 C 
ATOM      2  H   UNL A   1      42.838  32.099  36.510  1.00  0.00     0.028 H 
ATOM      3  H   UNL A   1      42.883  33.676  35.685  1.00  0.00     0.028 H 
ENDROOT
BRANCH   1   4
ATOM      4  C   UNL A   1      41.151  33.349  36.839  1.00  0.00     0.017 C 
ATOM      5  H   UNL A   1      40.276  32.758  36.667  1.00  0.00     0.049 H 
ATOM      6  H   UNL A   1      41.463  33.279  37.861  1.00  0.00     0.049 H 
BRANCH   4   7
ATOM      7  N   UNL A   1      40.848  34.736  36.551  1.00  0.00    -0.356 N 
ATOM      8  C   UNL A   1      39.670  35.297  36.151  1.00  0.00     0.224 C 
ATOM      9  O   UNL A   1      39.653  36.498  35.874  1.00  0.00    -0.275 OA
ATOM     10  H   UNL A   1      41.599  35.364  36.661  1.00  0.00     0.163 HD
BRANCH   8  11
ATOM     11  C   UNL A   1      38.404  34.458  36.099  1.00  0.00     0.052 C 
ATOM     12  H   UNL A   1      38.362  33.857  36.984  1.00  0.00     0.042 H 
ATOM     13  H   UNL A   1      37.583  35.140  36.026  1.00  0.00     0.042 H 
BRANCH  11  14
ATOM     14  C   UNL A   1      38.324  33.546  34.901  1.00  0.00    -0.039 A 
ATOM     15  C   UNL A   1      38.316  31.795  32.711  1.00  0.00     0.000 A 
ATOM     16  C   UNL A   1      38.701  33.132  32.550  1.00  0.00    -0.053 A 
ATOM     17  C   UNL A   1      37.878  31.352  33.959  1.00  0.00    -0.053 A 
ATOM     18  C   UNL A   1      38.716  34.000  33.639  1.00  0.00    -0.058 A 
ATOM     19  H   UNL A   1      38.978  33.477  31.617  1.00  0.00     0.063 H 
ATOM     20  C   UNL A   1      37.867  32.227  35.044  1.00  0.00    -0.058 A 
ATOM     21  H   UNL A   1      37.564  30.377  34.079  1.00  0.00     0.063 H 
ATOM     22  H   UNL A   1      39.015  34.980  33.513  1.00  0.00     0.063 H 
ATOM     23  H   UNL A   1      37.520  31.902  35.959  1.00  0.00     0.063 H 
BRANCH  15  24
ATOM     24  C   UNL A   1      38.338  30.878  31.582  1.00  0.00     0.075 A 
ATOM     25  N   UNL A   1      37.522  30.967  30.468  1.00  0.00    -0.233 N 
ATOM     26  N   UNL A   1      37.673  29.910  29.630  1.00  0.00    -0.163 NA
ATOM     27  C   UNL A   1      38.622  29.143  30.206  1.00  0.00     0.167 A 
ATOM     28  C   UNL A   1      39.075  29.726  31.414  1.00  0.00    -0.003 A 
ATOM     29  H   UNL A   1      39.809  29.361  32.041  1.00  0.00     0.067 H 
BRANCH  25  30
ATOM     30  C   UNL A   1      36.597  31.994  30.172  1.00  0.00     0.065 A 
ATOM     31  C   UNL A   1      34.806  34.026  29.538  1.00  0.00     0.067 A 
ATOM     32  C   UNL A   1      34.441  33.038  30.464  1.00  0.00    -0.041 A 
ATOM     33  C   UNL A   1      36.050  33.983  28.907  1.00  0.00    -0.041 A 
ATOM     34  C   UNL A   1      35.340  32.014  30.787  1.00  0.00    -0.035 A 
ATOM     35  H   UNL A   1      33.509  33.066  30.907  1.00  0.00     0.064 H 
ATOM     36  C   UNL A   1      36.940  32.954  29.214  1.00  0.00    -0.035 A 
ATOM     37  H   UNL A   1      36.311  34.707  28.219  1.00  0.00     0.064 H 
ATOM     38  H   UNL A   1      35.080  31.285  31.468  1.00  0.00     0.065 H 
ATOM     39  H   UNL A   1      37.852  32.899  28.735  1.00  0.00     0.065 H 
BRANCH  31  40
ATOM     40  S   UNL A   1      33.635  35.279  29.055  1.00  0.00     0.175 S 
ATOM     41  O   UNL A   1      32.528  34.575  28.417  1.00  0.00    -0.224 OA
ATOM     42  O   UNL A   1      34.356  36.323  28.372  1.00  0.00    -0.224 OA
BRANCH  40  43
ATOM     43  C   UNL A   1      33.027  35.965  30.560  1.00  0.00     0.043 C 
ATOM     44  H   UNL A   1      33.812  35.984  31.286  1.00  0.00     0.040 H 
ATOM     45  H   UNL A   1      32.219  35.366  30.925  1.00  0.00     0.040 H 
ATOM     46  H   UNL A   1      32.681  36.962  30.384  1.00  0.00     0.040 H 
ENDBRANCH  40  43
ENDBRANCH  31  40
ENDBRANCH  25  30
BRANCH  27  47
ATOM     47  C   UNL A   1      39.102  27.838  29.627  1.00  0.00     0.435 C 
ATOM     48  F   UNL A   1      40.450  27.804  29.457  1.00  0.00    -0.164 F 
ATOM     49  F   UNL A   1      38.772  26.776  30.410  1.00  0.00    -0.164 F 
ATOM     50  F   UNL A   1      38.552  27.597  28.404  1.00  0.00    -0.164 F 
ENDBRANCH  27  47
ENDBRANCH  15  24
ENDBRANCH  11  14
ENDBRANCH   8  11
ENDBRANCH   4   7
ENDBRANCH   1   4
BRANCH   1  51
ATOM     51  C   UNL A   1      41.810  32.184  34.647  1.00  0.00    -0.052 C 
ATOM     52  H   UNL A   1      40.743  32.250  34.618  1.00  0.00     0.027 H 
ATOM     53  H   UNL A   1      42.182  31.181  34.663  1.00  0.00     0.027 H 
BRANCH  51  54
ATOM     54  C   UNL A   1      42.358  32.814  33.357  1.00  0.00    -0.052 C 
ATOM     55  H   UNL A   1      41.835  32.380  32.532  1.00  0.00     0.027 H 
ATOM     56  H   UNL A   1      43.410  32.616  33.367  1.00  0.00     0.027 H 
BRANCH  54  57
ATOM     57  C   UNL A   1      42.231  34.341  33.239  1.00  0.00    -0.036 C 
ATOM     58  H   UNL A   1      42.677  34.785  34.105  1.00  0.00     0.028 H 
ATOM     59  H   UNL A   1      41.187  34.562  33.160  1.00  0.00     0.028 H 
BRANCH  57  60
ATOM     60  C   UNL A   1      42.901  34.919  32.003  1.00  0.00     0.018 C 
ATOM     61  H   UNL A   1      43.626  34.216  31.647  1.00  0.00     0.049 H 
ATOM     62  H   UNL A   1      43.356  35.846  32.283  1.00  0.00     0.049 H 
BRANCH  60  63
ATOM     63  N   UNL A   1      41.948  35.196  30.927  1.00  0.00    -0.352 N 
ATOM     64  C   UNL A   1      41.838  34.592  29.689  1.00  0.00     0.251 C 
ATOM     65  H   UNL A   1      41.297  35.912  31.109  1.00  0.00     0.163 HD
ATOM     66  O   UNL A   1      41.282  35.155  28.755  1.00  0.00    -0.269 OA
BRANCH  64  67
ATOM     67  C   UNL A   1      42.380  33.232  29.515  1.00  0.00     0.039 A 
ATOM     68  C   UNL A   1      43.659  32.994  28.998  1.00  0.00    -0.049 A 
ATOM     69  C   UNL A   1      41.562  32.173  29.893  1.00  0.00    -0.049 A 
ATOM     70  C   UNL A   1      44.117  31.678  28.919  1.00  0.00    -0.053 A 
ATOM     71  H   UNL A   1      44.252  33.777  28.683  1.00  0.00     0.063 H 
ATOM     72  C   UNL A   1      42.088  30.919  30.014  1.00  0.00    -0.053 A 
ATOM     73  H   UNL A   1      40.561  32.335  30.081  1.00  0.00     0.063 H 
ATOM     74  C   UNL A   1      43.319  30.649  29.435  1.00  0.00    -0.014 A 
ATOM     75  H   UNL A   1      45.030  31.467  28.487  1.00  0.00     0.063 H 
ATOM     76  H   UNL A   1      41.579  30.185  30.530  1.00  0.00     0.063 H 
BRANCH  74  77
ATOM     77  C   UNL A   1      43.764  29.264  29.530  1.00  0.00     0.031 A 
ATOM     78  C   UNL A   1      44.151  28.860  30.901  1.00  0.00     0.074 A 
ATOM     79  C   UNL A   1      43.537  28.370  28.541  1.00  0.00     0.049 A 
ATOM     80  N   UNL A   1      45.330  28.529  31.308  1.00  0.00    -0.248 NA
ATOM     81  C   UNL A   1      43.162  28.992  31.984  1.00  0.00    -0.034 C 
ATOM     82  C   UNL A   1      42.896  28.594  27.246  1.00  0.00    -0.036 A 
ATOM     83  N   UNL A   1      43.740  27.025  28.528  1.00  0.00    -0.354 N 
ATOM     84  C   UNL A   1      45.179  28.179  32.645  1.00  0.00     0.074 A 
ATOM     85  C   UNL A   1      43.909  28.712  33.054  1.00  0.00    -0.034 C 
ATOM     86  H   UNL A   1      42.161  29.236  31.930  1.00  0.00     0.065 H 
ATOM     87  C   UNL A   1      42.540  27.409  26.692  1.00  0.00    -0.036 A 
ATOM     88  H   UNL A   1      42.737  29.518  26.816  1.00  0.00     0.065 H 
ATOM     89  C   UNL A   1      43.078  26.339  27.504  1.00  0.00     0.049 A 
ATOM     90  H   UNL A   1      44.310  26.568  29.188  1.00  0.00     0.167 HD
ATOM     91  C   UNL A   1      45.972  27.217  33.195  1.00  0.00     0.037 A 
ATOM     92  H   UNL A   1      43.616  28.857  34.033  1.00  0.00     0.065 H 
ATOM     93  H   UNL A   1      41.979  27.291  25.834  1.00  0.00     0.065 H 
ATOM     94  C   UNL A   1      42.994  24.989  27.352  1.00  0.00     0.037 A 
ATOM     95  C   UNL A   1      47.142  26.993  32.374  1.00  0.00     0.049 A 
ATOM     96  C   UNL A   1      44.078  24.409  28.181  1.00  0.00     0.074 A 
ATOM     97  C   UNL A   1      48.144  27.808  31.877  1.00  0.00    -0.036 A 
ATOM     98  N   UNL A   1      47.180  25.861  31.593  1.00  0.00    -0.354 N 
ATOM     99  N   UNL A   1      45.340  24.531  27.882  1.00  0.00    -0.248 NA
ATOM    100  C   UNL A   1      43.773  24.157  29.581  1.00  0.00    -0.034 C 
ATOM    101  C   UNL A   1      48.346  27.368  30.534  1.00  0.00    -0.036 A 
ATOM    102  H   UNL A   1      48.638  28.568  32.371  1.00  0.00     0.065 H 
ATOM    103  C   UNL A   1      47.543  26.249  30.328  1.00  0.00     0.049 A 
ATOM    104  H   UNL A   1      46.984  24.942  31.887  1.00  0.00     0.167 HD
ATOM    105  C   UNL A   1      45.950  24.819  29.091  1.00  0.00     0.074 A 
ATOM    106  C   UNL A   1      44.943  24.523  30.113  1.00  0.00    -0.034 C 
ATOM    107  H   UNL A   1      42.912  23.804  30.029  1.00  0.00     0.065 H 
ATOM    108  H   UNL A   1      48.975  27.802  29.840  1.00  0.00     0.065 H 
ATOM    109  C   UNL A   1      47.086  25.573  29.141  1.00  0.00     0.037 A 
ATOM    110  H   UNL A   1      45.117  24.590  31.127  1.00  0.00     0.065 H 
BRANCH  91 111
ATOM    111  C   UNL A   1      45.499  26.205  34.220  1.00  0.00     0.064 A 
ATOM    112  C   UNL A   1      46.309  25.967  35.351  1.00  0.00     0.173 A 
ATOM    113  C   UNL A   1      44.467  25.262  34.014  1.00  0.00     0.173 A 
ATOM    114  F   UNL A   1      47.323  26.791  35.650  1.00  0.00    -0.203 F 
ATOM    115  C   UNL A   1      46.161  24.825  36.142  1.00  0.00     0.198 A 
ATOM    116  C   UNL A   1      44.288  24.153  34.839  1.00  0.00     0.198 A 
ATOM    117  F   UNL A   1      43.651  25.298  32.958  1.00  0.00    -0.203 F 
ATOM    118  F   UNL A   1      47.045  24.576  37.117  1.00  0.00    -0.200 F 
ATOM    119  C   UNL A   1      45.157  23.914  35.881  1.00  0.00     0.200 A 
ATOM    120  F   UNL A   1      43.312  23.278  34.560  1.00  0.00    -0.200 F 
ATOM    121  F   UNL A   1      45.053  22.788  36.597  1.00  0.00    -0.200 F 
ENDBRANCH  91 111
BRANCH  94 122
ATOM    122  C   UNL A   1      41.939  24.115  26.780  1.00  0.00     0.064 A 
ATOM    123  C   UNL A   1      42.236  22.819  26.319  1.00  0.00     0.173 A 
ATOM    124  C   UNL A   1      40.580  24.400  26.985  1.00  0.00     0.173 A 
ATOM    125  F   UNL A   1      43.509  22.455  26.113  1.00  0.00    -0.203 F 
ATOM    126  C   UNL A   1      41.241  21.852  26.129  1.00  0.00     0.198 A 
ATOM    127  C   UNL A   1      39.589  23.430  26.791  1.00  0.00     0.198 A 
ATOM    128  F   UNL A   1      40.219  25.600  27.456  1.00  0.00    -0.203 F 
ATOM    129  F   UNL A   1      41.573  20.610  25.751  1.00  0.00    -0.200 F 
ATOM    130  C   UNL A   1      39.920  22.152  26.386  1.00  0.00     0.200 A 
ATOM    131  F   UNL A   1      38.303  23.698  27.036  1.00  0.00    -0.200 F 
ATOM    132  F   UNL A   1      38.967  21.215  26.272  1.00  0.00    -0.200 F 
ENDBRANCH  94 122
BRANCH 109 133
ATOM    133  C   UNL A   1      47.793  25.889  27.852  1.00  0.00     0.064 A 
ATOM    134  C   UNL A   1      47.386  26.877  26.935  1.00  0.00     0.173 A 
ATOM    135  C   UNL A   1      49.014  25.253  27.605  1.00  0.00     0.173 A 
ATOM    136  F   UNL A   1      46.283  27.607  27.148  1.00  0.00    -0.203 F 
ATOM    137  C   UNL A   1      48.147  27.174  25.804  1.00  0.00     0.198 A 
ATOM    138  C   UNL A   1      49.791  25.577  26.496  1.00  0.00     0.198 A 
ATOM    139  F   UNL A   1      49.481  24.339  28.471  1.00  0.00    -0.203 F 
ATOM    140  F   UNL A   1      47.732  28.112  24.939  1.00  0.00    -0.200 F 
ATOM    141  C   UNL A   1      49.352  26.527  25.590  1.00  0.00     0.200 A 
ATOM    142  F   UNL A   1      50.980  24.983  26.324  1.00  0.00    -0.200 F 
ATOM    143  F   UNL A   1      50.105  26.838  24.525  1.00  0.00    -0.200 F 
ENDBRANCH 109 133
ENDBRANCH  74  77
ENDBRANCH  64  67
ENDBRANCH  60  63
ENDBRANCH  57  60
ENDBRANCH  54  57
ENDBRANCH  51  54
ENDBRANCH   1  51
TORSDOF 19
ENDMDL
MODEL 10
REMARK VINA RESULT:     -11.4      1.066      2.262
REMARK SMILES CS(=O)(=O)c1ccc(-n2nc(C(F)(F)F)cc2-c2ccc(CC(=O)NCCCCCCNC(=O)c3ccc(-c4c5nc(c(-c6c(F)c(F)c(F)c(F)c6F)c6ccc([nH]6)c(-c6c(F)c(F)c(F)c(F)c6F)c6nc(c(-c7c(F)c(F)c(F)c(F)c7F)c7ccc4[nH]7)C=C6)C=C5)cc3)cc2)cc1
REMARK SMILES IDX 27 1 26 4 25 7 23 8 24 9 22 11 21 14 18 15 19 16 99 17 20 18
REMARK SMILES IDX 98 20 17 24 9 25 10 26 11 27 16 28 8 30 5 31 6 32 101 33
REMARK SMILES IDX 7 34 100 36 2 40 3 41 4 42 1 43 12 47 13 48 14 49 15 50
REMARK SMILES IDX 28 51 29 54 30 57 31 60 32 63 33 64 34 66 35 67 36 68 97 69
REMARK SMILES IDX 37 70 96 72 38 74 39 77 40 78 90 79 41 80 95 81 89 82 91 83
REMARK SMILES IDX 42 84 94 85 88 87 87 89 43 91 75 94 55 95 74 96 56 97 59 98
REMARK SMILES IDX 73 99 92 100 57 101 58 103 72 105 93 106 60 109 44 111
REMARK SMILES IDX 45 112 53 113 46 114 47 115 51 116 54 117 48 118 49 119
REMARK SMILES IDX 52 120 50 121 76 122 77 123 85 124 78 125 79 126 83 127
REMARK SMILES IDX 86 128 80 129 81 130 84 131 82 132 61 133 62 134 70 135
REMARK SMILES IDX 63 136 64 137 68 138 71 139 65 140 66 141 69 142 67 143
REMARK H PARENT 27 2 27 3 26 5 26 6 25 10 22 12 22 13 19 19 99 21 20 22 98 23
REMARK H PARENT 16 29 6 35 101 37 7 38 100 39 1 44 1 45 1 46 28 52 28 53 29 55
REMARK H PARENT 29 56 30 58 30 59 31 61 31 62 32 65 36 71 97 73 37 75 96 76
REMARK H PARENT 95 86 89 88 91 90 94 92 88 93 56 102 59 104 92 107 57 108
REMARK H PARENT 93 110
REMARK Flexibility Score: inf
ROOT
ATOM      1  C   UNL A   1      35.477  22.576  23.566  1.00  0.00    -0.036 C 
ATOM      2  H   UNL A   1      35.924  23.386  23.028  1.00  0.00     0.028 H 
ATOM      3  H   UNL A   1      35.930  21.633  23.338  1.00  0.00     0.028 H 
ENDROOT
BRANCH   1   4
ATOM      4  C   UNL A   1      34.008  22.475  23.152  1.00  0.00     0.017 C 
ATOM      5  H   UNL A   1      33.617  23.462  23.012  1.00  0.00     0.049 H 
ATOM      6  H   UNL A   1      33.953  21.912  22.244  1.00  0.00     0.049 H 
BRANCH   4   7
ATOM      7  N   UNL A   1      33.220  21.793  24.158  1.00  0.00    -0.356 N 
ATOM      8  C   UNL A   1      32.063  22.191  24.765  1.00  0.00     0.224 C 
ATOM      9  O   UNL A   1      31.600  21.490  25.666  1.00  0.00    -0.275 OA
ATOM     10  H   UNL A   1      33.567  20.918  24.445  1.00  0.00     0.163 HD
BRANCH   8  11
ATOM     11  C   UNL A   1      31.348  23.446  24.295  1.00  0.00     0.052 C 
ATOM     12  H   UNL A   1      31.426  23.499  23.228  1.00  0.00     0.042 H 
ATOM     13  H   UNL A   1      30.335  23.369  24.630  1.00  0.00     0.042 H 
BRANCH  11  14
ATOM     14  C   UNL A   1      31.905  24.722  24.875  1.00  0.00    -0.039 A 
ATOM     15  C   UNL A   1      32.838  27.172  25.869  1.00  0.00     0.000 A 
ATOM     16  C   UNL A   1      33.476  26.557  24.784  1.00  0.00    -0.053 A 
ATOM     17  C   UNL A   1      31.768  26.529  26.492  1.00  0.00    -0.053 A 
ATOM     18  C   UNL A   1      33.007  25.345  24.283  1.00  0.00    -0.058 A 
ATOM     19  H   UNL A   1      34.299  27.005  24.353  1.00  0.00     0.063 H 
ATOM     20  C   UNL A   1      31.316  25.303  26.008  1.00  0.00    -0.058 A 
ATOM     21  H   UNL A   1      31.312  26.961  27.310  1.00  0.00     0.063 H 
ATOM     22  H   UNL A   1      33.475  24.906  23.474  1.00  0.00     0.063 H 
ATOM     23  H   UNL A   1      30.540  24.819  26.486  1.00  0.00     0.063 H 
BRANCH  15  24
ATOM     24  C   UNL A   1      33.302  28.457  26.368  1.00  0.00     0.075 A 
ATOM     25  N   UNL A   1      32.780  29.687  26.009  1.00  0.00    -0.233 N 
ATOM     26  N   UNL A   1      33.485  30.722  26.534  1.00  0.00    -0.163 NA
ATOM     27  C   UNL A   1      34.461  30.143  27.263  1.00  0.00     0.167 A 
ATOM     28  C   UNL A   1      34.366  28.731  27.201  1.00  0.00    -0.003 A 
ATOM     29  H   UNL A   1      34.971  28.047  27.681  1.00  0.00     0.067 H 
BRANCH  25  30
ATOM     30  C   UNL A   1      31.660  29.925  25.180  1.00  0.00     0.065 A 
ATOM     31  C   UNL A   1      29.457  30.453  23.566  1.00  0.00     0.067 A 
ATOM     32  C   UNL A   1      30.245  29.320  23.322  1.00  0.00    -0.041 A 
ATOM     33  C   UNL A   1      29.785  31.338  24.594  1.00  0.00    -0.041 A 
ATOM     34  C   UNL A   1      31.354  29.049  24.133  1.00  0.00    -0.035 A 
ATOM     35  H   UNL A   1      30.007  28.684  22.544  1.00  0.00     0.064 H 
ATOM     36  C   UNL A   1      30.901  31.080  25.392  1.00  0.00    -0.035 A 
ATOM     37  H   UNL A   1      29.208  32.177  24.765  1.00  0.00     0.064 H 
ATOM     38  H   UNL A   1      31.937  28.217  23.961  1.00  0.00     0.065 H 
ATOM     39  H   UNL A   1      31.166  31.741  26.138  1.00  0.00     0.065 H 
BRANCH  31  40
ATOM     40  S   UNL A   1      28.100  30.852  22.483  1.00  0.00     0.175 S 
ATOM     41  O   UNL A   1      26.914  30.922  23.329  1.00  0.00    -0.224 OA
ATOM     42  O   UNL A   1      28.162  29.968  21.346  1.00  0.00    -0.224 OA
BRANCH  40  43
ATOM     43  C   UNL A   1      28.427  32.481  21.894  1.00  0.00     0.043 C 
ATOM     44  H   UNL A   1      28.996  32.426  20.990  1.00  0.00     0.040 H 
ATOM     45  H   UNL A   1      28.981  33.023  22.632  1.00  0.00     0.040 H 
ATOM     46  H   UNL A   1      27.502  32.984  21.703  1.00  0.00     0.040 H 
ENDBRANCH  40  43
ENDBRANCH  31  40
ENDBRANCH  25  30
BRANCH  27  47
ATOM     47  C   UNL A   1      35.509  30.919  28.017  1.00  0.00     0.435 C 
ATOM     48  F   UNL A   1      35.507  32.242  27.703  1.00  0.00    -0.164 F 
ATOM     49  F   UNL A   1      35.346  30.830  29.364  1.00  0.00    -0.164 F 
ATOM     50  F   UNL A   1      36.764  30.461  27.752  1.00  0.00    -0.164 F 
ENDBRANCH  27  47
ENDBRANCH  15  24
ENDBRANCH  11  14
ENDBRANCH   8  11
ENDBRANCH   4   7
ENDBRANCH   1   4
BRANCH   1  51
ATOM     51  C   UNL A   1      35.686  22.819  25.067  1.00  0.00    -0.052 C 
ATOM     52  H   UNL A   1      35.425  21.920  25.584  1.00  0.00     0.027 H 
ATOM     53  H   UNL A   1      35.069  23.657  25.315  1.00  0.00     0.027 H 
BRANCH  51  54
ATOM     54  C   UNL A   1      37.113  23.208  25.485  1.00  0.00    -0.052 C 
ATOM     55  H   UNL A   1      37.065  23.609  26.475  1.00  0.00     0.027 H 
ATOM     56  H   UNL A   1      37.449  23.901  24.742  1.00  0.00     0.027 H 
BRANCH  54  57
ATOM     57  C   UNL A   1      38.152  22.076  25.489  1.00  0.00    -0.036 C 
ATOM     58  H   UNL A   1      38.592  22.018  24.515  1.00  0.00     0.028 H 
ATOM     59  H   UNL A   1      37.634  21.178  25.757  1.00  0.00     0.028 H 
BRANCH  57  60
ATOM     60  C   UNL A   1      39.263  22.267  26.508  1.00  0.00     0.018 C 
ATOM     61  H   UNL A   1      39.098  21.596  27.325  1.00  0.00     0.049 H 
ATOM     62  H   UNL A   1      39.239  23.288  26.827  1.00  0.00     0.049 H 
BRANCH  60  63
ATOM     63  N   UNL A   1      40.590  22.006  25.947  1.00  0.00    -0.352 N 
ATOM     64  C   UNL A   1      41.670  22.863  25.839  1.00  0.00     0.251 C 
ATOM     65  H   UNL A   1      40.733  21.096  25.599  1.00  0.00     0.163 HD
ATOM     66  O   UNL A   1      42.560  22.660  25.023  1.00  0.00    -0.269 OA
BRANCH  64  67
ATOM     67  C   UNL A   1      41.749  24.019  26.749  1.00  0.00     0.039 A 
ATOM     68  C   UNL A   1      42.429  23.967  27.972  1.00  0.00    -0.049 A 
ATOM     69  C   UNL A   1      41.113  25.187  26.343  1.00  0.00    -0.049 A 
ATOM     70  C   UNL A   1      42.502  25.124  28.749  1.00  0.00    -0.053 A 
ATOM     71  H   UNL A   1      42.868  23.090  28.291  1.00  0.00     0.063 H 
ATOM     72  C   UNL A   1      41.367  26.359  26.994  1.00  0.00    -0.053 A 
ATOM     73  H   UNL A   1      40.452  25.167  25.551  1.00  0.00     0.063 H 
ATOM     74  C   UNL A   1      41.967  26.317  28.244  1.00  0.00    -0.014 A 
ATOM     75  H   UNL A   1      42.943  25.101  29.681  1.00  0.00     0.063 H 
ATOM     76  H   UNL A   1      41.118  27.263  26.563  1.00  0.00     0.063 H 
BRANCH  74  77
ATOM     77  C   UNL A   1      42.117  27.604  28.910  1.00  0.00     0.031 A 
ATOM     78  C   UNL A   1      43.238  28.416  28.383  1.00  0.00     0.074 A 
ATOM     79  C   UNL A   1      41.143  28.122  29.693  1.00  0.00     0.049 A 
ATOM     80  N   UNL A   1      44.310  28.759  29.013  1.00  0.00    -0.248 NA
ATOM     81  C   UNL A   1      43.254  28.752  26.949  1.00  0.00    -0.034 C 
ATOM     82  C   UNL A   1      39.857  27.528  30.053  1.00  0.00    -0.036 A 
ATOM     83  N   UNL A   1      41.052  29.358  30.255  1.00  0.00    -0.354 N 
ATOM     84  C   UNL A   1      45.024  29.557  28.126  1.00  0.00     0.074 A 
ATOM     85  C   UNL A   1      44.460  29.313  26.828  1.00  0.00    -0.034 C 
ATOM     86  H   UNL A   1      42.530  28.596  26.231  1.00  0.00     0.065 H 
ATOM     87  C   UNL A   1      39.027  28.479  30.547  1.00  0.00    -0.036 A 
ATOM     88  H   UNL A   1      39.615  26.531  29.946  1.00  0.00     0.065 H 
ATOM     89  C   UNL A   1      39.773  29.710  30.701  1.00  0.00     0.049 A 
ATOM     90  H   UNL A   1      41.826  29.960  30.342  1.00  0.00     0.167 HD
ATOM     91  C   UNL A   1      45.802  30.574  28.594  1.00  0.00     0.037 A 
ATOM     92  H   UNL A   1      44.919  29.538  25.931  1.00  0.00     0.065 H 
ATOM     93  H   UNL A   1      38.030  28.347  30.776  1.00  0.00     0.065 H 
ATOM     94  C   UNL A   1      39.380  30.928  31.163  1.00  0.00     0.037 A 
ATOM     95  C   UNL A   1      46.074  30.397  30.004  1.00  0.00     0.049 A 
ATOM     96  C   UNL A   1      40.620  31.656  31.524  1.00  0.00     0.074 A 
ATOM     97  C   UNL A   1      46.617  29.375  30.763  1.00  0.00    -0.036 A 
ATOM     98  N   UNL A   1      45.391  31.186  30.900  1.00  0.00    -0.354 N 
ATOM     99  N   UNL A   1      41.364  31.326  32.541  1.00  0.00    -0.248 NA
ATOM    100  C   UNL A   1      41.280  32.398  30.460  1.00  0.00    -0.034 C 
ATOM    101  C   UNL A   1      45.800  29.309  31.931  1.00  0.00    -0.036 A 
ATOM    102  H   UNL A   1      47.434  28.788  30.533  1.00  0.00     0.065 H 
ATOM    103  C   UNL A   1      44.885  30.357  31.870  1.00  0.00     0.049 A 
ATOM    104  H   UNL A   1      45.284  32.163  30.855  1.00  0.00     0.167 HD
ATOM    105  C   UNL A   1      42.658  31.415  32.058  1.00  0.00     0.074 A 
ATOM    106  C   UNL A   1      42.548  32.132  30.785  1.00  0.00    -0.034 C 
ATOM    107  H   UNL A   1      40.887  32.959  29.688  1.00  0.00     0.065 H 
ATOM    108  H   UNL A   1      45.874  28.609  32.687  1.00  0.00     0.065 H 
ATOM    109  C   UNL A   1      43.650  30.625  32.562  1.00  0.00     0.037 A 
ATOM    110  H   UNL A   1      43.358  32.401  30.206  1.00  0.00     0.065 H 
BRANCH  91 111
ATOM    111  C   UNL A   1      45.961  31.913  27.902  1.00  0.00     0.064 A 
ATOM    112  C   UNL A   1      44.797  32.620  27.532  1.00  0.00     0.173 A 
ATOM    113  C   UNL A   1      47.160  32.395  27.331  1.00  0.00     0.173 A 
ATOM    114  F   UNL A   1      43.597  32.256  28.007  1.00  0.00    -0.203 F 
ATOM    115  C   UNL A   1      44.823  33.649  26.587  1.00  0.00     0.198 A 
ATOM    116  C   UNL A   1      47.189  33.459  26.431  1.00  0.00     0.198 A 
ATOM    117  F   UNL A   1      48.344  31.805  27.521  1.00  0.00    -0.203 F 
ATOM    118  F   UNL A   1      43.672  34.191  26.166  1.00  0.00    -0.200 F 
ATOM    119  C   UNL A   1      46.017  34.062  26.031  1.00  0.00     0.200 A 
ATOM    120  F   UNL A   1      48.359  33.836  25.897  1.00  0.00    -0.200 F 
ATOM    121  F   UNL A   1      46.039  35.004  25.080  1.00  0.00    -0.200 F 
ENDBRANCH  91 111
BRANCH  94 122
ATOM    122  C   UNL A   1      38.081  31.645  31.099  1.00  0.00     0.064 A 
ATOM    123  C   UNL A   1      37.181  31.620  32.181  1.00  0.00     0.173 A 
ATOM    124  C   UNL A   1      37.850  32.630  30.127  1.00  0.00     0.173 A 
ATOM    125  F   UNL A   1      37.337  30.723  33.164  1.00  0.00    -0.203 F 
ATOM    126  C   UNL A   1      36.150  32.559  32.310  1.00  0.00     0.198 A 
ATOM    127  C   UNL A   1      36.816  33.565  30.260  1.00  0.00     0.198 A 
ATOM    128  F   UNL A   1      38.684  32.739  29.085  1.00  0.00    -0.203 F 
ATOM    129  F   UNL A   1      35.354  32.541  33.388  1.00  0.00    -0.200 F 
ATOM    130  C   UNL A   1      35.982  33.545  31.359  1.00  0.00     0.200 A 
ATOM    131  F   UNL A   1      36.637  34.530  29.352  1.00  0.00    -0.200 F 
ATOM    132  F   UNL A   1      35.041  34.488  31.507  1.00  0.00    -0.200 F 
ENDBRANCH  94 122
BRANCH 109 133
ATOM    133  C   UNL A   1      43.367  29.825  33.803  1.00  0.00     0.064 A 
ATOM    134  C   UNL A   1      43.450  30.326  35.116  1.00  0.00     0.173 A 
ATOM    135  C   UNL A   1      42.855  28.533  33.643  1.00  0.00     0.173 A 
ATOM    136  F   UNL A   1      43.830  31.588  35.354  1.00  0.00    -0.203 F 
ATOM    137  C   UNL A   1      43.081  29.547  36.214  1.00  0.00     0.198 A 
ATOM    138  C   UNL A   1      42.453  27.770  34.737  1.00  0.00     0.198 A 
ATOM    139  F   UNL A   1      42.702  28.020  32.412  1.00  0.00    -0.203 F 
ATOM    140  F   UNL A   1      43.181  30.043  37.457  1.00  0.00    -0.200 F 
ATOM    141  C   UNL A   1      42.577  28.271  36.021  1.00  0.00     0.200 A 
ATOM    142  F   UNL A   1      41.918  26.558  34.538  1.00  0.00    -0.200 F 
ATOM    143  F   UNL A   1      42.186  27.535  37.070  1.00  0.00    -0.200 F 
ENDBRANCH 109 133
ENDBRANCH  74  77
ENDBRANCH  64  67
ENDBRANCH  60  63
ENDBRANCH  57  60
ENDBRANCH  54  57
ENDBRANCH  51  54
ENDBRANCH   1  51
TORSDOF 19
ENDMDL
