MODEL 1
REMARK VINA RESULT:     -13.7      0.000      0.000
REMARK SMILES O=C(NCCCCCCNC(=O)c1ccccc1Nc1cccc(S(F)(F)(F)(F)F)c1)c1ccc(-c2c3nc(c(-c4c(F)c(F)c(F)c(F)c4F)c4ccc([nH]4)c(-c4c(F)c(F)c(F)c(F)c4F)c4nc(c(-c5c(F)c(F)c(F)c(F)c5F)c5ccc2[nH]5)C=C4)C=C3)cc1
REMARK SMILES IDX 7 1 6 4 5 7 4 10 3 13 1 14 2 15 32 17 33 18 94 19 34 20
REMARK SMILES IDX 93 22 35 24 36 27 37 28 87 29 38 30 92 31 86 32 88 33 39 34
REMARK SMILES IDX 91 35 85 37 84 39 40 41 72 44 52 45 71 46 53 47 56 48 70 49
REMARK SMILES IDX 89 50 54 51 55 53 69 55 90 56 57 59 41 61 42 62 50 63 43 64
REMARK SMILES IDX 44 65 48 66 51 67 45 68 46 69 49 70 47 71 73 72 74 73 82 74
REMARK SMILES IDX 75 75 76 76 80 77 83 78 77 79 78 80 81 81 79 82 58 83 59 84
REMARK SMILES IDX 67 85 60 86 61 87 65 88 68 89 62 90 63 91 66 92 64 93 8 94
REMARK SMILES IDX 9 97 10 100 11 101 12 103 13 104 14 105 18 106 15 107 17 109
REMARK SMILES IDX 16 110 19 114 20 116 21 117 31 118 22 119 24 121 23 123
REMARK SMILES IDX 25 126 26 127 27 128 28 129 29 130 30 131
REMARK H PARENT 7 2 7 3 6 5 6 6 5 8 5 9 4 11 4 12 3 16 33 21 94 23 34 25 93 26
REMARK H PARENT 92 36 86 38 88 40 91 42 85 43 53 52 56 54 89 57 54 58 90 60
REMARK H PARENT 8 95 8 96 9 98 9 99 10 102 14 108 15 111 17 112 16 113 19 115
REMARK H PARENT 21 120 31 122 22 124 23 125
REMARK Flexibility Score: inf
ROOT
ATOM      1  C   UNL A   1      33.217  30.372  27.089  1.00  0.00    -0.052 C 
ATOM      2  H   UNL A   1      33.384  29.984  28.072  1.00  0.00     0.027 H 
ATOM      3  H   UNL A   1      33.731  31.304  26.982  1.00  0.00     0.027 H 
ENDROOT
BRANCH   1   4
ATOM      4  C   UNL A   1      31.726  30.588  26.878  1.00  0.00    -0.052 C 
ATOM      5  H   UNL A   1      31.432  30.154  25.946  1.00  0.00     0.027 H 
ATOM      6  H   UNL A   1      31.183  30.125  27.675  1.00  0.00     0.027 H 
BRANCH   4   7
ATOM      7  C   UNL A   1      31.428  32.078  26.860  1.00  0.00    -0.036 C 
ATOM      8  H   UNL A   1      30.952  32.336  25.937  1.00  0.00     0.028 H 
ATOM      9  H   UNL A   1      30.781  32.322  27.676  1.00  0.00     0.028 H 
BRANCH   7  10
ATOM     10  C   UNL A   1      32.727  32.856  26.993  1.00  0.00     0.018 C 
ATOM     11  H   UNL A   1      33.409  32.309  27.610  1.00  0.00     0.049 H 
ATOM     12  H   UNL A   1      33.159  32.998  26.024  1.00  0.00     0.049 H 
BRANCH  10  13
ATOM     13  N   UNL A   1      32.454  34.165  27.605  1.00  0.00    -0.352 N 
ATOM     14  O   UNL A   1      33.069  35.788  29.227  1.00  0.00    -0.269 OA
ATOM     15  C   UNL A   1      33.305  34.657  28.698  1.00  0.00     0.251 C 
ATOM     16  H   UNL A   1      31.702  34.712  27.282  1.00  0.00     0.163 HD
BRANCH  15  17
ATOM     17  C   UNL A   1      34.467  33.813  29.195  1.00  0.00     0.039 A 
ATOM     18  C   UNL A   1      35.724  34.312  28.896  1.00  0.00    -0.049 A 
ATOM     19  C   UNL A   1      34.317  32.724  29.942  1.00  0.00    -0.049 A 
ATOM     20  C   UNL A   1      36.781  33.419  29.195  1.00  0.00    -0.053 A 
ATOM     21  H   UNL A   1      35.877  35.249  28.492  1.00  0.00     0.063 H 
ATOM     22  C   UNL A   1      35.408  31.975  30.311  1.00  0.00    -0.053 A 
ATOM     23  H   UNL A   1      33.374  32.441  30.248  1.00  0.00     0.063 H 
ATOM     24  C   UNL A   1      36.677  32.377  29.999  1.00  0.00    -0.014 A 
ATOM     25  H   UNL A   1      37.698  33.595  28.753  1.00  0.00     0.063 H 
ATOM     26  H   UNL A   1      35.268  31.095  30.832  1.00  0.00     0.063 H 
BRANCH  24  27
ATOM     27  C   UNL A   1      37.902  31.663  30.547  1.00  0.00     0.031 A 
ATOM     28  C   UNL A   1      38.585  30.704  29.797  1.00  0.00     0.074 A 
ATOM     29  C   UNL A   1      38.202  31.976  31.861  1.00  0.00     0.049 A 
ATOM     30  N   UNL A   1      39.631  29.968  30.177  1.00  0.00    -0.248 NA
ATOM     31  C   UNL A   1      38.247  30.346  28.413  1.00  0.00    -0.034 C 
ATOM     32  C   UNL A   1      37.522  32.948  32.621  1.00  0.00    -0.036 A 
ATOM     33  N   UNL A   1      39.181  31.427  32.659  1.00  0.00    -0.354 N 
ATOM     34  C   UNL A   1      40.024  29.175  29.179  1.00  0.00     0.074 A 
ATOM     35  C   UNL A   1      39.136  29.402  28.031  1.00  0.00    -0.034 C 
ATOM     36  H   UNL A   1      37.480  30.737  27.843  1.00  0.00     0.065 H 
ATOM     37  C   UNL A   1      38.076  32.975  33.863  1.00  0.00    -0.036 A 
ATOM     38  H   UNL A   1      36.740  33.536  32.294  1.00  0.00     0.065 H 
ATOM     39  C   UNL A   1      39.111  32.022  33.899  1.00  0.00     0.049 A 
ATOM     40  H   UNL A   1      39.821  30.728  32.389  1.00  0.00     0.167 HD
ATOM     41  C   UNL A   1      41.089  28.273  29.179  1.00  0.00     0.037 A 
ATOM     42  H   UNL A   1      39.181  28.932  27.114  1.00  0.00     0.065 H 
ATOM     43  H   UNL A   1      37.787  33.588  34.642  1.00  0.00     0.065 H 
ATOM     44  C   UNL A   1      39.895  31.761  35.011  1.00  0.00     0.037 A 
ATOM     45  C   UNL A   1      41.901  28.044  30.279  1.00  0.00     0.049 A 
ATOM     46  C   UNL A   1      40.924  30.817  35.030  1.00  0.00     0.074 A 
ATOM     47  C   UNL A   1      42.983  27.143  30.294  1.00  0.00    -0.036 A 
ATOM     48  N   UNL A   1      41.815  28.622  31.526  1.00  0.00    -0.354 N 
ATOM     49  N   UNL A   1      41.342  30.053  34.020  1.00  0.00    -0.248 NA
ATOM     50  C   UNL A   1      41.740  30.509  36.212  1.00  0.00    -0.034 C 
ATOM     51  C   UNL A   1      43.538  27.171  31.536  1.00  0.00    -0.036 A 
ATOM     52  H   UNL A   1      43.301  26.564  29.501  1.00  0.00     0.065 H 
ATOM     53  C   UNL A   1      42.809  28.089  32.317  1.00  0.00     0.049 A 
ATOM     54  H   UNL A   1      41.157  29.299  31.805  1.00  0.00     0.167 HD
ATOM     55  C   UNL A   1      42.361  29.286  34.414  1.00  0.00     0.074 A 
ATOM     56  C   UNL A   1      42.627  29.564  35.831  1.00  0.00    -0.034 C 
ATOM     57  H   UNL A   1      41.653  30.933  37.150  1.00  0.00     0.065 H 
ATOM     58  H   UNL A   1      44.349  26.616  31.850  1.00  0.00     0.065 H 
ATOM     59  C   UNL A   1      43.082  28.370  33.646  1.00  0.00     0.037 A 
ATOM     60  H   UNL A   1      43.350  29.123  36.422  1.00  0.00     0.065 H 
BRANCH  41  61
ATOM     61  C   UNL A   1      41.374  27.499  27.902  1.00  0.00     0.064 A 
ATOM     62  C   UNL A   1      42.253  27.949  26.932  1.00  0.00     0.173 A 
ATOM     63  C   UNL A   1      40.840  26.284  27.840  1.00  0.00     0.173 A 
ATOM     64  F   UNL A   1      43.000  29.039  27.078  1.00  0.00    -0.203 F 
ATOM     65  C   UNL A   1      42.283  27.143  25.768  1.00  0.00     0.198 A 
ATOM     66  C   UNL A   1      41.023  25.497  26.729  1.00  0.00     0.198 A 
ATOM     67  F   UNL A   1      40.122  25.828  28.861  1.00  0.00    -0.203 F 
ATOM     68  F   UNL A   1      42.802  27.671  24.663  1.00  0.00    -0.200 F 
ATOM     69  C   UNL A   1      41.831  25.904  25.704  1.00  0.00     0.200 A 
ATOM     70  F   UNL A   1      40.405  24.322  26.650  1.00  0.00    -0.200 F 
ATOM     71  F   UNL A   1      42.145  25.096  24.696  1.00  0.00    -0.200 F 
ENDBRANCH  41  61
BRANCH  44  72
ATOM     72  C   UNL A   1      39.620  32.547  36.283  1.00  0.00     0.064 A 
ATOM     73  C   UNL A   1      38.570  32.202  37.117  1.00  0.00     0.173 A 
ATOM     74  C   UNL A   1      40.314  33.664  36.474  1.00  0.00     0.173 A 
ATOM     75  F   UNL A   1      38.018  30.992  37.124  1.00  0.00    -0.203 F 
ATOM     76  C   UNL A   1      38.139  33.252  37.962  1.00  0.00     0.198 A 
ATOM     77  C   UNL A   1      39.911  34.585  37.412  1.00  0.00     0.198 A 
ATOM     78  F   UNL A   1      41.406  33.893  35.752  1.00  0.00    -0.203 F 
ATOM     79  F   UNL A   1      36.938  33.141  38.522  1.00  0.00    -0.200 F 
ATOM     80  C   UNL A   1      38.845  34.335  38.231  1.00  0.00     0.200 A 
ATOM     81  F   UNL A   1      40.568  35.736  37.523  1.00  0.00    -0.200 F 
ATOM     82  F   UNL A   1      38.536  35.139  39.245  1.00  0.00    -0.200 F 
ENDBRANCH  44  72
BRANCH  59  83
ATOM     83  C   UNL A   1      44.237  27.637  34.309  1.00  0.00     0.064 A 
ATOM     84  C   UNL A   1      43.900  26.428  34.894  1.00  0.00     0.173 A 
ATOM     85  C   UNL A   1      45.495  28.060  34.277  1.00  0.00     0.173 A 
ATOM     86  F   UNL A   1      42.714  25.849  34.732  1.00  0.00    -0.203 F 
ATOM     87  C   UNL A   1      44.931  25.865  35.683  1.00  0.00     0.198 A 
ATOM     88  C   UNL A   1      46.478  27.384  34.959  1.00  0.00     0.198 A 
ATOM     89  F   UNL A   1      45.807  29.148  33.578  1.00  0.00    -0.203 F 
ATOM     90  F   UNL A   1      44.598  24.921  36.556  1.00  0.00    -0.200 F 
ATOM     91  C   UNL A   1      46.203  26.213  35.610  1.00  0.00     0.200 A 
ATOM     92  F   UNL A   1      47.714  27.876  34.987  1.00  0.00    -0.200 F 
ATOM     93  F   UNL A   1      47.166  25.465  36.141  1.00  0.00    -0.200 F 
ENDBRANCH  59  83
ENDBRANCH  24  27
ENDBRANCH  15  17
ENDBRANCH  10  13
ENDBRANCH   7  10
ENDBRANCH   4   7
ENDBRANCH   1   4
BRANCH   1  94
ATOM     94  C   UNL A   1      33.737  29.384  26.058  1.00  0.00    -0.036 C 
ATOM     95  H   UNL A   1      33.796  28.409  26.496  1.00  0.00     0.028 H 
ATOM     96  H   UNL A   1      34.710  29.688  25.731  1.00  0.00     0.028 H 
BRANCH  94  97
ATOM     97  C   UNL A   1      32.791  29.348  24.868  1.00  0.00     0.018 C 
ATOM     98  H   UNL A   1      32.122  30.181  24.918  1.00  0.00     0.049 H 
ATOM     99  H   UNL A   1      32.229  28.437  24.887  1.00  0.00     0.049 H 
BRANCH  97 100
ATOM    100  N   UNL A   1      33.569  29.418  23.622  1.00  0.00    -0.352 N 
ATOM    101  C   UNL A   1      33.735  28.218  22.791  1.00  0.00     0.253 C 
ATOM    102  H   UNL A   1      33.977  30.270  23.345  1.00  0.00     0.163 HD
ATOM    103  O   UNL A   1      34.407  28.279  21.714  1.00  0.00    -0.269 OA
BRANCH 101 104
ATOM    104  C   UNL A   1      33.104  26.903  23.219  1.00  0.00     0.063 A 
ATOM    105  C   UNL A   1      33.780  26.083  24.108  1.00  0.00    -0.047 A 
ATOM    106  C   UNL A   1      31.916  26.563  22.735  1.00  0.00     0.051 A 
ATOM    107  C   UNL A   1      33.243  24.777  24.204  1.00  0.00    -0.061 A 
ATOM    108  H   UNL A   1      34.599  26.396  24.651  1.00  0.00     0.063 H 
ATOM    109  C   UNL A   1      31.390  25.317  22.981  1.00  0.00    -0.038 A 
ATOM    110  C   UNL A   1      32.033  24.433  23.802  1.00  0.00    -0.060 A 
ATOM    111  H   UNL A   1      33.840  24.042  24.616  1.00  0.00     0.062 H 
ATOM    112  H   UNL A   1      30.499  25.044  22.539  1.00  0.00     0.064 H 
ATOM    113  H   UNL A   1      31.596  23.545  24.093  1.00  0.00     0.062 H 
BRANCH 106 114
ATOM    114  N   UNL A   1      31.155  27.527  21.928  1.00  0.00    -0.355 N 
ATOM    115  H   UNL A   1      31.429  27.720  21.003  1.00  0.00     0.167 HD
BRANCH 114 116
ATOM    116  C   UNL A   1      29.982  28.203  22.502  1.00  0.00     0.040 A 
ATOM    117  C   UNL A   1      28.986  27.439  23.086  1.00  0.00    -0.039 A 
ATOM    118  C   UNL A   1      29.914  29.529  22.488  1.00  0.00    -0.016 A 
ATOM    119  C   UNL A   1      27.804  28.161  23.378  1.00  0.00    -0.059 A 
ATOM    120  H   UNL A   1      29.095  26.433  23.290  1.00  0.00     0.064 H 
ATOM    121  C   UNL A   1      28.778  30.176  22.915  1.00  0.00     0.109 A 
ATOM    122  H   UNL A   1      30.719  30.080  22.153  1.00  0.00     0.066 H 
ATOM    123  C   UNL A   1      27.731  29.478  23.448  1.00  0.00    -0.039 A 
ATOM    124  H   UNL A   1      26.941  27.622  23.546  1.00  0.00     0.062 H 
ATOM    125  H   UNL A   1      26.925  29.954  23.884  1.00  0.00     0.064 H 
BRANCH 121 126
ATOM    126  S   UNL A   1      28.668  31.976  22.770  1.00  0.00     0.310 S 
ATOM    127  F   UNL A   1      27.268  32.024  23.513  1.00  0.00    -0.094 F 
ATOM    128  F   UNL A   1      27.870  31.817  21.421  1.00  0.00    -0.094 F 
ATOM    129  F   UNL A   1      28.595  33.526  22.663  1.00  0.00    -0.094 F 
ATOM    130  F   UNL A   1      29.344  32.115  24.191  1.00  0.00    -0.094 F 
ATOM    131  F   UNL A   1      28.651  30.406  22.948  1.00  0.00    -0.094 F 
ENDBRANCH 121 126
ENDBRANCH 114 116
ENDBRANCH 106 114
ENDBRANCH 101 104
ENDBRANCH  97 100
ENDBRANCH  94  97
ENDBRANCH   1  94
TORSDOF 16
ENDMDL
MODEL 2
REMARK VINA RESULT:     -13.4      1.143      2.326
REMARK SMILES O=C(NCCCCCCNC(=O)c1ccccc1Nc1cccc(S(F)(F)(F)(F)F)c1)c1ccc(-c2c3nc(c(-c4c(F)c(F)c(F)c(F)c4F)c4ccc([nH]4)c(-c4c(F)c(F)c(F)c(F)c4F)c4nc(c(-c5c(F)c(F)c(F)c(F)c5F)c5ccc2[nH]5)C=C4)C=C3)cc1
REMARK SMILES IDX 7 1 6 4 5 7 4 10 3 13 1 14 2 15 32 17 33 18 94 19 34 20
REMARK SMILES IDX 93 22 35 24 36 27 37 28 87 29 38 30 92 31 86 32 88 33 39 34
REMARK SMILES IDX 91 35 85 37 84 39 40 41 72 44 52 45 71 46 53 47 56 48 70 49
REMARK SMILES IDX 89 50 54 51 55 53 69 55 90 56 57 59 41 61 42 62 50 63 43 64
REMARK SMILES IDX 44 65 48 66 51 67 45 68 46 69 49 70 47 71 73 72 74 73 82 74
REMARK SMILES IDX 75 75 76 76 80 77 83 78 77 79 78 80 81 81 79 82 58 83 59 84
REMARK SMILES IDX 67 85 60 86 61 87 65 88 68 89 62 90 63 91 66 92 64 93 8 94
REMARK SMILES IDX 9 97 10 100 11 101 12 103 13 104 14 105 18 106 15 107 17 109
REMARK SMILES IDX 16 110 19 114 20 116 21 117 31 118 22 119 24 121 23 123
REMARK SMILES IDX 25 126 26 127 27 128 28 129 29 130 30 131
REMARK H PARENT 7 2 7 3 6 5 6 6 5 8 5 9 4 11 4 12 3 16 33 21 94 23 34 25 93 26
REMARK H PARENT 92 36 86 38 88 40 91 42 85 43 53 52 56 54 89 57 54 58 90 60
REMARK H PARENT 8 95 8 96 9 98 9 99 10 102 14 108 15 111 17 112 16 113 19 115
REMARK H PARENT 21 120 31 122 22 124 23 125
REMARK Flexibility Score: inf
ROOT
ATOM      1  C   UNL A   1      33.255  30.405  27.149  1.00  0.00    -0.052 C 
ATOM      2  H   UNL A   1      33.376  30.006  28.135  1.00  0.00     0.027 H 
ATOM      3  H   UNL A   1      33.755  31.348  27.082  1.00  0.00     0.027 H 
ENDROOT
BRANCH   1   4
ATOM      4  C   UNL A   1      31.774  30.595  26.859  1.00  0.00    -0.052 C 
ATOM      5  H   UNL A   1      31.525  30.106  25.941  1.00  0.00     0.027 H 
ATOM      6  H   UNL A   1      31.197  30.173  27.656  1.00  0.00     0.027 H 
BRANCH   4   7
ATOM      7  C   UNL A   1      31.467  32.079  26.743  1.00  0.00    -0.036 C 
ATOM      8  H   UNL A   1      31.292  32.327  25.717  1.00  0.00     0.028 H 
ATOM      9  H   UNL A   1      30.596  32.309  27.320  1.00  0.00     0.028 H 
BRANCH   7  10
ATOM     10  C   UNL A   1      32.647  32.882  27.264  1.00  0.00     0.018 C 
ATOM     11  H   UNL A   1      33.051  32.402  28.131  1.00  0.00     0.049 H 
ATOM     12  H   UNL A   1      33.401  32.942  26.507  1.00  0.00     0.049 H 
BRANCH  10  13
ATOM     13  N   UNL A   1      32.200  34.237  27.618  1.00  0.00    -0.352 N 
ATOM     14  O   UNL A   1      32.585  36.209  28.886  1.00  0.00    -0.269 OA
ATOM     15  C   UNL A   1      32.971  35.038  28.580  1.00  0.00     0.251 C 
ATOM     16  H   UNL A   1      31.383  34.608  27.211  1.00  0.00     0.163 HD
BRANCH  15  17
ATOM     17  C   UNL A   1      34.232  34.466  29.206  1.00  0.00     0.039 A 
ATOM     18  C   UNL A   1      34.030  33.738  30.368  1.00  0.00    -0.049 A 
ATOM     19  C   UNL A   1      35.436  34.562  28.654  1.00  0.00    -0.049 A 
ATOM     20  C   UNL A   1      35.226  33.382  31.036  1.00  0.00    -0.053 A 
ATOM     21  H   UNL A   1      33.094  33.478  30.714  1.00  0.00     0.063 H 
ATOM     22  C   UNL A   1      36.544  34.071  29.302  1.00  0.00    -0.053 A 
ATOM     23  H   UNL A   1      35.540  35.009  27.730  1.00  0.00     0.063 H 
ATOM     24  C   UNL A   1      36.425  33.392  30.483  1.00  0.00    -0.014 A 
ATOM     25  H   UNL A   1      35.156  33.094  32.025  1.00  0.00     0.063 H 
ATOM     26  H   UNL A   1      37.479  34.216  28.891  1.00  0.00     0.063 H 
BRANCH  24  27
ATOM     27  C   UNL A   1      37.609  32.688  31.124  1.00  0.00     0.031 A 
ATOM     28  C   UNL A   1      38.184  31.553  30.550  1.00  0.00     0.074 A 
ATOM     29  C   UNL A   1      37.984  33.209  32.351  1.00  0.00     0.049 A 
ATOM     30  N   UNL A   1      39.181  30.812  31.035  1.00  0.00    -0.248 NA
ATOM     31  C   UNL A   1      37.764  30.978  29.264  1.00  0.00    -0.034 C 
ATOM     32  C   UNL A   1      37.415  34.358  32.933  1.00  0.00    -0.036 A 
ATOM     33  N   UNL A   1      38.947  32.732  33.213  1.00  0.00    -0.354 N 
ATOM     34  C   UNL A   1      39.470  29.818  30.192  1.00  0.00     0.074 A 
ATOM     35  C   UNL A   1      38.558  29.907  29.044  1.00  0.00    -0.034 C 
ATOM     36  H   UNL A   1      37.010  31.323  28.650  1.00  0.00     0.065 H 
ATOM     37  C   UNL A   1      38.017  34.564  34.135  1.00  0.00    -0.036 A 
ATOM     38  H   UNL A   1      36.671  34.942  32.521  1.00  0.00     0.065 H 
ATOM     39  C   UNL A   1      38.974  33.548  34.322  1.00  0.00     0.049 A 
ATOM     40  H   UNL A   1      39.517  31.944  33.063  1.00  0.00     0.167 HD
ATOM     41  C   UNL A   1      40.458  28.843  30.335  1.00  0.00     0.037 A 
ATOM     42  H   UNL A   1      38.529  29.275  28.229  1.00  0.00     0.065 H 
ATOM     43  H   UNL A   1      37.809  35.332  34.793  1.00  0.00     0.065 H 
ATOM     44  C   UNL A   1      39.777  33.429  35.445  1.00  0.00     0.037 A 
ATOM     45  C   UNL A   1      41.291  28.750  31.439  1.00  0.00     0.049 A 
ATOM     46  C   UNL A   1      40.727  32.418  35.615  1.00  0.00     0.074 A 
ATOM     47  C   UNL A   1      42.297  27.778  31.595  1.00  0.00    -0.036 A 
ATOM     48  N   UNL A   1      41.301  29.551  32.559  1.00  0.00    -0.354 N 
ATOM     49  N   UNL A   1      41.042  31.450  34.754  1.00  0.00    -0.248 NA
ATOM     50  C   UNL A   1      41.561  32.263  36.814  1.00  0.00    -0.034 C 
ATOM     51  C   UNL A   1      42.900  27.984  32.796  1.00  0.00    -0.036 A 
ATOM     52  H   UNL A   1      42.537  27.038  30.916  1.00  0.00     0.065 H 
ATOM     53  C   UNL A   1      42.279  29.088  33.411  1.00  0.00     0.049 A 
ATOM     54  H   UNL A   1      40.711  30.322  32.722  1.00  0.00     0.167 HD
ATOM     55  C   UNL A   1      42.011  30.683  35.259  1.00  0.00     0.074 A 
ATOM     56  C   UNL A   1      42.353  31.192  36.594  1.00  0.00    -0.034 C 
ATOM     57  H   UNL A   1      41.544  32.857  37.658  1.00  0.00     0.065 H 
ATOM     58  H   UNL A   1      43.677  27.428  33.190  1.00  0.00     0.065 H 
ATOM     59  C   UNL A   1      42.625  29.583  34.658  1.00  0.00     0.037 A 
ATOM     60  H   UNL A   1      43.061  30.806  37.239  1.00  0.00     0.065 H 
BRANCH  41  61
ATOM     61  C   UNL A   1      40.630  27.827  29.218  1.00  0.00     0.064 A 
ATOM     62  C   UNL A   1      39.862  26.679  29.121  1.00  0.00     0.173 A 
ATOM     63  C   UNL A   1      41.465  28.182  28.247  1.00  0.00     0.173 A 
ATOM     64  F   UNL A   1      38.842  26.418  29.933  1.00  0.00    -0.203 F 
ATOM     65  C   UNL A   1      40.262  25.808  28.080  1.00  0.00     0.198 A 
ATOM     66  C   UNL A   1      41.706  27.338  27.189  1.00  0.00     0.198 A 
ATOM     67  F   UNL A   1      42.074  29.362  28.301  1.00  0.00    -0.203 F 
ATOM     68  F   UNL A   1      39.839  24.548  28.131  1.00  0.00    -0.200 F 
ATOM     69  C   UNL A   1      41.027  26.159  27.062  1.00  0.00     0.200 A 
ATOM     70  F   UNL A   1      42.614  27.674  26.277  1.00  0.00    -0.200 F 
ATOM     71  F   UNL A   1      41.129  25.405  25.971  1.00  0.00    -0.200 F 
ENDBRANCH  41  61
BRANCH  44  72
ATOM     72  C   UNL A   1      39.616  34.455  36.555  1.00  0.00     0.064 A 
ATOM     73  C   UNL A   1      40.360  35.624  36.553  1.00  0.00     0.173 A 
ATOM     74  C   UNL A   1      38.867  34.117  37.598  1.00  0.00     0.173 A 
ATOM     75  F   UNL A   1      40.915  36.127  35.455  1.00  0.00    -0.203 F 
ATOM     76  C   UNL A   1      40.474  36.232  37.825  1.00  0.00     0.198 A 
ATOM     77  C   UNL A   1      38.929  34.838  38.767  1.00  0.00     0.198 A 
ATOM     78  F   UNL A   1      38.051  33.071  37.512  1.00  0.00    -0.203 F 
ATOM     79  F   UNL A   1      41.441  37.130  37.997  1.00  0.00    -0.200 F 
ATOM     80  C   UNL A   1      39.690  35.970  38.855  1.00  0.00     0.200 A 
ATOM     81  F   UNL A   1      38.238  34.428  39.827  1.00  0.00    -0.200 F 
ATOM     82  F   UNL A   1      39.642  36.766  39.919  1.00  0.00    -0.200 F 
ENDBRANCH  44  72
BRANCH  59  83
ATOM     83  C   UNL A   1      43.743  28.888  35.418  1.00  0.00     0.064 A 
ATOM     84  C   UNL A   1      45.015  29.366  35.147  1.00  0.00     0.173 A 
ATOM     85  C   UNL A   1      43.541  27.947  36.332  1.00  0.00     0.173 A 
ATOM     86  F   UNL A   1      45.241  30.466  34.436  1.00  0.00    -0.203 F 
ATOM     87  C   UNL A   1      46.053  28.576  35.696  1.00  0.00     0.198 A 
ATOM     88  C   UNL A   1      44.603  27.310  36.928  1.00  0.00     0.198 A 
ATOM     89  F   UNL A   1      42.299  27.618  36.675  1.00  0.00    -0.203 F 
ATOM     90  F   UNL A   1      47.277  28.734  35.204  1.00  0.00    -0.200 F 
ATOM     91  C   UNL A   1      45.889  27.691  36.663  1.00  0.00     0.200 A 
ATOM     92  F   UNL A   1      44.376  26.310  37.775  1.00  0.00    -0.200 F 
ATOM     93  F   UNL A   1      46.920  27.197  37.343  1.00  0.00    -0.200 F 
ENDBRANCH  59  83
ENDBRANCH  24  27
ENDBRANCH  15  17
ENDBRANCH  10  13
ENDBRANCH   7  10
ENDBRANCH   4   7
ENDBRANCH   1   4
BRANCH   1  94
ATOM     94  C   UNL A   1      33.850  29.441  26.136  1.00  0.00    -0.036 C 
ATOM     95  H   UNL A   1      34.018  28.491  26.602  1.00  0.00     0.028 H 
ATOM     96  H   UNL A   1      34.780  29.831  25.776  1.00  0.00     0.028 H 
BRANCH  94  97
ATOM     97  C   UNL A   1      32.887  29.271  24.972  1.00  0.00     0.018 C 
ATOM     98  H   UNL A   1      32.135  30.030  25.016  1.00  0.00     0.049 H 
ATOM     99  H   UNL A   1      32.426  28.307  25.029  1.00  0.00     0.049 H 
BRANCH  97 100
ATOM    100  N   UNL A   1      33.626  29.386  23.705  1.00  0.00    -0.352 N 
ATOM    101  C   UNL A   1      33.757  28.219  22.822  1.00  0.00     0.253 C 
ATOM    102  H   UNL A   1      34.031  30.246  23.449  1.00  0.00     0.163 HD
ATOM    103  O   UNL A   1      34.395  28.319  21.727  1.00  0.00    -0.269 OA
BRANCH 101 104
ATOM    104  C   UNL A   1      33.130  26.892  23.217  1.00  0.00     0.063 A 
ATOM    105  C   UNL A   1      33.800  26.060  24.099  1.00  0.00    -0.047 A 
ATOM    106  C   UNL A   1      31.950  26.553  22.711  1.00  0.00     0.051 A 
ATOM    107  C   UNL A   1      33.271  24.749  24.164  1.00  0.00    -0.061 A 
ATOM    108  H   UNL A   1      34.611  26.368  24.658  1.00  0.00     0.063 H 
ATOM    109  C   UNL A   1      31.430  25.299  22.927  1.00  0.00    -0.038 A 
ATOM    110  C   UNL A   1      32.068  24.404  23.740  1.00  0.00    -0.060 A 
ATOM    111  H   UNL A   1      33.868  24.010  24.569  1.00  0.00     0.062 H 
ATOM    112  H   UNL A   1      30.546  25.029  22.469  1.00  0.00     0.064 H 
ATOM    113  H   UNL A   1      31.634  23.508  24.008  1.00  0.00     0.062 H 
BRANCH 106 114
ATOM    114  N   UNL A   1      31.192  27.527  21.914  1.00  0.00    -0.355 N 
ATOM    115  H   UNL A   1      31.470  27.732  20.992  1.00  0.00     0.167 HD
BRANCH 114 116
ATOM    116  C   UNL A   1      30.017  28.196  22.491  1.00  0.00     0.040 A 
ATOM    117  C   UNL A   1      29.032  27.426  23.085  1.00  0.00    -0.039 A 
ATOM    118  C   UNL A   1      29.936  29.521  22.470  1.00  0.00    -0.016 A 
ATOM    119  C   UNL A   1      27.845  28.139  23.380  1.00  0.00    -0.059 A 
ATOM    120  H   UNL A   1      29.151  26.422  23.294  1.00  0.00     0.064 H 
ATOM    121  C   UNL A   1      28.797  30.160  22.900  1.00  0.00     0.109 A 
ATOM    122  H   UNL A   1      30.734  30.077  22.127  1.00  0.00     0.066 H 
ATOM    123  C   UNL A   1      27.759  29.455  23.443  1.00  0.00    -0.039 A 
ATOM    124  H   UNL A   1      26.987  27.592  23.556  1.00  0.00     0.062 H 
ATOM    125  H   UNL A   1      26.952  29.925  23.881  1.00  0.00     0.064 H 
BRANCH 121 126
ATOM    126  S   UNL A   1      28.669  31.958  22.745  1.00  0.00     0.310 S 
ATOM    127  F   UNL A   1      27.264  31.995  23.480  1.00  0.00    -0.094 F 
ATOM    128  F   UNL A   1      27.881  31.784  21.393  1.00  0.00    -0.094 F 
ATOM    129  F   UNL A   1      28.581  33.507  22.631  1.00  0.00    -0.094 F 
ATOM    130  F   UNL A   1      29.335  32.110  24.170  1.00  0.00    -0.094 F 
ATOM    131  F   UNL A   1      28.667  30.389  22.931  1.00  0.00    -0.094 F 
ENDBRANCH 121 126
ENDBRANCH 114 116
ENDBRANCH 106 114
ENDBRANCH 101 104
ENDBRANCH  97 100
ENDBRANCH  94  97
ENDBRANCH   1  94
TORSDOF 16
ENDMDL
MODEL 3
REMARK VINA RESULT:     -13.3      1.319      1.790
REMARK SMILES O=C(NCCCCCCNC(=O)c1ccccc1Nc1cccc(S(F)(F)(F)(F)F)c1)c1ccc(-c2c3nc(c(-c4c(F)c(F)c(F)c(F)c4F)c4ccc([nH]4)c(-c4c(F)c(F)c(F)c(F)c4F)c4nc(c(-c5c(F)c(F)c(F)c(F)c5F)c5ccc2[nH]5)C=C4)C=C3)cc1
REMARK SMILES IDX 7 1 6 4 5 7 4 10 3 13 1 14 2 15 32 17 33 18 94 19 34 20
REMARK SMILES IDX 93 22 35 24 36 27 37 28 87 29 38 30 92 31 86 32 88 33 39 34
REMARK SMILES IDX 91 35 85 37 84 39 40 41 72 44 52 45 71 46 53 47 56 48 70 49
REMARK SMILES IDX 89 50 54 51 55 53 69 55 90 56 57 59 41 61 42 62 50 63 43 64
REMARK SMILES IDX 44 65 48 66 51 67 45 68 46 69 49 70 47 71 73 72 74 73 82 74
REMARK SMILES IDX 75 75 76 76 80 77 83 78 77 79 78 80 81 81 79 82 58 83 59 84
REMARK SMILES IDX 67 85 60 86 61 87 65 88 68 89 62 90 63 91 66 92 64 93 8 94
REMARK SMILES IDX 9 97 10 100 11 101 12 103 13 104 14 105 18 106 15 107 17 109
REMARK SMILES IDX 16 110 19 114 20 116 21 117 31 118 22 119 24 121 23 123
REMARK SMILES IDX 25 126 26 127 27 128 28 129 29 130 30 131
REMARK H PARENT 7 2 7 3 6 5 6 6 5 8 5 9 4 11 4 12 3 16 33 21 94 23 34 25 93 26
REMARK H PARENT 92 36 86 38 88 40 91 42 85 43 53 52 56 54 89 57 54 58 90 60
REMARK H PARENT 8 95 8 96 9 98 9 99 10 102 14 108 15 111 17 112 16 113 19 115
REMARK H PARENT 21 120 31 122 22 124 23 125
REMARK Flexibility Score: inf
ROOT
ATOM      1  C   UNL A   1      31.779  28.954  26.656  1.00  0.00    -0.052 C 
ATOM      2  H   UNL A   1      30.897  28.402  26.407  1.00  0.00     0.027 H 
ATOM      3  H   UNL A   1      31.723  29.275  27.675  1.00  0.00     0.027 H 
ENDROOT
BRANCH   1   4
ATOM      4  C   UNL A   1      31.888  30.168  25.748  1.00  0.00    -0.052 C 
ATOM      5  H   UNL A   1      32.904  30.288  25.433  1.00  0.00     0.027 H 
ATOM      6  H   UNL A   1      31.263  30.030  24.890  1.00  0.00     0.027 H 
BRANCH   4   7
ATOM      7  C   UNL A   1      31.443  31.409  26.504  1.00  0.00    -0.036 C 
ATOM      8  H   UNL A   1      30.894  32.050  25.846  1.00  0.00     0.028 H 
ATOM      9  H   UNL A   1      30.819  31.122  27.325  1.00  0.00     0.028 H 
BRANCH   7  10
ATOM     10  C   UNL A   1      32.663  32.148  27.029  1.00  0.00     0.018 C 
ATOM     11  H   UNL A   1      33.049  31.636  27.886  1.00  0.00     0.049 H 
ATOM     12  H   UNL A   1      33.414  32.182  26.268  1.00  0.00     0.049 H 
BRANCH  10  13
ATOM     13  N   UNL A   1      32.284  33.517  27.405  1.00  0.00    -0.352 N 
ATOM     14  O   UNL A   1      32.803  35.472  28.651  1.00  0.00    -0.269 OA
ATOM     15  C   UNL A   1      33.131  34.288  28.326  1.00  0.00     0.251 C 
ATOM     16  H   UNL A   1      31.462  33.918  27.039  1.00  0.00     0.163 HD
BRANCH  15  17
ATOM     17  C   UNL A   1      34.400  33.669  28.889  1.00  0.00     0.039 A 
ATOM     18  C   UNL A   1      34.199  32.705  29.863  1.00  0.00    -0.049 A 
ATOM     19  C   UNL A   1      35.617  33.947  28.435  1.00  0.00    -0.049 A 
ATOM     20  C   UNL A   1      35.387  32.285  30.507  1.00  0.00    -0.053 A 
ATOM     21  H   UNL A   1      33.268  32.326  30.097  1.00  0.00     0.063 H 
ATOM     22  C   UNL A   1      36.727  33.395  29.027  1.00  0.00    -0.053 A 
ATOM     23  H   UNL A   1      35.729  34.583  27.630  1.00  0.00     0.063 H 
ATOM     24  C   UNL A   1      36.605  32.478  30.034  1.00  0.00    -0.014 A 
ATOM     25  H   UNL A   1      35.296  31.793  31.410  1.00  0.00     0.063 H 
ATOM     26  H   UNL A   1      37.667  33.675  28.706  1.00  0.00     0.063 H 
BRANCH  24  27
ATOM     27  C   UNL A   1      37.805  31.724  30.580  1.00  0.00     0.031 A 
ATOM     28  C   UNL A   1      38.477  30.767  29.817  1.00  0.00     0.074 A 
ATOM     29  C   UNL A   1      38.094  31.997  31.906  1.00  0.00     0.049 A 
ATOM     30  N   UNL A   1      39.501  29.999  30.192  1.00  0.00    -0.248 NA
ATOM     31  C   UNL A   1      38.150  30.451  28.419  1.00  0.00    -0.034 C 
ATOM     32  C   UNL A   1      37.427  32.965  32.681  1.00  0.00    -0.036 A 
ATOM     33  N   UNL A   1      39.050  31.406  32.702  1.00  0.00    -0.354 N 
ATOM     34  C   UNL A   1      39.890  29.221  29.179  1.00  0.00     0.074 A 
ATOM     35  C   UNL A   1      39.022  29.496  28.026  1.00  0.00    -0.034 C 
ATOM     36  H   UNL A   1      37.401  30.874  27.849  1.00  0.00     0.065 H 
ATOM     37  C   UNL A   1      37.963  32.949  33.930  1.00  0.00    -0.036 A 
ATOM     38  H   UNL A   1      36.663  33.580  32.358  1.00  0.00     0.065 H 
ATOM     39  C   UNL A   1      38.977  31.972  33.956  1.00  0.00     0.049 A 
ATOM     40  H   UNL A   1      39.677  30.700  32.424  1.00  0.00     0.167 HD
ATOM     41  C   UNL A   1      40.934  28.295  29.172  1.00  0.00     0.037 A 
ATOM     42  H   UNL A   1      39.069  29.048  27.098  1.00  0.00     0.065 H 
ATOM     43  H   UNL A   1      37.678  33.550  34.720  1.00  0.00     0.065 H 
ATOM     44  C   UNL A   1      39.739  31.666  35.072  1.00  0.00     0.037 A 
ATOM     45  C   UNL A   1      41.725  28.020  30.276  1.00  0.00     0.049 A 
ATOM     46  C   UNL A   1      40.746  30.698  35.081  1.00  0.00     0.074 A 
ATOM     47  C   UNL A   1      42.786  27.095  30.283  1.00  0.00    -0.036 A 
ATOM     48  N   UNL A   1      41.635  28.569  31.536  1.00  0.00    -0.354 N 
ATOM     49  N   UNL A   1      41.160  29.950  34.058  1.00  0.00    -0.248 NA
ATOM     50  C   UNL A   1      41.538  30.343  36.266  1.00  0.00    -0.034 C 
ATOM     51  C   UNL A   1      43.324  27.080  31.532  1.00  0.00    -0.036 A 
ATOM     52  H   UNL A   1      43.101  26.528  29.480  1.00  0.00     0.065 H 
ATOM     53  C   UNL A   1      42.605  27.994  32.326  1.00  0.00     0.049 A 
ATOM     54  H   UNL A   1      40.988  29.254  31.822  1.00  0.00     0.167 HD
ATOM     55  C   UNL A   1      42.156  29.151  34.446  1.00  0.00     0.074 A 
ATOM     56  C   UNL A   1      42.409  29.387  35.873  1.00  0.00    -0.034 C 
ATOM     57  H   UNL A   1      41.448  30.745  37.212  1.00  0.00     0.065 H 
ATOM     58  H   UNL A   1      44.118  26.499  31.844  1.00  0.00     0.065 H 
ATOM     59  C   UNL A   1      42.866  28.237  33.665  1.00  0.00     0.037 A 
ATOM     60  H   UNL A   1      43.113  28.916  36.462  1.00  0.00     0.065 H 
BRANCH  41  61
ATOM     61  C   UNL A   1      41.218  27.546  27.880  1.00  0.00     0.064 A 
ATOM     62  C   UNL A   1      42.101  28.012  26.920  1.00  0.00     0.173 A 
ATOM     63  C   UNL A   1      40.681  26.335  27.792  1.00  0.00     0.173 A 
ATOM     64  F   UNL A   1      42.852  29.097  27.090  1.00  0.00    -0.203 F 
ATOM     65  C   UNL A   1      42.130  27.230  25.740  1.00  0.00     0.198 A 
ATOM     66  C   UNL A   1      40.863  25.569  26.665  1.00  0.00     0.198 A 
ATOM     67  F   UNL A   1      39.959  25.860  28.802  1.00  0.00    -0.203 F 
ATOM     68  F   UNL A   1      42.653  27.779  24.648  1.00  0.00    -0.200 F 
ATOM     69  C   UNL A   1      41.674  25.994  25.650  1.00  0.00     0.200 A 
ATOM     70  F   UNL A   1      40.241  24.399  26.561  1.00  0.00    -0.200 F 
ATOM     71  F   UNL A   1      41.988  25.206  24.626  1.00  0.00    -0.200 F 
ENDBRANCH  41  61
BRANCH  44  72
ATOM     72  C   UNL A   1      39.465  32.427  36.359  1.00  0.00     0.064 A 
ATOM     73  C   UNL A   1      38.380  32.103  37.157  1.00  0.00     0.173 A 
ATOM     74  C   UNL A   1      40.198  33.508  36.599  1.00  0.00     0.173 A 
ATOM     75  F   UNL A   1      37.779  30.918  37.115  1.00  0.00    -0.203 F 
ATOM     76  C   UNL A   1      37.972  33.146  38.021  1.00  0.00     0.198 A 
ATOM     77  C   UNL A   1      39.810  34.418  37.554  1.00  0.00     0.198 A 
ATOM     78  F   UNL A   1      41.317  33.711  35.911  1.00  0.00    -0.203 F 
ATOM     79  F   UNL A   1      36.753  33.070  38.549  1.00  0.00    -0.200 F 
ATOM     80  C   UNL A   1      38.714  34.191  38.339  1.00  0.00     0.200 A 
ATOM     81  F   UNL A   1      40.511  35.537  37.714  1.00  0.00    -0.200 F 
ATOM     82  F   UNL A   1      38.414  34.977  39.368  1.00  0.00    -0.200 F 
ENDBRANCH  44  72
BRANCH  59  83
ATOM     83  C   UNL A   1      43.996  27.462  34.325  1.00  0.00     0.064 A 
ATOM     84  C   UNL A   1      43.616  26.263  34.906  1.00  0.00     0.173 A 
ATOM     85  C   UNL A   1      45.268  27.840  34.294  1.00  0.00     0.173 A 
ATOM     86  F   UNL A   1      42.411  25.726  34.742  1.00  0.00    -0.203 F 
ATOM     87  C   UNL A   1      44.628  25.661  35.692  1.00  0.00     0.198 A 
ATOM     88  C   UNL A   1      46.227  27.128  34.974  1.00  0.00     0.198 A 
ATOM     89  F   UNL A   1      45.617  28.919  33.599  1.00  0.00    -0.203 F 
ATOM     90  F   UNL A   1      44.261  24.726  36.562  1.00  0.00    -0.200 F 
ATOM     91  C   UNL A   1      45.911  25.965  35.620  1.00  0.00     0.200 A 
ATOM     92  F   UNL A   1      47.479  27.576  35.003  1.00  0.00    -0.200 F 
ATOM     93  F   UNL A   1      46.847  25.182  36.148  1.00  0.00    -0.200 F 
ENDBRANCH  59  83
ENDBRANCH  24  27
ENDBRANCH  15  17
ENDBRANCH  10  13
ENDBRANCH   7  10
ENDBRANCH   4   7
ENDBRANCH   1   4
BRANCH   1  94
ATOM     94  C   UNL A   1      33.000  28.069  26.470  1.00  0.00    -0.036 C 
ATOM     95  H   UNL A   1      33.627  28.138  27.335  1.00  0.00     0.028 H 
ATOM     96  H   UNL A   1      33.547  28.392  25.608  1.00  0.00     0.028 H 
BRANCH  94  97
ATOM     97  C   UNL A   1      32.558  26.627  26.279  1.00  0.00     0.018 C 
ATOM     98  H   UNL A   1      33.243  25.974  26.779  1.00  0.00     0.049 H 
ATOM     99  H   UNL A   1      32.539  26.395  25.235  1.00  0.00     0.049 H 
BRANCH  97 100
ATOM    100  N   UNL A   1      31.212  26.450  26.844  1.00  0.00    -0.352 N 
ATOM    101  C   UNL A   1      30.362  25.341  26.387  1.00  0.00     0.253 C 
ATOM    102  H   UNL A   1      30.880  27.074  27.530  1.00  0.00     0.163 HD
ATOM    103  O   UNL A   1      29.199  25.188  26.876  1.00  0.00    -0.269 OA
BRANCH 101 104
ATOM    104  C   UNL A   1      30.875  24.378  25.330  1.00  0.00     0.063 A 
ATOM    105  C   UNL A   1      31.700  23.330  25.708  1.00  0.00    -0.047 A 
ATOM    106  C   UNL A   1      30.525  24.555  24.061  1.00  0.00     0.051 A 
ATOM    107  C   UNL A   1      32.342  22.686  24.624  1.00  0.00    -0.061 A 
ATOM    108  H   UNL A   1      31.833  23.046  26.691  1.00  0.00     0.063 H 
ATOM    109  C   UNL A   1      31.094  23.797  23.065  1.00  0.00    -0.038 A 
ATOM    110  C   UNL A   1      31.962  22.783  23.363  1.00  0.00    -0.060 A 
ATOM    111  H   UNL A   1      33.165  22.100  24.833  1.00  0.00     0.062 H 
ATOM    112  H   UNL A   1      30.862  23.996  22.080  1.00  0.00     0.064 H 
ATOM    113  H   UNL A   1      32.302  22.130  22.641  1.00  0.00     0.062 H 
BRANCH 106 114
ATOM    114  N   UNL A   1      29.521  25.572  23.719  1.00  0.00    -0.355 N 
ATOM    115  H   UNL A   1      28.563  25.368  23.814  1.00  0.00     0.167 HD
BRANCH 114 116
ATOM    116  C   UNL A   1      29.947  26.893  23.236  1.00  0.00     0.040 A 
ATOM    117  C   UNL A   1      31.241  27.053  22.772  1.00  0.00    -0.039 A 
ATOM    118  C   UNL A   1      29.079  27.899  23.216  1.00  0.00    -0.016 A 
ATOM    119  C   UNL A   1      31.616  28.403  22.571  1.00  0.00    -0.059 A 
ATOM    120  H   UNL A   1      31.876  26.260  22.590  1.00  0.00     0.064 H 
ATOM    121  C   UNL A   1      29.485  29.168  22.878  1.00  0.00     0.109 A 
ATOM    122  H   UNL A   1      28.091  27.726  23.457  1.00  0.00     0.066 H 
ATOM    123  C   UNL A   1      30.767  29.409  22.467  1.00  0.00    -0.039 A 
ATOM    124  H   UNL A   1      32.624  28.616  22.501  1.00  0.00     0.062 H 
ATOM    125  H   UNL A   1      31.055  30.327  22.094  1.00  0.00     0.064 H 
BRANCH 121 126
ATOM    126  S   UNL A   1      28.308  30.538  22.977  1.00  0.00     0.310 S 
ATOM    127  F   UNL A   1      29.230  31.490  22.105  1.00  0.00    -0.094 F 
ATOM    128  F   UNL A   1      29.059  31.089  24.248  1.00  0.00    -0.094 F 
ATOM    129  F   UNL A   1      27.278  31.701  23.047  1.00  0.00    -0.094 F 
ATOM    130  F   UNL A   1      27.655  30.052  21.624  1.00  0.00    -0.094 F 
ATOM    131  F   UNL A   1      29.412  29.418  22.829  1.00  0.00    -0.094 F 
ENDBRANCH 121 126
ENDBRANCH 114 116
ENDBRANCH 106 114
ENDBRANCH 101 104
ENDBRANCH  97 100
ENDBRANCH  94  97
ENDBRANCH   1  94
TORSDOF 16
ENDMDL
MODEL 4
REMARK VINA RESULT:     -13.3      0.909      7.060
REMARK SMILES O=C(NCCCCCCNC(=O)c1ccccc1Nc1cccc(S(F)(F)(F)(F)F)c1)c1ccc(-c2c3nc(c(-c4c(F)c(F)c(F)c(F)c4F)c4ccc([nH]4)c(-c4c(F)c(F)c(F)c(F)c4F)c4nc(c(-c5c(F)c(F)c(F)c(F)c5F)c5ccc2[nH]5)C=C4)C=C3)cc1
REMARK SMILES IDX 7 1 6 4 5 7 4 10 3 13 1 14 2 15 32 17 33 18 94 19 34 20
REMARK SMILES IDX 93 22 35 24 36 27 37 28 87 29 38 30 92 31 86 32 88 33 39 34
REMARK SMILES IDX 91 35 85 37 84 39 40 41 72 44 52 45 71 46 53 47 56 48 70 49
REMARK SMILES IDX 89 50 54 51 55 53 69 55 90 56 57 59 41 61 42 62 50 63 43 64
REMARK SMILES IDX 44 65 48 66 51 67 45 68 46 69 49 70 47 71 73 72 74 73 82 74
REMARK SMILES IDX 75 75 76 76 80 77 83 78 77 79 78 80 81 81 79 82 58 83 59 84
REMARK SMILES IDX 67 85 60 86 61 87 65 88 68 89 62 90 63 91 66 92 64 93 8 94
REMARK SMILES IDX 9 97 10 100 11 101 12 103 13 104 14 105 18 106 15 107 17 109
REMARK SMILES IDX 16 110 19 114 20 116 21 117 31 118 22 119 24 121 23 123
REMARK SMILES IDX 25 126 26 127 27 128 28 129 29 130 30 131
REMARK H PARENT 7 2 7 3 6 5 6 6 5 8 5 9 4 11 4 12 3 16 33 21 94 23 34 25 93 26
REMARK H PARENT 92 36 86 38 88 40 91 42 85 43 53 52 56 54 89 57 54 58 90 60
REMARK H PARENT 8 95 8 96 9 98 9 99 10 102 14 108 15 111 17 112 16 113 19 115
REMARK H PARENT 21 120 31 122 22 124 23 125
REMARK Flexibility Score: inf
ROOT
ATOM      1  C   UNL A   1      33.166  30.469  27.076  1.00  0.00    -0.052 C 
ATOM      2  H   UNL A   1      33.230  30.085  28.073  1.00  0.00     0.027 H 
ATOM      3  H   UNL A   1      33.761  31.354  26.996  1.00  0.00     0.027 H 
ENDROOT
BRANCH   1   4
ATOM      4  C   UNL A   1      31.717  30.801  26.755  1.00  0.00    -0.052 C 
ATOM      5  H   UNL A   1      31.491  30.481  25.759  1.00  0.00     0.027 H 
ATOM      6  H   UNL A   1      31.074  30.298  27.446  1.00  0.00     0.027 H 
BRANCH   4   7
ATOM      7  C   UNL A   1      31.505  32.302  26.866  1.00  0.00    -0.036 C 
ATOM      8  H   UNL A   1      31.203  32.691  25.917  1.00  0.00     0.028 H 
ATOM      9  H   UNL A   1      30.745  32.502  27.592  1.00  0.00     0.028 H 
BRANCH   7  10
ATOM     10  C   UNL A   1      32.803  32.966  27.296  1.00  0.00     0.018 C 
ATOM     11  H   UNL A   1      33.202  32.453  28.146  1.00  0.00     0.049 H 
ATOM     12  H   UNL A   1      33.508  32.925  26.492  1.00  0.00     0.049 H 
BRANCH  10  13
ATOM     13  N   UNL A   1      32.542  34.369  27.649  1.00  0.00    -0.352 N 
ATOM     14  O   UNL A   1      33.080  36.222  29.035  1.00  0.00    -0.269 OA
ATOM     15  C   UNL A   1      33.305  35.009  28.730  1.00  0.00     0.251 C 
ATOM     16  H   UNL A   1      31.857  34.880  27.160  1.00  0.00     0.163 HD
BRANCH  15  17
ATOM     17  C   UNL A   1      34.364  34.220  29.483  1.00  0.00     0.039 A 
ATOM     18  C   UNL A   1      35.671  34.484  29.105  1.00  0.00    -0.049 A 
ATOM     19  C   UNL A   1      34.090  33.403  30.494  1.00  0.00    -0.049 A 
ATOM     20  C   UNL A   1      36.621  33.605  29.677  1.00  0.00    -0.053 A 
ATOM     21  H   UNL A   1      35.928  35.252  28.466  1.00  0.00     0.063 H 
ATOM     22  C   UNL A   1      35.090  32.676  31.095  1.00  0.00    -0.053 A 
ATOM     23  H   UNL A   1      33.119  33.314  30.830  1.00  0.00     0.063 H 
ATOM     24  C   UNL A   1      36.397  32.843  30.732  1.00  0.00    -0.014 A 
ATOM     25  H   UNL A   1      37.554  33.556  29.239  1.00  0.00     0.063 H 
ATOM     26  H   UNL A   1      34.850  31.995  31.832  1.00  0.00     0.063 H 
BRANCH  24  27
ATOM     27  C   UNL A   1      37.532  32.186  31.500  1.00  0.00     0.031 A 
ATOM     28  C   UNL A   1      37.917  32.637  32.764  1.00  0.00     0.074 A 
ATOM     29  C   UNL A   1      38.193  31.192  30.800  1.00  0.00     0.049 A 
ATOM     30  N   UNL A   1      38.924  32.191  33.515  1.00  0.00    -0.248 NA
ATOM     31  C   UNL A   1      37.237  33.716  33.495  1.00  0.00    -0.034 C 
ATOM     32  C   UNL A   1      37.807  30.726  29.528  1.00  0.00    -0.036 A 
ATOM     33  N   UNL A   1      39.312  30.487  31.185  1.00  0.00    -0.354 N 
ATOM     34  C   UNL A   1      38.967  32.855  34.672  1.00  0.00     0.074 A 
ATOM     35  C   UNL A   1      37.886  33.850  34.673  1.00  0.00    -0.034 C 
ATOM     36  H   UNL A   1      36.425  34.265  33.173  1.00  0.00     0.065 H 
ATOM     37  C   UNL A   1      38.687  29.763  29.146  1.00  0.00    -0.036 A 
ATOM     38  H   UNL A   1      36.997  31.057  28.980  1.00  0.00     0.065 H 
ATOM     39  C   UNL A   1      39.637  29.610  30.174  1.00  0.00     0.049 A 
ATOM     40  H   UNL A   1      39.796  30.592  32.035  1.00  0.00     0.167 HD
ATOM     41  C   UNL A   1      39.862  32.670  35.726  1.00  0.00     0.037 A 
ATOM     42  H   UNL A   1      37.666  34.521  35.426  1.00  0.00     0.065 H 
ATOM     43  H   UNL A   1      38.662  29.236  28.259  1.00  0.00     0.065 H 
ATOM     44  C   UNL A   1      40.699  28.721  30.130  1.00  0.00     0.037 A 
ATOM     45  C   UNL A   1      40.899  31.749  35.700  1.00  0.00     0.049 A 
ATOM     46  C   UNL A   1      41.631  28.575  31.161  1.00  0.00     0.074 A 
ATOM     47  C   UNL A   1      41.805  31.545  36.757  1.00  0.00    -0.036 A 
ATOM     48  N   UNL A   1      41.238  30.890  34.679  1.00  0.00    -0.354 N 
ATOM     49  N   UNL A   1      41.649  29.211  32.333  1.00  0.00    -0.248 NA
ATOM     50  C   UNL A   1      42.778  27.659  31.113  1.00  0.00    -0.034 C 
ATOM     51  C   UNL A   1      42.686  30.580  36.376  1.00  0.00    -0.036 A 
ATOM     52  H   UNL A   1      41.803  32.039  37.663  1.00  0.00     0.065 H 
ATOM     53  C   UNL A   1      42.344  30.169  35.073  1.00  0.00     0.049 A 
ATOM     54  H   UNL A   1      40.772  30.805  33.817  1.00  0.00     0.167 HD
ATOM     55  C   UNL A   1      42.682  28.794  33.067  1.00  0.00     0.074 A 
ATOM     56  C   UNL A   1      43.428  27.795  32.290  1.00  0.00    -0.034 C 
ATOM     57  H   UNL A   1      43.037  27.035  30.333  1.00  0.00     0.065 H 
ATOM     58  H   UNL A   1      43.469  30.215  36.942  1.00  0.00     0.065 H 
ATOM     59  C   UNL A   1      43.031  29.204  34.355  1.00  0.00     0.037 A 
ATOM     60  H   UNL A   1      44.281  27.294  32.584  1.00  0.00     0.065 H 
BRANCH  41  61
ATOM     61  C   UNL A   1      39.692  33.524  36.971  1.00  0.00     0.064 A 
ATOM     62  C   UNL A   1      40.244  34.788  37.097  1.00  0.00     0.173 A 
ATOM     63  C   UNL A   1      38.850  33.046  37.881  1.00  0.00     0.173 A 
ATOM     64  F   UNL A   1      40.879  35.404  36.105  1.00  0.00    -0.203 F 
ATOM     65  C   UNL A   1      40.071  35.364  38.378  1.00  0.00     0.198 A 
ATOM     66  C   UNL A   1      38.624  33.729  39.052  1.00  0.00     0.198 A 
ATOM     67  F   UNL A   1      38.222  31.896  37.657  1.00  0.00    -0.203 F 
ATOM     68  F   UNL A   1      40.855  36.387  38.707  1.00  0.00    -0.200 F 
ATOM     69  C   UNL A   1      39.186  34.957  39.269  1.00  0.00     0.200 A 
ATOM     70  F   UNL A   1      37.849  33.188  39.987  1.00  0.00    -0.200 F 
ATOM     71  F   UNL A   1      38.857  35.701  40.321  1.00  0.00    -0.200 F 
ENDBRANCH  41  61
BRANCH  44  72
ATOM     72  C   UNL A   1      40.859  27.854  28.892  1.00  0.00     0.064 A 
ATOM     73  C   UNL A   1      41.665  28.261  27.841  1.00  0.00     0.173 A 
ATOM     74  C   UNL A   1      40.077  26.786  28.787  1.00  0.00     0.173 A 
ATOM     75  F   UNL A   1      42.638  29.156  27.979  1.00  0.00    -0.203 F 
ATOM     76  C   UNL A   1      41.359  27.638  26.609  1.00  0.00     0.198 A 
ATOM     77  C   UNL A   1      39.930  26.143  27.580  1.00  0.00     0.198 A 
ATOM     78  F   UNL A   1      39.432  26.334  29.857  1.00  0.00    -0.203 F 
ATOM     79  F   UNL A   1      41.815  28.209  25.497  1.00  0.00    -0.200 F 
ATOM     80  C   UNL A   1      40.651  26.530  26.485  1.00  0.00     0.200 A 
ATOM     81  F   UNL A   1      39.073  25.132  27.478  1.00  0.00    -0.200 F 
ATOM     82  F   UNL A   1      40.641  25.828  25.355  1.00  0.00    -0.200 F 
ENDBRANCH  44  72
BRANCH  59  83
ATOM     83  C   UNL A   1      44.238  28.551  35.009  1.00  0.00     0.064 A 
ATOM     84  C   UNL A   1      43.962  27.387  35.707  1.00  0.00     0.173 A 
ATOM     85  C   UNL A   1      45.482  28.995  34.874  1.00  0.00     0.173 A 
ATOM     86  F   UNL A   1      42.785  26.773  35.657  1.00  0.00    -0.203 F 
ATOM     87  C   UNL A   1      45.048  26.910  36.479  1.00  0.00     0.198 A 
ATOM     88  C   UNL A   1      46.517  28.396  35.552  1.00  0.00     0.198 A 
ATOM     89  F   UNL A   1      45.729  30.028  34.074  1.00  0.00    -0.203 F 
ATOM     90  F   UNL A   1      44.785  26.033  37.442  1.00  0.00    -0.200 F 
ATOM     91  C   UNL A   1      46.306  27.276  36.308  1.00  0.00     0.200 A 
ATOM     92  F   UNL A   1      47.739  28.913  35.472  1.00  0.00    -0.200 F 
ATOM     93  F   UNL A   1      47.314  26.594  36.844  1.00  0.00    -0.200 F 
ENDBRANCH  59  83
ENDBRANCH  24  27
ENDBRANCH  15  17
ENDBRANCH  10  13
ENDBRANCH   7  10
ENDBRANCH   4   7
ENDBRANCH   1   4
BRANCH   1  94
ATOM     94  C   UNL A   1      33.676  29.424  26.097  1.00  0.00    -0.036 C 
ATOM     95  H   UNL A   1      33.705  28.468  26.578  1.00  0.00     0.028 H 
ATOM     96  H   UNL A   1      34.660  29.690  25.772  1.00  0.00     0.028 H 
BRANCH  94  97
ATOM     97  C   UNL A   1      32.745  29.358  24.897  1.00  0.00     0.018 C 
ATOM     98  H   UNL A   1      32.056  30.175  24.933  1.00  0.00     0.049 H 
ATOM     99  H   UNL A   1      32.205  28.434  24.914  1.00  0.00     0.049 H 
BRANCH  97 100
ATOM    100  N   UNL A   1      33.536  29.439  23.660  1.00  0.00    -0.352 N 
ATOM    101  C   UNL A   1      33.722  28.243  22.826  1.00  0.00     0.253 C 
ATOM    102  H   UNL A   1      33.941  30.295  23.390  1.00  0.00     0.163 HD
ATOM    103  O   UNL A   1      34.405  28.314  21.756  1.00  0.00    -0.269 OA
BRANCH 101 104
ATOM    104  C   UNL A   1      33.097  26.922  23.242  1.00  0.00     0.063 A 
ATOM    105  C   UNL A   1      33.768  26.105  24.136  1.00  0.00    -0.047 A 
ATOM    106  C   UNL A   1      31.917  26.574  22.742  1.00  0.00     0.051 A 
ATOM    107  C   UNL A   1      33.241  24.794  24.221  1.00  0.00    -0.061 A 
ATOM    108  H   UNL A   1      34.579  26.423  24.690  1.00  0.00     0.063 H 
ATOM    109  C   UNL A   1      31.399  25.322  22.977  1.00  0.00    -0.038 A 
ATOM    110  C   UNL A   1      32.039  24.441  23.804  1.00  0.00    -0.060 A 
ATOM    111  H   UNL A   1      33.839  24.062  24.637  1.00  0.00     0.062 H 
ATOM    112  H   UNL A   1      30.515  25.044  22.524  1.00  0.00     0.064 H 
ATOM    113  H   UNL A   1      31.606  23.548  24.086  1.00  0.00     0.062 H 
BRANCH 106 114
ATOM    114  N   UNL A   1      31.158  27.535  21.929  1.00  0.00    -0.355 N 
ATOM    115  H   UNL A   1      31.433  27.722  21.003  1.00  0.00     0.167 HD
BRANCH 114 116
ATOM    116  C   UNL A   1      29.986  28.215  22.499  1.00  0.00     0.040 A 
ATOM    117  C   UNL A   1      28.978  27.455  23.066  1.00  0.00    -0.039 A 
ATOM    118  C   UNL A   1      29.929  29.542  22.497  1.00  0.00    -0.016 A 
ATOM    119  C   UNL A   1      27.800  28.184  23.354  1.00  0.00    -0.059 A 
ATOM    120  H   UNL A   1      29.076  26.446  23.261  1.00  0.00     0.064 H 
ATOM    121  C   UNL A   1      28.795  30.195  22.920  1.00  0.00     0.109 A 
ATOM    122  H   UNL A   1      30.743  30.088  22.175  1.00  0.00     0.066 H 
ATOM    123  C   UNL A   1      27.737  29.501  23.436  1.00  0.00    -0.039 A 
ATOM    124  H   UNL A   1      26.930  27.651  23.509  1.00  0.00     0.062 H 
ATOM    125  H   UNL A   1      26.931  29.980  23.869  1.00  0.00     0.064 H 
BRANCH 121 126
ATOM    126  S   UNL A   1      28.703  31.997  22.791  1.00  0.00     0.310 S 
ATOM    127  F   UNL A   1      27.283  32.048  23.496  1.00  0.00    -0.094 F 
ATOM    128  F   UNL A   1      27.940  31.859  21.420  1.00  0.00    -0.094 F 
ATOM    129  F   UNL A   1      28.644  33.549  22.698  1.00  0.00    -0.094 F 
ATOM    130  F   UNL A   1      29.341  32.116  24.231  1.00  0.00    -0.094 F 
ATOM    131  F   UNL A   1      28.669  30.426  22.952  1.00  0.00    -0.094 F 
ENDBRANCH 121 126
ENDBRANCH 114 116
ENDBRANCH 106 114
ENDBRANCH 101 104
ENDBRANCH  97 100
ENDBRANCH  94  97
ENDBRANCH   1  94
TORSDOF 16
ENDMDL
MODEL 5
REMARK VINA RESULT:     -13.2      3.405      7.283
REMARK SMILES O=C(NCCCCCCNC(=O)c1ccccc1Nc1cccc(S(F)(F)(F)(F)F)c1)c1ccc(-c2c3nc(c(-c4c(F)c(F)c(F)c(F)c4F)c4ccc([nH]4)c(-c4c(F)c(F)c(F)c(F)c4F)c4nc(c(-c5c(F)c(F)c(F)c(F)c5F)c5ccc2[nH]5)C=C4)C=C3)cc1
REMARK SMILES IDX 7 1 6 4 5 7 4 10 3 13 1 14 2 15 32 17 33 18 94 19 34 20
REMARK SMILES IDX 93 22 35 24 36 27 37 28 87 29 38 30 92 31 86 32 88 33 39 34
REMARK SMILES IDX 91 35 85 37 84 39 40 41 72 44 52 45 71 46 53 47 56 48 70 49
REMARK SMILES IDX 89 50 54 51 55 53 69 55 90 56 57 59 41 61 42 62 50 63 43 64
REMARK SMILES IDX 44 65 48 66 51 67 45 68 46 69 49 70 47 71 73 72 74 73 82 74
REMARK SMILES IDX 75 75 76 76 80 77 83 78 77 79 78 80 81 81 79 82 58 83 59 84
REMARK SMILES IDX 67 85 60 86 61 87 65 88 68 89 62 90 63 91 66 92 64 93 8 94
REMARK SMILES IDX 9 97 10 100 11 101 12 103 13 104 14 105 18 106 15 107 17 109
REMARK SMILES IDX 16 110 19 114 20 116 21 117 31 118 22 119 24 121 23 123
REMARK SMILES IDX 25 126 26 127 27 128 28 129 29 130 30 131
REMARK H PARENT 7 2 7 3 6 5 6 6 5 8 5 9 4 11 4 12 3 16 33 21 94 23 34 25 93 26
REMARK H PARENT 92 36 86 38 88 40 91 42 85 43 53 52 56 54 89 57 54 58 90 60
REMARK H PARENT 8 95 8 96 9 98 9 99 10 102 14 108 15 111 17 112 16 113 19 115
REMARK H PARENT 21 120 31 122 22 124 23 125
REMARK Flexibility Score: inf
ROOT
ATOM      1  C   UNL A   1      33.629  22.560  25.050  1.00  0.00    -0.052 C 
ATOM      2  H   UNL A   1      33.354  23.547  25.358  1.00  0.00     0.027 H 
ATOM      3  H   UNL A   1      33.041  21.843  25.584  1.00  0.00     0.027 H 
ENDROOT
BRANCH   1   4
ATOM      4  C   UNL A   1      35.102  22.329  25.346  1.00  0.00    -0.052 C 
ATOM      5  H   UNL A   1      35.220  21.404  25.871  1.00  0.00     0.027 H 
ATOM      6  H   UNL A   1      35.649  22.289  24.426  1.00  0.00     0.027 H 
BRANCH   4   7
ATOM      7  C   UNL A   1      35.632  23.469  26.200  1.00  0.00    -0.036 C 
ATOM      8  H   UNL A   1      34.930  24.276  26.193  1.00  0.00     0.028 H 
ATOM      9  H   UNL A   1      35.773  23.127  27.204  1.00  0.00     0.028 H 
BRANCH   7  10
ATOM     10  C   UNL A   1      36.960  23.949  25.637  1.00  0.00     0.018 C 
ATOM     11  H   UNL A   1      36.815  24.313  24.642  1.00  0.00     0.049 H 
ATOM     12  H   UNL A   1      37.344  24.736  26.252  1.00  0.00     0.049 H 
BRANCH  10  13
ATOM     13  N   UNL A   1      37.916  22.832  25.616  1.00  0.00    -0.352 N 
ATOM     14  O   UNL A   1      40.083  22.035  26.177  1.00  0.00    -0.269 OA
ATOM     15  C   UNL A   1      39.256  23.001  26.196  1.00  0.00     0.251 C 
ATOM     16  H   UNL A   1      37.658  21.971  25.214  1.00  0.00     0.163 HD
BRANCH  15  17
ATOM     17  C   UNL A   1      39.654  24.329  26.817  1.00  0.00     0.039 A 
ATOM     18  C   UNL A   1      39.405  24.438  28.176  1.00  0.00    -0.049 A 
ATOM     19  C   UNL A   1      40.278  25.294  26.151  1.00  0.00    -0.049 A 
ATOM     20  C   UNL A   1      39.601  25.742  28.691  1.00  0.00    -0.053 A 
ATOM     21  H   UNL A   1      39.106  23.641  28.759  1.00  0.00     0.063 H 
ATOM     22  C   UNL A   1      40.558  26.494  26.759  1.00  0.00    -0.053 A 
ATOM     23  H   UNL A   1      40.554  25.141  25.169  1.00  0.00     0.063 H 
ATOM     24  C   UNL A   1      40.287  26.693  28.084  1.00  0.00    -0.014 A 
ATOM     25  H   UNL A   1      39.177  25.965  29.606  1.00  0.00     0.063 H 
ATOM     26  H   UNL A   1      40.981  27.257  26.207  1.00  0.00     0.063 H 
BRANCH  24  27
ATOM     27  C   UNL A   1      40.748  27.940  28.819  1.00  0.00     0.031 A 
ATOM     28  C   UNL A   1      42.036  28.042  29.350  1.00  0.00     0.074 A 
ATOM     29  C   UNL A   1      39.762  28.896  28.993  1.00  0.00     0.049 A 
ATOM     30  N   UNL A   1      42.546  29.049  30.060  1.00  0.00    -0.248 NA
ATOM     31  C   UNL A   1      43.074  27.013  29.195  1.00  0.00    -0.034 C 
ATOM     32  C   UNL A   1      38.464  28.805  28.454  1.00  0.00    -0.036 A 
ATOM     33  N   UNL A   1      39.845  30.078  29.695  1.00  0.00    -0.354 N 
ATOM     34  C   UNL A   1      43.818  28.794  30.375  1.00  0.00     0.074 A 
ATOM     35  C   UNL A   1      44.174  27.478  29.828  1.00  0.00    -0.034 C 
ATOM     36  H   UNL A   1      42.982  26.112  28.701  1.00  0.00     0.065 H 
ATOM     37  C   UNL A   1      37.770  29.909  28.837  1.00  0.00    -0.036 A 
ATOM     38  H   UNL A   1      38.102  28.034  27.871  1.00  0.00     0.065 H 
ATOM     39  C   UNL A   1      38.623  30.710  29.619  1.00  0.00     0.049 A 
ATOM     40  H   UNL A   1      40.639  30.413  30.170  1.00  0.00     0.167 HD
ATOM     41  C   UNL A   1      44.694  29.608  31.094  1.00  0.00     0.037 A 
ATOM     42  H   UNL A   1      45.085  27.001  29.912  1.00  0.00     0.065 H 
ATOM     43  H   UNL A   1      36.789  30.122  28.595  1.00  0.00     0.065 H 
ATOM     44  C   UNL A   1      38.254  31.915  30.195  1.00  0.00     0.037 A 
ATOM     45  C   UNL A   1      44.336  30.834  31.633  1.00  0.00     0.049 A 
ATOM     46  C   UNL A   1      39.114  32.703  30.965  1.00  0.00     0.074 A 
ATOM     47  C   UNL A   1      45.210  31.670  32.354  1.00  0.00    -0.036 A 
ATOM     48  N   UNL A   1      43.108  31.454  31.578  1.00  0.00    -0.354 N 
ATOM     49  N   UNL A   1      40.396  32.466  31.245  1.00  0.00    -0.248 NA
ATOM     50  C   UNL A   1      38.724  33.965  31.606  1.00  0.00    -0.034 C 
ATOM     51  C   UNL A   1      44.516  32.775  32.737  1.00  0.00    -0.036 A 
ATOM     52  H   UNL A   1      46.204  31.478  32.557  1.00  0.00     0.065 H 
ATOM     53  C   UNL A   1      43.197  32.647  32.261  1.00  0.00     0.049 A 
ATOM     54  H   UNL A   1      42.305  31.105  31.127  1.00  0.00     0.167 HD
ATOM     55  C   UNL A   1      40.893  33.454  31.992  1.00  0.00     0.074 A 
ATOM     56  C   UNL A   1      39.823  34.429  32.240  1.00  0.00    -0.034 C 
ATOM     57  H   UNL A   1      37.793  34.411  31.577  1.00  0.00     0.065 H 
ATOM     58  H   UNL A   1      44.891  33.569  33.281  1.00  0.00     0.065 H 
ATOM     59  C   UNL A   1      42.197  33.583  32.472  1.00  0.00     0.037 A 
ATOM     60  H   UNL A   1      39.896  35.298  32.792  1.00  0.00     0.065 H 
BRANCH  41  61
ATOM     61  C   UNL A   1      46.120  29.122  31.298  1.00  0.00     0.064 A 
ATOM     62  C   UNL A   1      46.484  28.275  32.330  1.00  0.00     0.173 A 
ATOM     63  C   UNL A   1      46.975  29.440  30.332  1.00  0.00     0.173 A 
ATOM     64  F   UNL A   1      45.606  27.730  33.167  1.00  0.00    -0.203 F 
ATOM     65  C   UNL A   1      47.878  28.041  32.415  1.00  0.00     0.198 A 
ATOM     66  C   UNL A   1      48.293  29.062  30.413  1.00  0.00     0.198 A 
ATOM     67  F   UNL A   1      46.551  30.131  29.279  1.00  0.00    -0.203 F 
ATOM     68  F   UNL A   1      48.355  27.552  33.556  1.00  0.00    -0.200 F 
ATOM     69  C   UNL A   1      48.737  28.274  31.439  1.00  0.00     0.200 A 
ATOM     70  F   UNL A   1      49.150  29.469  29.481  1.00  0.00    -0.200 F 
ATOM     71  F   UNL A   1      49.967  27.769  31.453  1.00  0.00    -0.200 F 
ENDBRANCH  41  61
BRANCH  44  72
ATOM     72  C   UNL A   1      36.833  32.408  29.977  1.00  0.00     0.064 A 
ATOM     73  C   UNL A   1      36.522  33.222  28.900  1.00  0.00     0.173 A 
ATOM     74  C   UNL A   1      35.947  32.168  30.937  1.00  0.00     0.173 A 
ATOM     75  F   UNL A   1      37.270  33.288  27.803  1.00  0.00    -0.203 F 
ATOM     76  C   UNL A   1      35.337  33.976  29.074  1.00  0.00     0.198 A 
ATOM     77  C   UNL A   1      34.750  32.844  30.969  1.00  0.00     0.198 A 
ATOM     78  F   UNL A   1      36.220  31.268  31.876  1.00  0.00    -0.203 F 
ATOM     79  F   UNL A   1      35.152  35.028  28.281  1.00  0.00    -0.200 F 
ATOM     80  C   UNL A   1      34.404  33.709  29.969  1.00  0.00     0.200 A 
ATOM     81  F   UNL A   1      33.918  32.654  31.989  1.00  0.00    -0.200 F 
ATOM     82  F   UNL A   1      33.191  34.251  29.899  1.00  0.00    -0.200 F 
ENDBRANCH  44  72
BRANCH  59  83
ATOM     83  C   UNL A   1      42.542  34.827  33.275  1.00  0.00     0.064 A 
ATOM     84  C   UNL A   1      42.291  34.731  34.633  1.00  0.00     0.173 A 
ATOM     85  C   UNL A   1      43.113  35.907  32.754  1.00  0.00     0.173 A 
ATOM     86  F   UNL A   1      41.961  33.590  35.231  1.00  0.00    -0.203 F 
ATOM     87  C   UNL A   1      42.417  35.957  35.328  1.00  0.00     0.198 A 
ATOM     88  C   UNL A   1      43.331  37.024  33.525  1.00  0.00     0.198 A 
ATOM     89  F   UNL A   1      43.477  35.908  31.475  1.00  0.00    -0.203 F 
ATOM     90  F   UNL A   1      41.859  36.047  36.531  1.00  0.00    -0.200 F 
ATOM     91  C   UNL A   1      43.051  37.019  34.864  1.00  0.00     0.200 A 
ATOM     92  F   UNL A   1      43.821  38.124  32.961  1.00  0.00    -0.200 F 
ATOM     93  F   UNL A   1      43.398  38.030  35.655  1.00  0.00    -0.200 F 
ENDBRANCH  59  83
ENDBRANCH  24  27
ENDBRANCH  15  17
ENDBRANCH  10  13
ENDBRANCH   7  10
ENDBRANCH   4   7
ENDBRANCH   1   4
BRANCH   1  94
ATOM     94  C   UNL A   1      33.381  22.407  23.558  1.00  0.00    -0.036 C 
ATOM     95  H   UNL A   1      33.068  21.404  23.349  1.00  0.00     0.028 H 
ATOM     96  H   UNL A   1      34.284  22.617  23.023  1.00  0.00     0.028 H 
BRANCH  94  97
ATOM     97  C   UNL A   1      32.295  23.377  23.122  1.00  0.00     0.018 C 
ATOM     98  H   UNL A   1      32.043  24.022  23.938  1.00  0.00     0.049 H 
ATOM     99  H   UNL A   1      31.427  22.829  22.820  1.00  0.00     0.049 H 
BRANCH  97 100
ATOM    100  N   UNL A   1      32.783  24.183  21.994  1.00  0.00    -0.352 N 
ATOM    101  C   UNL A   1      33.098  25.606  22.188  1.00  0.00     0.253 C 
ATOM    102  H   UNL A   1      32.900  23.770  21.108  1.00  0.00     0.163 HD
ATOM    103  O   UNL A   1      33.520  26.303  21.213  1.00  0.00    -0.269 OA
BRANCH 101 104
ATOM    104  C   UNL A   1      32.918  26.243  23.556  1.00  0.00     0.063 A 
ATOM    105  C   UNL A   1      33.935  26.145  24.491  1.00  0.00    -0.047 A 
ATOM    106  C   UNL A   1      31.788  26.884  23.833  1.00  0.00     0.051 A 
ATOM    107  C   UNL A   1      33.547  26.512  25.802  1.00  0.00    -0.061 A 
ATOM    108  H   UNL A   1      34.889  25.832  24.253  1.00  0.00     0.063 H 
ATOM    109  C   UNL A   1      31.533  27.336  25.106  1.00  0.00    -0.038 A 
ATOM    110  C   UNL A   1      32.471  27.219  26.094  1.00  0.00    -0.060 A 
ATOM    111  H   UNL A   1      34.147  26.205  26.583  1.00  0.00     0.062 H 
ATOM    112  H   UNL A   1      30.622  27.769  25.318  1.00  0.00     0.064 H 
ATOM    113  H   UNL A   1      32.343  27.658  27.018  1.00  0.00     0.062 H 
BRANCH 106 114
ATOM    114  N   UNL A   1      30.801  27.113  22.768  1.00  0.00    -0.355 N 
ATOM    115  H   UNL A   1      30.938  26.719  21.877  1.00  0.00     0.167 HD
BRANCH 114 116
ATOM    116  C   UNL A   1      29.608  27.930  23.034  1.00  0.00     0.040 A 
ATOM    117  C   UNL A   1      28.443  27.303  23.442  1.00  0.00    -0.039 A 
ATOM    118  C   UNL A   1      29.675  29.251  22.919  1.00  0.00    -0.016 A 
ATOM    119  C   UNL A   1      27.303  28.142  23.427  1.00  0.00    -0.059 A 
ATOM    120  H   UNL A   1      28.408  26.312  23.729  1.00  0.00     0.064 H 
ATOM    121  C   UNL A   1      28.545  30.023  23.051  1.00  0.00     0.109 A 
ATOM    122  H   UNL A   1      30.582  29.703  22.727  1.00  0.00     0.066 H 
ATOM    123  C   UNL A   1      27.347  29.462  23.394  1.00  0.00    -0.039 A 
ATOM    124  H   UNL A   1      26.375  27.692  23.443  1.00  0.00     0.062 H 
ATOM    125  H   UNL A   1      26.520  30.037  23.616  1.00  0.00     0.064 H 
BRANCH 121 126
ATOM    126  S   UNL A   1      28.645  31.808  22.768  1.00  0.00     0.310 S 
ATOM    127  F   UNL A   1      27.224  32.065  23.423  1.00  0.00    -0.094 F 
ATOM    128  F   UNL A   1      27.902  31.629  21.391  1.00  0.00    -0.094 F 
ATOM    129  F   UNL A   1      28.752  33.343  22.543  1.00  0.00    -0.094 F 
ATOM    130  F   UNL A   1      29.262  31.984  24.211  1.00  0.00    -0.094 F 
ATOM    131  F   UNL A   1      28.443  30.268  23.060  1.00  0.00    -0.094 F 
ENDBRANCH 121 126
ENDBRANCH 114 116
ENDBRANCH 106 114
ENDBRANCH 101 104
ENDBRANCH  97 100
ENDBRANCH  94  97
ENDBRANCH   1  94
TORSDOF 16
ENDMDL
MODEL 6
REMARK VINA RESULT:     -13.0      6.260     11.406
REMARK SMILES O=C(NCCCCCCNC(=O)c1ccccc1Nc1cccc(S(F)(F)(F)(F)F)c1)c1ccc(-c2c3nc(c(-c4c(F)c(F)c(F)c(F)c4F)c4ccc([nH]4)c(-c4c(F)c(F)c(F)c(F)c4F)c4nc(c(-c5c(F)c(F)c(F)c(F)c5F)c5ccc2[nH]5)C=C4)C=C3)cc1
REMARK SMILES IDX 7 1 6 4 5 7 4 10 3 13 1 14 2 15 32 17 33 18 94 19 34 20
REMARK SMILES IDX 93 22 35 24 36 27 37 28 87 29 38 30 92 31 86 32 88 33 39 34
REMARK SMILES IDX 91 35 85 37 84 39 40 41 72 44 52 45 71 46 53 47 56 48 70 49
REMARK SMILES IDX 89 50 54 51 55 53 69 55 90 56 57 59 41 61 42 62 50 63 43 64
REMARK SMILES IDX 44 65 48 66 51 67 45 68 46 69 49 70 47 71 73 72 74 73 82 74
REMARK SMILES IDX 75 75 76 76 80 77 83 78 77 79 78 80 81 81 79 82 58 83 59 84
REMARK SMILES IDX 67 85 60 86 61 87 65 88 68 89 62 90 63 91 66 92 64 93 8 94
REMARK SMILES IDX 9 97 10 100 11 101 12 103 13 104 14 105 18 106 15 107 17 109
REMARK SMILES IDX 16 110 19 114 20 116 21 117 31 118 22 119 24 121 23 123
REMARK SMILES IDX 25 126 26 127 27 128 28 129 29 130 30 131
REMARK H PARENT 7 2 7 3 6 5 6 6 5 8 5 9 4 11 4 12 3 16 33 21 94 23 34 25 93 26
REMARK H PARENT 92 36 86 38 88 40 91 42 85 43 53 52 56 54 89 57 54 58 90 60
REMARK H PARENT 8 95 8 96 9 98 9 99 10 102 14 108 15 111 17 112 16 113 19 115
REMARK H PARENT 21 120 31 122 22 124 23 125
REMARK Flexibility Score: inf
ROOT
ATOM      1  C   UNL A   1      38.004  22.042  25.480  1.00  0.00    -0.052 C 
ATOM      2  H   UNL A   1      38.620  22.684  24.886  1.00  0.00     0.027 H 
ATOM      3  H   UNL A   1      38.584  21.631  26.279  1.00  0.00     0.027 H 
ENDROOT
BRANCH   1   4
ATOM      4  C   UNL A   1      37.465  20.915  24.614  1.00  0.00    -0.052 C 
ATOM      5  H   UNL A   1      36.413  20.810  24.778  1.00  0.00     0.027 H 
ATOM      6  H   UNL A   1      37.644  21.140  23.583  1.00  0.00     0.027 H 
BRANCH   4   7
ATOM      7  C   UNL A   1      38.167  19.616  24.977  1.00  0.00    -0.036 C 
ATOM      8  H   UNL A   1      37.493  18.986  25.518  1.00  0.00     0.028 H 
ATOM      9  H   UNL A   1      38.482  19.119  24.084  1.00  0.00     0.028 H 
BRANCH   7  10
ATOM     10  C   UNL A   1      39.379  19.921  25.842  1.00  0.00     0.018 C 
ATOM     11  H   UNL A   1      39.837  20.829  25.508  1.00  0.00     0.049 H 
ATOM     12  H   UNL A   1      39.071  20.032  26.861  1.00  0.00     0.049 H 
BRANCH  10  13
ATOM     13  N   UNL A   1      40.345  18.818  25.740  1.00  0.00    -0.352 N 
ATOM     14  O   UNL A   1      42.591  18.088  25.994  1.00  0.00    -0.269 OA
ATOM     15  C   UNL A   1      41.756  19.042  26.083  1.00  0.00     0.251 C 
ATOM     16  H   UNL A   1      40.046  17.928  25.441  1.00  0.00     0.163 HD
BRANCH  15  17
ATOM     17  C   UNL A   1      42.217  20.415  26.545  1.00  0.00     0.039 A 
ATOM     18  C   UNL A   1      42.687  21.244  25.539  1.00  0.00    -0.049 A 
ATOM     19  C   UNL A   1      42.102  20.846  27.796  1.00  0.00    -0.049 A 
ATOM     20  C   UNL A   1      43.287  22.435  26.013  1.00  0.00    -0.053 A 
ATOM     21  H   UNL A   1      42.606  21.015  24.536  1.00  0.00     0.063 H 
ATOM     22  C   UNL A   1      42.590  22.078  28.158  1.00  0.00    -0.053 A 
ATOM     23  H   UNL A   1      41.641  20.250  28.501  1.00  0.00     0.063 H 
ATOM     24  C   UNL A   1      43.122  22.926  27.227  1.00  0.00    -0.014 A 
ATOM     25  H   UNL A   1      43.897  22.957  25.363  1.00  0.00     0.063 H 
ATOM     26  H   UNL A   1      42.555  22.368  29.148  1.00  0.00     0.063 H 
BRANCH  24  27
ATOM     27  C   UNL A   1      43.503  24.356  27.571  1.00  0.00     0.031 A 
ATOM     28  C   UNL A   1      42.537  25.317  27.877  1.00  0.00     0.074 A 
ATOM     29  C   UNL A   1      44.855  24.629  27.454  1.00  0.00     0.049 A 
ATOM     30  N   UNL A   1      42.731  26.611  28.139  1.00  0.00    -0.248 NA
ATOM     31  C   UNL A   1      41.097  25.037  27.968  1.00  0.00    -0.034 C 
ATOM     32  C   UNL A   1      45.836  23.665  27.154  1.00  0.00    -0.036 A 
ATOM     33  N   UNL A   1      45.489  25.843  27.602  1.00  0.00    -0.354 N 
ATOM     34  C   UNL A   1      41.567  27.206  28.408  1.00  0.00     0.074 A 
ATOM     35  C   UNL A   1      40.499  26.204  28.296  1.00  0.00    -0.034 C 
ATOM     36  H   UNL A   1      40.634  24.129  27.812  1.00  0.00     0.065 H 
ATOM     37  C   UNL A   1      47.043  24.290  27.108  1.00  0.00    -0.036 A 
ATOM     38  H   UNL A   1      45.670  22.658  26.995  1.00  0.00     0.065 H 
ATOM     39  C   UNL A   1      46.836  25.655  27.381  1.00  0.00     0.049 A 
ATOM     40  H   UNL A   1      45.055  26.698  27.825  1.00  0.00     0.167 HD
ATOM     41  C   UNL A   1      41.355  28.544  28.743  1.00  0.00     0.037 A 
ATOM     42  H   UNL A   1      39.489  26.360  28.438  1.00  0.00     0.065 H 
ATOM     43  H   UNL A   1      47.951  23.841  26.909  1.00  0.00     0.065 H 
ATOM     44  C   UNL A   1      47.841  26.608  27.409  1.00  0.00     0.037 A 
ATOM     45  C   UNL A   1      42.367  29.488  28.814  1.00  0.00     0.049 A 
ATOM     46  C   UNL A   1      47.622  27.959  27.688  1.00  0.00     0.074 A 
ATOM     47  C   UNL A   1      42.171  30.839  29.158  1.00  0.00    -0.036 A 
ATOM     48  N   UNL A   1      43.710  29.305  28.569  1.00  0.00    -0.354 N 
ATOM     49  N   UNL A   1      46.464  28.545  27.996  1.00  0.00    -0.248 NA
ATOM     50  C   UNL A   1      48.675  28.983  27.689  1.00  0.00    -0.034 C 
ATOM     51  C   UNL A   1      43.378  31.465  29.114  1.00  0.00    -0.036 A 
ATOM     52  H   UNL A   1      41.269  31.278  29.403  1.00  0.00     0.065 H 
ATOM     53  C   UNL A   1      44.347  30.514  28.739  1.00  0.00     0.049 A 
ATOM     54  H   UNL A   1      44.140  28.456  28.317  1.00  0.00     0.167 HD
ATOM     55  C   UNL A   1      46.652  29.848  28.216  1.00  0.00     0.074 A 
ATOM     56  C   UNL A   1      48.076  30.150  28.015  1.00  0.00    -0.034 C 
ATOM     57  H   UNL A   1      49.676  28.839  27.483  1.00  0.00     0.065 H 
ATOM     58  H   UNL A   1      43.552  32.462  29.317  1.00  0.00     0.065 H 
ATOM     59  C   UNL A   1      45.694  30.796  28.580  1.00  0.00     0.037 A 
ATOM     60  H   UNL A   1      48.530  31.072  28.105  1.00  0.00     0.065 H 
BRANCH  41  61
ATOM     61  C   UNL A   1      39.934  28.990  29.048  1.00  0.00     0.064 A 
ATOM     62  C   UNL A   1      39.055  29.420  28.068  1.00  0.00     0.173 A 
ATOM     63  C   UNL A   1      39.532  28.800  30.300  1.00  0.00     0.173 A 
ATOM     64  F   UNL A   1      39.339  29.381  26.770  1.00  0.00    -0.203 F 
ATOM     65  C   UNL A   1      37.826  29.906  28.574  1.00  0.00     0.198 A 
ATOM     66  C   UNL A   1      38.269  29.175  30.693  1.00  0.00     0.198 A 
ATOM     67  F   UNL A   1      40.359  28.245  31.180  1.00  0.00    -0.203 F 
ATOM     68  F   UNL A   1      37.080  30.660  27.771  1.00  0.00    -0.200 F 
ATOM     69  C   UNL A   1      37.368  29.664  29.789  1.00  0.00     0.200 A 
ATOM     70  F   UNL A   1      37.920  29.059  31.971  1.00  0.00    -0.200 F 
ATOM     71  F   UNL A   1      36.097  29.884  30.115  1.00  0.00    -0.200 F 
ENDBRANCH  41  61
BRANCH  44  72
ATOM     72  C   UNL A   1      49.264  26.158  27.121  1.00  0.00     0.064 A 
ATOM     73  C   UNL A   1      50.113  25.786  28.151  1.00  0.00     0.173 A 
ATOM     74  C   UNL A   1      49.709  26.292  25.877  1.00  0.00     0.173 A 
ATOM     75  F   UNL A   1      49.676  25.396  29.345  1.00  0.00    -0.203 F 
ATOM     76  C   UNL A   1      51.486  25.857  27.817  1.00  0.00     0.198 A 
ATOM     77  C   UNL A   1      51.054  26.215  25.603  1.00  0.00     0.198 A 
ATOM     78  F   UNL A   1      48.846  26.502  24.888  1.00  0.00    -0.203 F 
ATOM     79  F   UNL A   1      52.365  25.874  28.815  1.00  0.00    -0.200 F 
ATOM     80  C   UNL A   1      51.955  25.911  26.584  1.00  0.00     0.200 A 
ATOM     81  F   UNL A   1      51.483  26.442  24.365  1.00  0.00    -0.200 F 
ATOM     82  F   UNL A   1      53.236  25.678  26.311  1.00  0.00    -0.200 F 
ENDBRANCH  44  72
BRANCH  59  83
ATOM     83  C   UNL A   1      46.158  32.224  28.817  1.00  0.00     0.064 A 
ATOM     84  C   UNL A   1      46.134  33.037  27.695  1.00  0.00     0.173 A 
ATOM     85  C   UNL A   1      46.492  32.704  30.009  1.00  0.00     0.173 A 
ATOM     86  F   UNL A   1      45.572  32.673  26.547  1.00  0.00    -0.203 F 
ATOM     87  C   UNL A   1      46.763  34.291  27.883  1.00  0.00     0.198 A 
ATOM     88  C   UNL A   1      46.971  33.986  30.138  1.00  0.00     0.198 A 
ATOM     89  F   UNL A   1      46.360  31.938  31.088  1.00  0.00    -0.203 F 
ATOM     90  F   UNL A   1      47.107  34.979  26.799  1.00  0.00    -0.200 F 
ATOM     91  C   UNL A   1      47.030  34.826  29.060  1.00  0.00     0.200 A 
ATOM     92  F   UNL A   1      47.383  34.415  31.328  1.00  0.00    -0.200 F 
ATOM     93  F   UNL A   1      47.342  36.112  29.192  1.00  0.00    -0.200 F 
ENDBRANCH  59  83
ENDBRANCH  24  27
ENDBRANCH  15  17
ENDBRANCH  10  13
ENDBRANCH   7  10
ENDBRANCH   4   7
ENDBRANCH   1   4
BRANCH   1  94
ATOM     94  C   UNL A   1      36.844  22.840  26.053  1.00  0.00    -0.036 C 
ATOM     95  H   UNL A   1      36.762  23.773  25.534  1.00  0.00     0.028 H 
ATOM     96  H   UNL A   1      37.017  23.024  27.093  1.00  0.00     0.028 H 
BRANCH  94  97
ATOM     97  C   UNL A   1      35.555  22.052  25.884  1.00  0.00     0.018 C 
ATOM     98  H   UNL A   1      35.779  21.074  25.513  1.00  0.00     0.049 H 
ATOM     99  H   UNL A   1      34.915  22.559  25.192  1.00  0.00     0.049 H 
BRANCH  97 100
ATOM    100  N   UNL A   1      34.877  21.939  27.185  1.00  0.00    -0.352 N 
ATOM    101  C   UNL A   1      33.532  22.502  27.364  1.00  0.00     0.253 C 
ATOM    102  H   UNL A   1      35.325  21.486  27.935  1.00  0.00     0.163 HD
ATOM    103  O   UNL A   1      32.946  22.404  28.488  1.00  0.00    -0.269 OA
BRANCH 101 104
ATOM    104  C   UNL A   1      32.840  23.201  26.205  1.00  0.00     0.063 A 
ATOM    105  C   UNL A   1      33.152  24.522  25.925  1.00  0.00    -0.047 A 
ATOM    106  C   UNL A   1      31.949  22.535  25.480  1.00  0.00     0.051 A 
ATOM    107  C   UNL A   1      32.250  25.147  25.030  1.00  0.00    -0.061 A 
ATOM    108  H   UNL A   1      33.967  25.006  26.332  1.00  0.00     0.063 H 
ATOM    109  C   UNL A   1      31.198  23.182  24.528  1.00  0.00    -0.038 A 
ATOM    110  C   UNL A   1      31.411  24.502  24.240  1.00  0.00    -0.060 A 
ATOM    111  H   UNL A   1      32.248  26.178  24.994  1.00  0.00     0.062 H 
ATOM    112  H   UNL A   1      30.462  22.664  24.023  1.00  0.00     0.064 H 
ATOM    113  H   UNL A   1      30.942  24.968  23.449  1.00  0.00     0.062 H 
BRANCH 106 114
ATOM    114  N   UNL A   1      31.765  21.094  25.697  1.00  0.00    -0.355 N 
ATOM    115  H   UNL A   1      31.304  20.772  26.505  1.00  0.00     0.167 HD
BRANCH 114 116
ATOM    116  C   UNL A   1      32.269  20.131  24.707  1.00  0.00     0.040 A 
ATOM    117  C   UNL A   1      32.030  20.363  23.363  1.00  0.00    -0.039 A 
ATOM    118  C   UNL A   1      32.974  19.080  25.109  1.00  0.00    -0.016 A 
ATOM    119  C   UNL A   1      32.334  19.262  22.527  1.00  0.00    -0.059 A 
ATOM    120  H   UNL A   1      31.661  21.257  23.003  1.00  0.00     0.064 H 
ATOM    121  C   UNL A   1      33.356  18.109  24.214  1.00  0.00     0.109 A 
ATOM    122  H   UNL A   1      33.238  18.991  26.103  1.00  0.00     0.066 H 
ATOM    123  C   UNL A   1      33.100  18.245  22.879  1.00  0.00    -0.039 A 
ATOM    124  H   UNL A   1      31.930  19.253  21.578  1.00  0.00     0.062 H 
ATOM    125  H   UNL A   1      33.484  17.588  22.181  1.00  0.00     0.064 H 
BRANCH 121 126
ATOM    126  S   UNL A   1      34.211  16.630  24.813  1.00  0.00     0.310 S 
ATOM    127  F   UNL A   1      34.494  16.110  23.342  1.00  0.00    -0.094 F 
ATOM    128  F   UNL A   1      32.856  15.828  24.761  1.00  0.00    -0.094 F 
ATOM    129  F   UNL A   1      34.966  15.375  25.336  1.00  0.00    -0.094 F 
ATOM    130  F   UNL A   1      35.583  17.408  24.723  1.00  0.00    -0.094 F 
ATOM    131  F   UNL A   1      33.480  17.877  24.175  1.00  0.00    -0.094 F 
ENDBRANCH 121 126
ENDBRANCH 114 116
ENDBRANCH 106 114
ENDBRANCH 101 104
ENDBRANCH  97 100
ENDBRANCH  94  97
ENDBRANCH   1  94
TORSDOF 16
ENDMDL
MODEL 7
REMARK VINA RESULT:     -13.0      2.953      3.967
REMARK SMILES O=C(NCCCCCCNC(=O)c1ccccc1Nc1cccc(S(F)(F)(F)(F)F)c1)c1ccc(-c2c3nc(c(-c4c(F)c(F)c(F)c(F)c4F)c4ccc([nH]4)c(-c4c(F)c(F)c(F)c(F)c4F)c4nc(c(-c5c(F)c(F)c(F)c(F)c5F)c5ccc2[nH]5)C=C4)C=C3)cc1
REMARK SMILES IDX 7 1 6 4 5 7 4 10 3 13 1 14 2 15 32 17 33 18 94 19 34 20
REMARK SMILES IDX 93 22 35 24 36 27 37 28 87 29 38 30 92 31 86 32 88 33 39 34
REMARK SMILES IDX 91 35 85 37 84 39 40 41 72 44 52 45 71 46 53 47 56 48 70 49
REMARK SMILES IDX 89 50 54 51 55 53 69 55 90 56 57 59 41 61 42 62 50 63 43 64
REMARK SMILES IDX 44 65 48 66 51 67 45 68 46 69 49 70 47 71 73 72 74 73 82 74
REMARK SMILES IDX 75 75 76 76 80 77 83 78 77 79 78 80 81 81 79 82 58 83 59 84
REMARK SMILES IDX 67 85 60 86 61 87 65 88 68 89 62 90 63 91 66 92 64 93 8 94
REMARK SMILES IDX 9 97 10 100 11 101 12 103 13 104 14 105 18 106 15 107 17 109
REMARK SMILES IDX 16 110 19 114 20 116 21 117 31 118 22 119 24 121 23 123
REMARK SMILES IDX 25 126 26 127 27 128 28 129 29 130 30 131
REMARK H PARENT 7 2 7 3 6 5 6 6 5 8 5 9 4 11 4 12 3 16 33 21 94 23 34 25 93 26
REMARK H PARENT 92 36 86 38 88 40 91 42 85 43 53 52 56 54 89 57 54 58 90 60
REMARK H PARENT 8 95 8 96 9 98 9 99 10 102 14 108 15 111 17 112 16 113 19 115
REMARK H PARENT 21 120 31 122 22 124 23 125
REMARK Flexibility Score: inf
ROOT
ATOM      1  C   UNL A   1      33.748  30.240  27.266  1.00  0.00    -0.052 C 
ATOM      2  H   UNL A   1      33.879  30.364  28.320  1.00  0.00     0.027 H 
ATOM      3  H   UNL A   1      34.161  31.083  26.753  1.00  0.00     0.027 H 
ENDROOT
BRANCH   1   4
ATOM      4  C   UNL A   1      32.264  30.133  26.951  1.00  0.00    -0.052 C 
ATOM      5  H   UNL A   1      32.133  29.615  26.024  1.00  0.00     0.027 H 
ATOM      6  H   UNL A   1      31.771  29.596  27.734  1.00  0.00     0.027 H 
BRANCH   4   7
ATOM      7  C   UNL A   1      31.668  31.527  26.841  1.00  0.00    -0.036 C 
ATOM      8  H   UNL A   1      31.103  31.603  25.935  1.00  0.00     0.028 H 
ATOM      9  H   UNL A   1      31.026  31.708  27.678  1.00  0.00     0.028 H 
BRANCH   7  10
ATOM     10  C   UNL A   1      32.786  32.557  26.827  1.00  0.00     0.018 C 
ATOM     11  H   UNL A   1      33.602  32.205  27.425  1.00  0.00     0.049 H 
ATOM     12  H   UNL A   1      33.120  32.707  25.822  1.00  0.00     0.049 H 
BRANCH  10  13
ATOM     13  N   UNL A   1      32.289  33.827  27.374  1.00  0.00    -0.352 N 
ATOM     14  O   UNL A   1      32.586  35.590  28.939  1.00  0.00    -0.269 OA
ATOM     15  C   UNL A   1      33.015  34.491  28.467  1.00  0.00     0.251 C 
ATOM     16  H   UNL A   1      31.471  34.234  27.008  1.00  0.00     0.163 HD
BRANCH  15  17
ATOM     17  C   UNL A   1      34.279  33.864  29.030  1.00  0.00     0.039 A 
ATOM     18  C   UNL A   1      34.073  32.774  29.860  1.00  0.00    -0.049 A 
ATOM     19  C   UNL A   1      35.505  34.253  28.695  1.00  0.00    -0.049 A 
ATOM     20  C   UNL A   1      35.242  32.329  30.523  1.00  0.00    -0.053 A 
ATOM     21  H   UNL A   1      33.152  32.326  29.982  1.00  0.00     0.063 H 
ATOM     22  C   UNL A   1      36.605  33.680  29.285  1.00  0.00    -0.053 A 
ATOM     23  H   UNL A   1      35.630  34.991  27.986  1.00  0.00     0.063 H 
ATOM     24  C   UNL A   1      36.473  32.637  30.160  1.00  0.00    -0.014 A 
ATOM     25  H   UNL A   1      35.123  31.722  31.349  1.00  0.00     0.063 H 
ATOM     26  H   UNL A   1      37.546  34.042  29.065  1.00  0.00     0.063 H 
BRANCH  24  27
ATOM     27  C   UNL A   1      37.677  31.874  30.685  1.00  0.00     0.031 A 
ATOM     28  C   UNL A   1      38.327  30.910  29.911  1.00  0.00     0.074 A 
ATOM     29  C   UNL A   1      37.994  32.148  32.004  1.00  0.00     0.049 A 
ATOM     30  N   UNL A   1      39.351  30.134  30.269  1.00  0.00    -0.248 NA
ATOM     31  C   UNL A   1      37.970  30.593  28.521  1.00  0.00    -0.034 C 
ATOM     32  C   UNL A   1      37.349  33.124  32.789  1.00  0.00    -0.036 A 
ATOM     33  N   UNL A   1      38.960  31.551  32.784  1.00  0.00    -0.354 N 
ATOM     34  C   UNL A   1      39.714  29.351  29.251  1.00  0.00     0.074 A 
ATOM     35  C   UNL A   1      38.827  29.631  28.114  1.00  0.00    -0.034 C 
ATOM     36  H   UNL A   1      37.214  31.021  27.964  1.00  0.00     0.065 H 
ATOM     37  C   UNL A   1      37.909  33.107  34.027  1.00  0.00    -0.036 A 
ATOM     38  H   UNL A   1      36.584  33.744  32.479  1.00  0.00     0.065 H 
ATOM     39  C   UNL A   1      38.915  32.122  34.037  1.00  0.00     0.049 A 
ATOM     40  H   UNL A   1      39.576  30.840  32.496  1.00  0.00     0.167 HD
ATOM     41  C   UNL A   1      40.750  28.417  29.226  1.00  0.00     0.037 A 
ATOM     42  H   UNL A   1      38.853  29.180  27.186  1.00  0.00     0.065 H 
ATOM     43  H   UNL A   1      37.644  33.712  34.821  1.00  0.00     0.065 H 
ATOM     44  C   UNL A   1      39.696  31.812  35.139  1.00  0.00     0.037 A 
ATOM     45  C   UNL A   1      41.560  28.138  30.316  1.00  0.00     0.049 A 
ATOM     46  C   UNL A   1      40.695  30.836  35.132  1.00  0.00     0.074 A 
ATOM     47  C   UNL A   1      42.614  27.205  30.305  1.00  0.00    -0.036 A 
ATOM     48  N   UNL A   1      41.498  28.691  31.575  1.00  0.00    -0.354 N 
ATOM     49  N   UNL A   1      41.083  30.082  34.102  1.00  0.00    -0.248 NA
ATOM     50  C   UNL A   1      41.506  30.478  36.302  1.00  0.00    -0.034 C 
ATOM     51  C   UNL A   1      43.175  27.188  31.544  1.00  0.00    -0.036 A 
ATOM     52  H   UNL A   1      42.909  26.633  29.498  1.00  0.00     0.065 H 
ATOM     53  C   UNL A   1      42.479  28.110  32.349  1.00  0.00     0.049 A 
ATOM     54  H   UNL A   1      40.863  29.382  31.872  1.00  0.00     0.167 HD
ATOM     55  C   UNL A   1      42.080  29.275  34.474  1.00  0.00     0.074 A 
ATOM     56  C   UNL A   1      42.362  29.514  35.895  1.00  0.00    -0.034 C 
ATOM     57  H   UNL A   1      41.438  30.883  37.249  1.00  0.00     0.065 H 
ATOM     58  H   UNL A   1      43.971  26.601  31.842  1.00  0.00     0.065 H 
ATOM     59  C   UNL A   1      42.768  28.354  33.682  1.00  0.00     0.037 A 
ATOM     60  H   UNL A   1      43.074  29.038  36.472  1.00  0.00     0.065 H 
BRANCH  41  61
ATOM     61  C   UNL A   1      41.004  27.663  27.931  1.00  0.00     0.064 A 
ATOM     62  C   UNL A   1      41.905  28.097  26.973  1.00  0.00     0.173 A 
ATOM     63  C   UNL A   1      40.418  26.474  27.838  1.00  0.00     0.173 A 
ATOM     64  F   UNL A   1      42.699  29.149  27.147  1.00  0.00    -0.203 F 
ATOM     65  C   UNL A   1      41.902  27.319  25.790  1.00  0.00     0.198 A 
ATOM     66  C   UNL A   1      40.569  25.707  26.708  1.00  0.00     0.198 A 
ATOM     67  F   UNL A   1      39.678  26.025  28.846  1.00  0.00    -0.203 F 
ATOM     68  F   UNL A   1      42.447  27.850  24.699  1.00  0.00    -0.200 F 
ATOM     69  C   UNL A   1      41.397  26.103  25.695  1.00  0.00     0.200 A 
ATOM     70  F   UNL A   1      39.900  24.563  26.599  1.00  0.00    -0.200 F 
ATOM     71  F   UNL A   1      41.678  25.306  24.668  1.00  0.00    -0.200 F 
ENDBRANCH  41  61
BRANCH  44  72
ATOM     72  C   UNL A   1      39.452  32.579  36.428  1.00  0.00     0.064 A 
ATOM     73  C   UNL A   1      38.411  32.231  37.274  1.00  0.00     0.173 A 
ATOM     74  C   UNL A   1      40.163  33.683  36.629  1.00  0.00     0.173 A 
ATOM     75  F   UNL A   1      37.844  31.029  37.269  1.00  0.00    -0.203 F 
ATOM     76  C   UNL A   1      38.008  33.271  38.144  1.00  0.00     0.198 A 
ATOM     77  C   UNL A   1      39.787  34.592  37.590  1.00  0.00     0.198 A 
ATOM     78  F   UNL A   1      41.246  33.911  35.893  1.00  0.00    -0.203 F 
ATOM     79  F   UNL A   1      36.815  33.166  38.723  1.00  0.00    -0.200 F 
ATOM     80  C   UNL A   1      38.732  34.341  38.421  1.00  0.00     0.200 A 
ATOM     81  F   UNL A   1      40.461  35.732  37.710  1.00  0.00    -0.200 F 
ATOM     82  F   UNL A   1      38.451  35.129  39.454  1.00  0.00    -0.200 F 
ENDBRANCH  44  72
BRANCH  59  83
ATOM     83  C   UNL A   1      43.903  27.572  34.322  1.00  0.00     0.064 A 
ATOM     84  C   UNL A   1      45.139  28.196  34.275  1.00  0.00     0.173 A 
ATOM     85  C   UNL A   1      43.740  26.415  34.953  1.00  0.00     0.173 A 
ATOM     86  F   UNL A   1      45.300  29.456  33.883  1.00  0.00    -0.203 F 
ATOM     87  C   UNL A   1      46.214  27.371  34.682  1.00  0.00     0.198 A 
ATOM     88  C   UNL A   1      44.823  25.727  35.446  1.00  0.00     0.198 A 
ATOM     89  F   UNL A   1      42.516  25.918  35.110  1.00  0.00    -0.203 F 
ATOM     90  F   UNL A   1      47.443  27.742  34.337  1.00  0.00    -0.200 F 
ATOM     91  C   UNL A   1      46.081  26.259  35.380  1.00  0.00     0.200 A 
ATOM     92  F   UNL A   1      44.644  24.529  35.994  1.00  0.00    -0.200 F 
ATOM     93  F   UNL A   1      47.116  25.684  35.988  1.00  0.00    -0.200 F 
ENDBRANCH  59  83
ENDBRANCH  24  27
ENDBRANCH  15  17
ENDBRANCH  10  13
ENDBRANCH   7  10
ENDBRANCH   4   7
ENDBRANCH   1   4
BRANCH   1  94
ATOM     94  C   UNL A   1      34.455  28.974  26.812  1.00  0.00    -0.036 C 
ATOM     95  H   UNL A   1      34.542  28.298  27.638  1.00  0.00     0.028 H 
ATOM     96  H   UNL A   1      35.431  29.220  26.449  1.00  0.00     0.028 H 
BRANCH  94  97
ATOM     97  C   UNL A   1      33.652  28.315  25.702  1.00  0.00     0.018 C 
ATOM     98  H   UNL A   1      32.678  28.756  25.655  1.00  0.00     0.049 H 
ATOM     99  H   UNL A   1      33.560  27.267  25.902  1.00  0.00     0.049 H 
BRANCH  97 100
ATOM    100  N   UNL A   1      34.341  28.510  24.418  1.00  0.00    -0.352 N 
ATOM    101  C   UNL A   1      33.599  28.371  23.157  1.00  0.00     0.253 C 
ATOM    102  H   UNL A   1      35.299  28.735  24.403  1.00  0.00     0.163 HD
ATOM    103  O   UNL A   1      34.195  28.540  22.047  1.00  0.00    -0.269 OA
BRANCH 101 104
ATOM    104  C   UNL A   1      32.119  28.024  23.181  1.00  0.00     0.063 A 
ATOM    105  C   UNL A   1      31.184  29.045  23.234  1.00  0.00    -0.047 A 
ATOM    106  C   UNL A   1      31.748  26.750  23.150  1.00  0.00     0.051 A 
ATOM    107  C   UNL A   1      29.874  28.606  23.544  1.00  0.00    -0.061 A 
ATOM    108  H   UNL A   1      31.420  30.034  23.062  1.00  0.00     0.063 H 
ATOM    109  C   UNL A   1      30.430  26.400  23.326  1.00  0.00    -0.038 A 
ATOM    110  C   UNL A   1      29.459  27.356  23.444  1.00  0.00    -0.060 A 
ATOM    111  H   UNL A   1      29.197  29.312  23.872  1.00  0.00     0.062 H 
ATOM    112  H   UNL A   1      30.170  25.403  23.369  1.00  0.00     0.064 H 
ATOM    113  H   UNL A   1      28.457  27.114  23.454  1.00  0.00     0.062 H 
BRANCH 106 114
ATOM    114  N   UNL A   1      32.755  25.703  22.927  1.00  0.00    -0.355 N 
ATOM    115  H   UNL A   1      33.072  25.511  22.015  1.00  0.00     0.167 HD
BRANCH 114 116
ATOM    116  C   UNL A   1      33.291  24.943  24.066  1.00  0.00     0.040 A 
ATOM    117  C   UNL A   1      32.598  24.953  25.264  1.00  0.00    -0.039 A 
ATOM    118  C   UNL A   1      34.403  24.232  23.919  1.00  0.00    -0.016 A 
ATOM    119  C   UNL A   1      33.322  24.404  26.350  1.00  0.00    -0.059 A 
ATOM    120  H   UNL A   1      31.641  25.328  25.358  1.00  0.00     0.064 H 
ATOM    121  C   UNL A   1      34.983  23.608  24.998  1.00  0.00     0.109 A 
ATOM    122  H   UNL A   1      34.836  24.148  22.986  1.00  0.00     0.066 H 
ATOM    123  C   UNL A   1      34.383  23.628  26.226  1.00  0.00    -0.039 A 
ATOM    124  H   UNL A   1      32.998  24.626  27.304  1.00  0.00     0.062 H 
ATOM    125  H   UNL A   1      34.739  23.065  27.015  1.00  0.00     0.064 H 
BRANCH 121 126
ATOM    126  S   UNL A   1      36.562  22.749  24.790  1.00  0.00     0.310 S 
ATOM    127  F   UNL A   1      36.739  23.282  23.307  1.00  0.00    -0.094 F 
ATOM    128  F   UNL A   1      35.805  21.509  24.181  1.00  0.00    -0.094 F 
ATOM    129  F   UNL A   1      37.930  22.028  24.629  1.00  0.00    -0.094 F 
ATOM    130  F   UNL A   1      37.314  24.052  25.270  1.00  0.00    -0.094 F 
ATOM    131  F   UNL A   1      35.192  23.535  24.853  1.00  0.00    -0.094 F 
ENDBRANCH 121 126
ENDBRANCH 114 116
ENDBRANCH 106 114
ENDBRANCH 101 104
ENDBRANCH  97 100
ENDBRANCH  94  97
ENDBRANCH   1  94
TORSDOF 16
ENDMDL
MODEL 8
REMARK VINA RESULT:     -13.0      4.260      8.768
REMARK SMILES O=C(NCCCCCCNC(=O)c1ccccc1Nc1cccc(S(F)(F)(F)(F)F)c1)c1ccc(-c2c3nc(c(-c4c(F)c(F)c(F)c(F)c4F)c4ccc([nH]4)c(-c4c(F)c(F)c(F)c(F)c4F)c4nc(c(-c5c(F)c(F)c(F)c(F)c5F)c5ccc2[nH]5)C=C4)C=C3)cc1
REMARK SMILES IDX 7 1 6 4 5 7 4 10 3 13 1 14 2 15 32 17 33 18 94 19 34 20
REMARK SMILES IDX 93 22 35 24 36 27 37 28 87 29 38 30 92 31 86 32 88 33 39 34
REMARK SMILES IDX 91 35 85 37 84 39 40 41 72 44 52 45 71 46 53 47 56 48 70 49
REMARK SMILES IDX 89 50 54 51 55 53 69 55 90 56 57 59 41 61 42 62 50 63 43 64
REMARK SMILES IDX 44 65 48 66 51 67 45 68 46 69 49 70 47 71 73 72 74 73 82 74
REMARK SMILES IDX 75 75 76 76 80 77 83 78 77 79 78 80 81 81 79 82 58 83 59 84
REMARK SMILES IDX 67 85 60 86 61 87 65 88 68 89 62 90 63 91 66 92 64 93 8 94
REMARK SMILES IDX 9 97 10 100 11 101 12 103 13 104 14 105 18 106 15 107 17 109
REMARK SMILES IDX 16 110 19 114 20 116 21 117 31 118 22 119 24 121 23 123
REMARK SMILES IDX 25 126 26 127 27 128 28 129 29 130 30 131
REMARK H PARENT 7 2 7 3 6 5 6 6 5 8 5 9 4 11 4 12 3 16 33 21 94 23 34 25 93 26
REMARK H PARENT 92 36 86 38 88 40 91 42 85 43 53 52 56 54 89 57 54 58 90 60
REMARK H PARENT 8 95 8 96 9 98 9 99 10 102 14 108 15 111 17 112 16 113 19 115
REMARK H PARENT 21 120 31 122 22 124 23 125
REMARK Flexibility Score: inf
ROOT
ATOM      1  C   UNL A   1      33.180  22.713  25.131  1.00  0.00    -0.052 C 
ATOM      2  H   UNL A   1      33.013  23.753  25.319  1.00  0.00     0.027 H 
ATOM      3  H   UNL A   1      32.610  22.130  25.824  1.00  0.00     0.027 H 
ENDROOT
BRANCH   1   4
ATOM      4  C   UNL A   1      34.658  22.399  25.301  1.00  0.00    -0.052 C 
ATOM      5  H   UNL A   1      34.776  21.371  25.573  1.00  0.00     0.027 H 
ATOM      6  H   UNL A   1      35.171  22.586  24.380  1.00  0.00     0.027 H 
BRANCH   4   7
ATOM      7  C   UNL A   1      35.242  23.282  26.392  1.00  0.00    -0.036 C 
ATOM      8  H   UNL A   1      34.588  24.110  26.568  1.00  0.00     0.028 H 
ATOM      9  H   UNL A   1      35.348  22.713  27.292  1.00  0.00     0.028 H 
BRANCH   7  10
ATOM     10  C   UNL A   1      36.603  23.796  25.954  1.00  0.00     0.018 C 
ATOM     11  H   UNL A   1      36.517  24.260  24.993  1.00  0.00     0.049 H 
ATOM     12  H   UNL A   1      36.959  24.513  26.664  1.00  0.00     0.049 H 
BRANCH  10  13
ATOM     13  N   UNL A   1      37.549  22.674  25.873  1.00  0.00    -0.352 N 
ATOM     14  O   UNL A   1      39.734  21.857  26.320  1.00  0.00    -0.269 OA
ATOM     15  C   UNL A   1      38.916  22.827  26.390  1.00  0.00     0.251 C 
ATOM     16  H   UNL A   1      37.266  21.820  25.474  1.00  0.00     0.163 HD
BRANCH  15  17
ATOM     17  C   UNL A   1      39.352  24.145  27.008  1.00  0.00     0.039 A 
ATOM     18  C   UNL A   1      39.934  25.042  26.126  1.00  0.00    -0.049 A 
ATOM     19  C   UNL A   1      39.121  24.475  28.274  1.00  0.00    -0.049 A 
ATOM     20  C   UNL A   1      40.504  26.175  26.754  1.00  0.00    -0.053 A 
ATOM     21  H   UNL A   1      39.948  24.898  25.105  1.00  0.00     0.063 H 
ATOM     22  C   UNL A   1      39.592  25.661  28.784  1.00  0.00    -0.053 A 
ATOM     23  H   UNL A   1      38.583  23.835  28.878  1.00  0.00     0.063 H 
ATOM     24  C   UNL A   1      40.228  26.569  27.984  1.00  0.00    -0.014 A 
ATOM     25  H   UNL A   1      41.183  26.732  26.213  1.00  0.00     0.063 H 
ATOM     26  H   UNL A   1      39.464  25.869  29.787  1.00  0.00     0.063 H 
BRANCH  24  27
ATOM     27  C   UNL A   1      40.597  27.956  28.482  1.00  0.00     0.031 A 
ATOM     28  C   UNL A   1      39.625  28.926  28.732  1.00  0.00     0.074 A 
ATOM     29  C   UNL A   1      41.959  28.187  28.564  1.00  0.00     0.049 A 
ATOM     30  N   UNL A   1      39.815  30.190  29.114  1.00  0.00    -0.248 NA
ATOM     31  C   UNL A   1      38.178  28.693  28.612  1.00  0.00    -0.034 C 
ATOM     32  C   UNL A   1      42.946  27.212  28.321  1.00  0.00    -0.036 A 
ATOM     33  N   UNL A   1      42.599  29.364  28.885  1.00  0.00    -0.354 N 
ATOM     34  C   UNL A   1      38.642  30.806  29.273  1.00  0.00     0.074 A 
ATOM     35  C   UNL A   1      37.572  29.853  28.947  1.00  0.00    -0.034 C 
ATOM     36  H   UNL A   1      37.716  27.815  28.328  1.00  0.00     0.065 H 
ATOM     37  C   UNL A   1      44.164  27.795  28.481  1.00  0.00    -0.036 A 
ATOM     38  H   UNL A   1      42.776  26.227  28.066  1.00  0.00     0.065 H 
ATOM     39  C   UNL A   1      43.958  29.144  28.828  1.00  0.00     0.049 A 
ATOM     40  H   UNL A   1      42.162  30.215  29.114  1.00  0.00     0.167 HD
ATOM     41  C   UNL A   1      38.422  32.123  29.679  1.00  0.00     0.037 A 
ATOM     42  H   UNL A   1      36.557  30.035  28.968  1.00  0.00     0.065 H 
ATOM     43  H   UNL A   1      45.078  27.330  28.368  1.00  0.00     0.065 H 
ATOM     44  C   UNL A   1      44.976  30.056  29.059  1.00  0.00     0.037 A 
ATOM     45  C   UNL A   1      39.441  33.022  29.952  1.00  0.00     0.049 A 
ATOM     46  C   UNL A   1      44.756  31.391  29.409  1.00  0.00     0.074 A 
ATOM     47  C   UNL A   1      39.236  34.351  30.370  1.00  0.00    -0.036 A 
ATOM     48  N   UNL A   1      40.798  32.809  29.872  1.00  0.00    -0.354 N 
ATOM     49  N   UNL A   1      43.584  31.994  29.606  1.00  0.00    -0.248 NA
ATOM     50  C   UNL A   1      45.826  32.373  29.625  1.00  0.00    -0.034 C 
ATOM     51  C   UNL A   1      40.454  34.935  30.530  1.00  0.00    -0.036 A 
ATOM     52  H   UNL A   1      38.321  34.804  30.527  1.00  0.00     0.065 H 
ATOM     53  C   UNL A   1      41.439  33.980  30.214  1.00  0.00     0.049 A 
ATOM     54  H   UNL A   1      41.236  31.966  29.614  1.00  0.00     0.167 HD
ATOM     55  C   UNL A   1      43.775  33.270  29.947  1.00  0.00     0.074 A 
ATOM     56  C   UNL A   1      45.220  33.534  29.957  1.00  0.00    -0.034 C 
ATOM     57  H   UNL A   1      46.842  32.209  29.540  1.00  0.00     0.065 H 
ATOM     58  H   UNL A   1      40.626  35.908  30.830  1.00  0.00     0.065 H 
ATOM     59  C   UNL A   1      42.802  34.224  30.254  1.00  0.00     0.037 A 
ATOM     60  H   UNL A   1      45.682  34.431  30.175  1.00  0.00     0.065 H 
BRANCH  41  61
ATOM     61  C   UNL A   1      36.986  32.597  29.828  1.00  0.00     0.064 A 
ATOM     62  C   UNL A   1      36.311  32.581  31.037  1.00  0.00     0.173 A 
ATOM     63  C   UNL A   1      36.459  33.171  28.753  1.00  0.00     0.173 A 
ATOM     64  F   UNL A   1      36.891  32.250  32.188  1.00  0.00    -0.203 F 
ATOM     65  C   UNL A   1      34.948  32.947  30.938  1.00  0.00     0.198 A 
ATOM     66  C   UNL A   1      35.164  33.630  28.769  1.00  0.00     0.198 A 
ATOM     67  F   UNL A   1      37.191  33.303  27.651  1.00  0.00    -0.203 F 
ATOM     68  F   UNL A   1      34.144  32.621  31.946  1.00  0.00    -0.200 F 
ATOM     69  C   UNL A   1      34.418  33.590  29.914  1.00  0.00     0.200 A 
ATOM     70  F   UNL A   1      34.628  34.119  27.654  1.00  0.00    -0.200 F 
ATOM     71  F   UNL A   1      33.223  34.168  29.992  1.00  0.00    -0.200 F 
ENDBRANCH  41  61
BRANCH  44  72
ATOM     72  C   UNL A   1      46.412  29.577  28.926  1.00  0.00     0.064 A 
ATOM     73  C   UNL A   1      47.054  29.594  27.698  1.00  0.00     0.173 A 
ATOM     74  C   UNL A   1      46.964  28.995  29.984  1.00  0.00     0.173 A 
ATOM     75  F   UNL A   1      46.668  30.370  26.690  1.00  0.00    -0.203 F 
ATOM     76  C   UNL A   1      48.157  28.711  27.616  1.00  0.00     0.198 A 
ATOM     77  C   UNL A   1      48.119  28.259  29.854  1.00  0.00     0.198 A 
ATOM     78  F   UNL A   1      46.397  29.125  31.179  1.00  0.00    -0.203 F 
ATOM     79  F   UNL A   1      48.602  28.390  26.404  1.00  0.00    -0.200 F 
ATOM     80  C   UNL A   1      48.773  28.183  28.657  1.00  0.00     0.200 A 
ATOM     81  F   UNL A   1      48.603  27.611  30.909  1.00  0.00    -0.200 F 
ATOM     82  F   UNL A   1      49.968  27.609  28.547  1.00  0.00    -0.200 F 
ENDBRANCH  44  72
BRANCH  59  83
ATOM     83  C   UNL A   1      43.268  35.613  30.657  1.00  0.00     0.064 A 
ATOM     84  C   UNL A   1      43.397  36.510  29.610  1.00  0.00     0.173 A 
ATOM     85  C   UNL A   1      43.468  35.990  31.915  1.00  0.00     0.173 A 
ATOM     86  F   UNL A   1      42.968  36.254  28.378  1.00  0.00    -0.203 F 
ATOM     87  C   UNL A   1      44.028  37.725  29.969  1.00  0.00     0.198 A 
ATOM     88  C   UNL A   1      43.958  37.241  32.202  1.00  0.00     0.198 A 
ATOM     89  F   UNL A   1      43.190  35.147  32.906  1.00  0.00    -0.203 F 
ATOM     90  F   UNL A   1      44.516  38.482  28.992  1.00  0.00    -0.200 F 
ATOM     91  C   UNL A   1      44.165  38.159  31.209  1.00  0.00     0.200 A 
ATOM     92  F   UNL A   1      44.235  37.564  33.462  1.00  0.00    -0.200 F 
ATOM     93  F   UNL A   1      44.489  39.420  31.479  1.00  0.00    -0.200 F 
ENDBRANCH  59  83
ENDBRANCH  24  27
ENDBRANCH  15  17
ENDBRANCH  10  13
ENDBRANCH   7  10
ENDBRANCH   4   7
ENDBRANCH   1   4
BRANCH   1  94
ATOM     94  C   UNL A   1      32.750  22.377  23.712  1.00  0.00    -0.036 C 
ATOM     95  H   UNL A   1      32.213  21.451  23.711  1.00  0.00     0.028 H 
ATOM     96  H   UNL A   1      33.616  22.288  23.089  1.00  0.00     0.028 H 
BRANCH  94  97
ATOM     97  C   UNL A   1      31.853  23.483  23.180  1.00  0.00     0.018 C 
ATOM     98  H   UNL A   1      31.660  24.192  23.957  1.00  0.00     0.049 H 
ATOM     99  H   UNL A   1      30.929  23.061  22.844  1.00  0.00     0.049 H 
BRANCH  97 100
ATOM    100  N   UNL A   1      32.521  24.157  22.057  1.00  0.00    -0.352 N 
ATOM    101  C   UNL A   1      33.065  25.511  22.230  1.00  0.00     0.253 C 
ATOM    102  H   UNL A   1      32.604  23.700  21.188  1.00  0.00     0.163 HD
ATOM    103  O   UNL A   1      33.643  26.093  21.259  1.00  0.00    -0.269 OA
BRANCH 101 104
ATOM    104  C   UNL A   1      32.937  26.215  23.571  1.00  0.00     0.063 A 
ATOM    105  C   UNL A   1      33.991  26.164  24.468  1.00  0.00    -0.047 A 
ATOM    106  C   UNL A   1      31.817  26.867  23.860  1.00  0.00     0.051 A 
ATOM    107  C   UNL A   1      33.654  26.595  25.774  1.00  0.00    -0.061 A 
ATOM    108  H   UNL A   1      34.936  25.842  24.208  1.00  0.00     0.063 H 
ATOM    109  C   UNL A   1      31.610  27.380  25.118  1.00  0.00    -0.038 A 
ATOM    110  C   UNL A   1      32.587  27.314  26.074  1.00  0.00    -0.060 A 
ATOM    111  H   UNL A   1      34.285  26.328  26.545  1.00  0.00     0.062 H 
ATOM    112  H   UNL A   1      30.707  27.822  25.345  1.00  0.00     0.064 H 
ATOM    113  H   UNL A   1      32.495  27.798  26.979  1.00  0.00     0.062 H 
BRANCH 106 114
ATOM    114  N   UNL A   1      30.788  27.041  22.825  1.00  0.00    -0.355 N 
ATOM    115  H   UNL A   1      30.883  26.591  21.955  1.00  0.00     0.167 HD
BRANCH 114 116
ATOM    116  C   UNL A   1      29.615  27.886  23.090  1.00  0.00     0.040 A 
ATOM    117  C   UNL A   1      28.435  27.288  23.501  1.00  0.00    -0.039 A 
ATOM    118  C   UNL A   1      29.712  29.205  22.970  1.00  0.00    -0.016 A 
ATOM    119  C   UNL A   1      27.316  28.154  23.484  1.00  0.00    -0.059 A 
ATOM    120  H   UNL A   1      28.377  26.300  23.791  1.00  0.00     0.064 H 
ATOM    121  C   UNL A   1      28.601  30.004  23.101  1.00  0.00     0.109 A 
ATOM    122  H   UNL A   1      30.630  29.635  22.776  1.00  0.00     0.066 H 
ATOM    123  C   UNL A   1      27.390  29.472  23.447  1.00  0.00    -0.039 A 
ATOM    124  H   UNL A   1      26.377  27.726  23.502  1.00  0.00     0.062 H 
ATOM    125  H   UNL A   1      26.577  30.068  23.668  1.00  0.00     0.064 H 
BRANCH 121 126
ATOM    126  S   UNL A   1      28.743  31.785  22.812  1.00  0.00     0.310 S 
ATOM    127  F   UNL A   1      27.276  32.063  23.347  1.00  0.00    -0.094 F 
ATOM    128  F   UNL A   1      28.112  31.601  21.381  1.00  0.00    -0.094 F 
ATOM    129  F   UNL A   1      28.884  33.317  22.584  1.00  0.00    -0.094 F 
ATOM    130  F   UNL A   1      29.242  31.969  24.299  1.00  0.00    -0.094 F 
ATOM    131  F   UNL A   1      28.501  30.250  23.099  1.00  0.00    -0.094 F 
ENDBRANCH 121 126
ENDBRANCH 114 116
ENDBRANCH 106 114
ENDBRANCH 101 104
ENDBRANCH  97 100
ENDBRANCH  94  97
ENDBRANCH   1  94
TORSDOF 16
ENDMDL
MODEL 9
REMARK VINA RESULT:     -12.9      5.944     10.076
REMARK SMILES O=C(NCCCCCCNC(=O)c1ccccc1Nc1cccc(S(F)(F)(F)(F)F)c1)c1ccc(-c2c3nc(c(-c4c(F)c(F)c(F)c(F)c4F)c4ccc([nH]4)c(-c4c(F)c(F)c(F)c(F)c4F)c4nc(c(-c5c(F)c(F)c(F)c(F)c5F)c5ccc2[nH]5)C=C4)C=C3)cc1
REMARK SMILES IDX 7 1 6 4 5 7 4 10 3 13 1 14 2 15 32 17 33 18 94 19 34 20
REMARK SMILES IDX 93 22 35 24 36 27 37 28 87 29 38 30 92 31 86 32 88 33 39 34
REMARK SMILES IDX 91 35 85 37 84 39 40 41 72 44 52 45 71 46 53 47 56 48 70 49
REMARK SMILES IDX 89 50 54 51 55 53 69 55 90 56 57 59 41 61 42 62 50 63 43 64
REMARK SMILES IDX 44 65 48 66 51 67 45 68 46 69 49 70 47 71 73 72 74 73 82 74
REMARK SMILES IDX 75 75 76 76 80 77 83 78 77 79 78 80 81 81 79 82 58 83 59 84
REMARK SMILES IDX 67 85 60 86 61 87 65 88 68 89 62 90 63 91 66 92 64 93 8 94
REMARK SMILES IDX 9 97 10 100 11 101 12 103 13 104 14 105 18 106 15 107 17 109
REMARK SMILES IDX 16 110 19 114 20 116 21 117 31 118 22 119 24 121 23 123
REMARK SMILES IDX 25 126 26 127 27 128 28 129 29 130 30 131
REMARK H PARENT 7 2 7 3 6 5 6 6 5 8 5 9 4 11 4 12 3 16 33 21 94 23 34 25 93 26
REMARK H PARENT 92 36 86 38 88 40 91 42 85 43 53 52 56 54 89 57 54 58 90 60
REMARK H PARENT 8 95 8 96 9 98 9 99 10 102 14 108 15 111 17 112 16 113 19 115
REMARK H PARENT 21 120 31 122 22 124 23 125
REMARK Flexibility Score: inf
ROOT
ATOM      1  C   UNL A   1      38.022  21.967  25.408  1.00  0.00    -0.052 C 
ATOM      2  H   UNL A   1      38.761  22.439  24.795  1.00  0.00     0.027 H 
ATOM      3  H   UNL A   1      38.479  21.614  26.308  1.00  0.00     0.027 H 
ENDROOT
BRANCH   1   4
ATOM      4  C   UNL A   1      37.414  20.795  24.654  1.00  0.00    -0.052 C 
ATOM      5  H   UNL A   1      36.387  20.686  24.933  1.00  0.00     0.027 H 
ATOM      6  H   UNL A   1      37.482  20.974  23.601  1.00  0.00     0.027 H 
BRANCH   4   7
ATOM      7  C   UNL A   1      38.170  19.523  25.001  1.00  0.00    -0.036 C 
ATOM      8  H   UNL A   1      37.505  18.830  25.472  1.00  0.00     0.028 H 
ATOM      9  H   UNL A   1      38.565  19.087  24.107  1.00  0.00     0.028 H 
BRANCH   7  10
ATOM     10  C   UNL A   1      39.311  19.854  25.949  1.00  0.00     0.018 C 
ATOM     11  H   UNL A   1      39.720  20.810  25.696  1.00  0.00     0.049 H 
ATOM     12  H   UNL A   1      38.944  19.880  26.954  1.00  0.00     0.049 H 
BRANCH  10  13
ATOM     13  N   UNL A   1      40.357  18.828  25.836  1.00  0.00    -0.352 N 
ATOM     14  O   UNL A   1      42.674  18.308  25.914  1.00  0.00    -0.269 OA
ATOM     15  C   UNL A   1      41.770  19.196  26.012  1.00  0.00     0.251 C 
ATOM     16  H   UNL A   1      40.112  17.894  25.642  1.00  0.00     0.163 HD
BRANCH  15  17
ATOM     17  C   UNL A   1      42.148  20.637  26.312  1.00  0.00     0.039 A 
ATOM     18  C   UNL A   1      42.230  20.953  27.659  1.00  0.00    -0.049 A 
ATOM     19  C   UNL A   1      42.471  21.522  25.376  1.00  0.00    -0.049 A 
ATOM     20  C   UNL A   1      42.391  22.335  27.914  1.00  0.00    -0.053 A 
ATOM     21  H   UNL A   1      42.180  20.244  28.408  1.00  0.00     0.063 H 
ATOM     22  C   UNL A   1      42.748  22.825  25.712  1.00  0.00    -0.053 A 
ATOM     23  H   UNL A   1      42.513  21.227  24.388  1.00  0.00     0.063 H 
ATOM     24  C   UNL A   1      42.790  23.221  27.020  1.00  0.00    -0.014 A 
ATOM     25  H   UNL A   1      42.183  22.675  28.866  1.00  0.00     0.063 H 
ATOM     26  H   UNL A   1      42.929  23.514  24.966  1.00  0.00     0.063 H 
BRANCH  24  27
ATOM     27  C   UNL A   1      43.267  24.606  27.422  1.00  0.00     0.031 A 
ATOM     28  C   UNL A   1      44.626  24.903  27.550  1.00  0.00     0.074 A 
ATOM     29  C   UNL A   1      42.250  25.489  27.740  1.00  0.00     0.049 A 
ATOM     30  N   UNL A   1      45.174  26.052  27.948  1.00  0.00    -0.248 NA
ATOM     31  C   UNL A   1      45.708  23.956  27.247  1.00  0.00    -0.034 C 
ATOM     32  C   UNL A   1      40.878  25.201  27.606  1.00  0.00    -0.036 A 
ATOM     33  N   UNL A   1      42.365  26.772  28.228  1.00  0.00    -0.354 N 
ATOM     34  C   UNL A   1      46.505  25.962  27.923  1.00  0.00     0.074 A 
ATOM     35  C   UNL A   1      46.868  24.610  27.477  1.00  0.00    -0.034 C 
ATOM     36  H   UNL A   1      45.603  22.982  26.922  1.00  0.00     0.065 H 
ATOM     37  C   UNL A   1      40.175  26.288  28.020  1.00  0.00    -0.036 A 
ATOM     38  H   UNL A   1      40.475  24.317  27.256  1.00  0.00     0.065 H 
ATOM     39  C   UNL A   1      41.097  27.276  28.417  1.00  0.00     0.049 A 
ATOM     40  H   UNL A   1      43.207  27.247  28.411  1.00  0.00     0.167 HD
ATOM     41  C   UNL A   1      47.430  26.954  28.251  1.00  0.00     0.037 A 
ATOM     42  H   UNL A   1      47.821  24.233  27.362  1.00  0.00     0.065 H 
ATOM     43  H   UNL A   1      39.147  26.375  28.038  1.00  0.00     0.065 H 
ATOM     44  C   UNL A   1      40.743  28.522  28.909  1.00  0.00     0.037 A 
ATOM     45  C   UNL A   1      47.076  28.216  28.702  1.00  0.00     0.049 A 
ATOM     46  C   UNL A   1      41.669  29.495  29.293  1.00  0.00     0.074 A 
ATOM     47  C   UNL A   1      47.996  29.229  29.030  1.00  0.00    -0.036 A 
ATOM     48  N   UNL A   1      45.808  28.710  28.914  1.00  0.00    -0.354 N 
ATOM     49  N   UNL A   1      42.999  29.418  29.229  1.00  0.00    -0.248 NA
ATOM     50  C   UNL A   1      41.306  30.807  29.845  1.00  0.00    -0.034 C 
ATOM     51  C   UNL A   1      47.294  30.318  29.443  1.00  0.00    -0.036 A 
ATOM     52  H   UNL A   1      49.024  29.159  28.968  1.00  0.00     0.065 H 
ATOM     53  C   UNL A   1      45.923  30.001  29.381  1.00  0.00     0.049 A 
ATOM     54  H   UNL A   1      44.966  28.226  28.759  1.00  0.00     0.167 HD
ATOM     55  C   UNL A   1      43.547  30.553  29.668  1.00  0.00     0.074 A 
ATOM     56  C   UNL A   1      42.466  31.460  30.077  1.00  0.00    -0.034 C 
ATOM     57  H   UNL A   1      40.353  31.160  30.022  1.00  0.00     0.065 H 
ATOM     58  H   UNL A   1      47.695  31.219  29.750  1.00  0.00     0.065 H 
ATOM     59  C   UNL A   1      44.905  30.870  29.740  1.00  0.00     0.037 A 
ATOM     60  H   UNL A   1      42.572  32.411  30.466  1.00  0.00     0.065 H 
BRANCH  41  61
ATOM     61  C   UNL A   1      48.908  26.631  28.107  1.00  0.00     0.064 A 
ATOM     62  C   UNL A   1      49.657  26.064  29.124  1.00  0.00     0.173 A 
ATOM     63  C   UNL A   1      49.411  26.789  26.887  1.00  0.00     0.173 A 
ATOM     64  F   UNL A   1      49.127  25.656  30.274  1.00  0.00    -0.203 F 
ATOM     65  C   UNL A   1      51.037  25.958  28.830  1.00  0.00     0.198 A 
ATOM     66  C   UNL A   1      50.739  26.536  26.640  1.00  0.00     0.198 A 
ATOM     67  F   UNL A   1      48.621  27.195  25.898  1.00  0.00    -0.203 F 
ATOM     68  F   UNL A   1      51.874  25.772  29.847  1.00  0.00    -0.200 F 
ATOM     69  C   UNL A   1      51.552  26.031  27.616  1.00  0.00     0.200 A 
ATOM     70  F   UNL A   1      51.240  26.788  25.434  1.00  0.00    -0.200 F 
ATOM     71  F   UNL A   1      52.794  25.634  27.357  1.00  0.00    -0.200 F 
ENDBRANCH  41  61
BRANCH  44  72
ATOM     72  C   UNL A   1      39.265  28.850  29.037  1.00  0.00     0.064 A 
ATOM     73  C   UNL A   1      38.592  29.503  28.017  1.00  0.00     0.173 A 
ATOM     74  C   UNL A   1      38.690  28.637  30.215  1.00  0.00     0.173 A 
ATOM     75  F   UNL A   1      39.020  29.516  26.759  1.00  0.00    -0.203 F 
ATOM     76  C   UNL A   1      37.408  30.155  28.437  1.00  0.00     0.198 A 
ATOM     77  C   UNL A   1      37.468  29.195  30.508  1.00  0.00     0.198 A 
ATOM     78  F   UNL A   1      39.302  27.879  31.119  1.00  0.00    -0.203 F 
ATOM     79  F   UNL A   1      36.899  31.088  27.636  1.00  0.00    -0.200 F 
ATOM     80  C   UNL A   1      36.774  29.903  29.568  1.00  0.00     0.200 A 
ATOM     81  F   UNL A   1      36.954  29.043  31.726  1.00  0.00    -0.200 F 
ATOM     82  F   UNL A   1      35.528  30.315  29.779  1.00  0.00    -0.200 F 
ENDBRANCH  44  72
BRANCH  59  83
ATOM     83  C   UNL A   1      45.289  32.253  30.240  1.00  0.00     0.064 A 
ATOM     84  C   UNL A   1      45.491  32.341  31.608  1.00  0.00     0.173 A 
ATOM     85  C   UNL A   1      45.498  33.295  29.444  1.00  0.00     0.173 A 
ATOM     86  F   UNL A   1      45.540  31.278  32.404  1.00  0.00    -0.203 F 
ATOM     87  C   UNL A   1      45.639  33.667  32.082  1.00  0.00     0.198 A 
ATOM     88  C   UNL A   1      45.773  34.534  29.971  1.00  0.00     0.198 A 
ATOM     89  F   UNL A   1      45.442  33.138  28.125  1.00  0.00    -0.203 F 
ATOM     90  F   UNL A   1      45.476  33.880  33.383  1.00  0.00    -0.200 F 
ATOM     91  C   UNL A   1      45.928  34.706  31.319  1.00  0.00     0.200 A 
ATOM     92  F   UNL A   1      45.890  35.581  29.159  1.00  0.00    -0.200 F 
ATOM     93  F   UNL A   1      46.347  35.858  31.835  1.00  0.00    -0.200 F 
ENDBRANCH  59  83
ENDBRANCH  24  27
ENDBRANCH  15  17
ENDBRANCH  10  13
ENDBRANCH   7  10
ENDBRANCH   4   7
ENDBRANCH   1   4
BRANCH   1  94
ATOM     94  C   UNL A   1      36.932  22.970  25.751  1.00  0.00    -0.036 C 
ATOM     95  H   UNL A   1      36.982  23.797  25.073  1.00  0.00     0.028 H 
ATOM     96  H   UNL A   1      37.072  23.320  26.752  1.00  0.00     0.028 H 
BRANCH  94  97
ATOM     97  C   UNL A   1      35.573  22.300  25.633  1.00  0.00     0.018 C 
ATOM     98  H   UNL A   1      35.689  21.329  25.198  1.00  0.00     0.049 H 
ATOM     99  H   UNL A   1      34.934  22.895  25.013  1.00  0.00     0.049 H 
BRANCH  97 100
ATOM    100  N   UNL A   1      34.974  22.169  26.970  1.00  0.00    -0.352 N 
ATOM    101  C   UNL A   1      33.623  22.689  27.225  1.00  0.00     0.253 C 
ATOM    102  H   UNL A   1      35.478  21.732  27.694  1.00  0.00     0.163 HD
ATOM    103  O   UNL A   1      33.106  22.576  28.381  1.00  0.00    -0.269 OA
BRANCH 101 104
ATOM    104  C   UNL A   1      32.845  23.363  26.107  1.00  0.00     0.063 A 
ATOM    105  C   UNL A   1      33.117  24.683  25.790  1.00  0.00    -0.047 A 
ATOM    106  C   UNL A   1      31.917  22.674  25.452  1.00  0.00     0.051 A 
ATOM    107  C   UNL A   1      32.148  25.283  24.950  1.00  0.00    -0.061 A 
ATOM    108  H   UNL A   1      33.951  25.185  26.134  1.00  0.00     0.063 H 
ATOM    109  C   UNL A   1      31.093  23.297  24.545  1.00  0.00    -0.038 A 
ATOM    110  C   UNL A   1      31.267  24.615  24.227  1.00  0.00    -0.060 A 
ATOM    111  H   UNL A   1      32.127  26.313  24.901  1.00  0.00     0.062 H 
ATOM    112  H   UNL A   1      30.334  22.762  24.098  1.00  0.00     0.064 H 
ATOM    113  H   UNL A   1      30.739  25.064  23.463  1.00  0.00     0.062 H 
BRANCH 106 114
ATOM    114  N   UNL A   1      31.770  21.233  25.700  1.00  0.00    -0.355 N 
ATOM    115  H   UNL A   1      31.345  20.917  26.529  1.00  0.00     0.167 HD
BRANCH 114 116
ATOM    116  C   UNL A   1      32.256  20.263  24.708  1.00  0.00     0.040 A 
ATOM    117  C   UNL A   1      32.022  20.502  23.364  1.00  0.00    -0.039 A 
ATOM    118  C   UNL A   1      32.942  19.199  25.108  1.00  0.00    -0.016 A 
ATOM    119  C   UNL A   1      32.307  19.398  22.526  1.00  0.00    -0.059 A 
ATOM    120  H   UNL A   1      31.671  21.404  23.006  1.00  0.00     0.064 H 
ATOM    121  C   UNL A   1      33.307  18.222  24.211  1.00  0.00     0.109 A 
ATOM    122  H   UNL A   1      33.204  19.103  26.101  1.00  0.00     0.066 H 
ATOM    123  C   UNL A   1      33.053  18.366  22.875  1.00  0.00    -0.039 A 
ATOM    124  H   UNL A   1      31.903  19.399  21.576  1.00  0.00     0.062 H 
ATOM    125  H   UNL A   1      33.426  17.705  22.176  1.00  0.00     0.064 H 
BRANCH 121 126
ATOM    126  S   UNL A   1      34.133  16.727  24.806  1.00  0.00     0.310 S 
ATOM    127  F   UNL A   1      34.320  16.158  23.338  1.00  0.00    -0.094 F 
ATOM    128  F   UNL A   1      32.748  15.979  24.846  1.00  0.00    -0.094 F 
ATOM    129  F   UNL A   1      34.865  15.457  25.326  1.00  0.00    -0.094 F 
ATOM    130  F   UNL A   1      35.527  17.447  24.626  1.00  0.00    -0.094 F 
ATOM    131  F   UNL A   1      33.419  17.986  24.172  1.00  0.00    -0.094 F 
ENDBRANCH 121 126
ENDBRANCH 114 116
ENDBRANCH 106 114
ENDBRANCH 101 104
ENDBRANCH  97 100
ENDBRANCH  94  97
ENDBRANCH   1  94
TORSDOF 16
ENDMDL
MODEL 10
REMARK VINA RESULT:     -12.8      4.245      5.854
REMARK SMILES O=C(NCCCCCCNC(=O)c1ccccc1Nc1cccc(S(F)(F)(F)(F)F)c1)c1ccc(-c2c3nc(c(-c4c(F)c(F)c(F)c(F)c4F)c4ccc([nH]4)c(-c4c(F)c(F)c(F)c(F)c4F)c4nc(c(-c5c(F)c(F)c(F)c(F)c5F)c5ccc2[nH]5)C=C4)C=C3)cc1
REMARK SMILES IDX 7 1 6 4 5 7 4 10 3 13 1 14 2 15 32 17 33 18 94 19 34 20
REMARK SMILES IDX 93 22 35 24 36 27 37 28 87 29 38 30 92 31 86 32 88 33 39 34
REMARK SMILES IDX 91 35 85 37 84 39 40 41 72 44 52 45 71 46 53 47 56 48 70 49
REMARK SMILES IDX 89 50 54 51 55 53 69 55 90 56 57 59 41 61 42 62 50 63 43 64
REMARK SMILES IDX 44 65 48 66 51 67 45 68 46 69 49 70 47 71 73 72 74 73 82 74
REMARK SMILES IDX 75 75 76 76 80 77 83 78 77 79 78 80 81 81 79 82 58 83 59 84
REMARK SMILES IDX 67 85 60 86 61 87 65 88 68 89 62 90 63 91 66 92 64 93 8 94
REMARK SMILES IDX 9 97 10 100 11 101 12 103 13 104 14 105 18 106 15 107 17 109
REMARK SMILES IDX 16 110 19 114 20 116 21 117 31 118 22 119 24 121 23 123
REMARK SMILES IDX 25 126 26 127 27 128 28 129 29 130 30 131
REMARK H PARENT 7 2 7 3 6 5 6 6 5 8 5 9 4 11 4 12 3 16 33 21 94 23 34 25 93 26
REMARK H PARENT 92 36 86 38 88 40 91 42 85 43 53 52 56 54 89 57 54 58 90 60
REMARK H PARENT 8 95 8 96 9 98 9 99 10 102 14 108 15 111 17 112 16 113 19 115
REMARK H PARENT 21 120 31 122 22 124 23 125
REMARK Flexibility Score: inf
ROOT
ATOM      1  C   UNL A   1      30.287  27.358  24.233  1.00  0.00    -0.052 C 
ATOM      2  H   UNL A   1      29.632  28.142  23.915  1.00  0.00     0.027 H 
ATOM      3  H   UNL A   1      29.975  27.001  25.192  1.00  0.00     0.027 H 
ENDROOT
BRANCH   1   4
ATOM      4  C   UNL A   1      31.707  27.892  24.329  1.00  0.00    -0.052 C 
ATOM      5  H   UNL A   1      32.400  27.101  24.132  1.00  0.00     0.027 H 
ATOM      6  H   UNL A   1      31.844  28.673  23.609  1.00  0.00     0.027 H 
BRANCH   4   7
ATOM      7  C   UNL A   1      31.949  28.443  25.725  1.00  0.00    -0.036 C 
ATOM      8  H   UNL A   1      31.039  28.855  26.108  1.00  0.00     0.028 H 
ATOM      9  H   UNL A   1      32.281  27.654  26.367  1.00  0.00     0.028 H 
BRANCH   7  10
ATOM     10  C   UNL A   1      33.010  29.529  25.664  1.00  0.00     0.018 C 
ATOM     11  H   UNL A   1      33.807  29.286  26.336  1.00  0.00     0.049 H 
ATOM     12  H   UNL A   1      33.394  29.598  24.668  1.00  0.00     0.049 H 
BRANCH  10  13
ATOM     13  N   UNL A   1      32.417  30.816  26.052  1.00  0.00    -0.352 N 
ATOM     14  O   UNL A   1      32.568  32.773  27.391  1.00  0.00    -0.269 OA
ATOM     15  C   UNL A   1      33.081  31.660  27.056  1.00  0.00     0.251 C 
ATOM     16  H   UNL A   1      31.574  31.114  25.638  1.00  0.00     0.163 HD
BRANCH  15  17
ATOM     17  C   UNL A   1      34.382  31.200  27.694  1.00  0.00     0.039 A 
ATOM     18  C   UNL A   1      35.333  32.192  27.865  1.00  0.00    -0.049 A 
ATOM     19  C   UNL A   1      34.583  29.967  28.146  1.00  0.00    -0.049 A 
ATOM     20  C   UNL A   1      36.598  31.709  28.278  1.00  0.00    -0.053 A 
ATOM     21  H   UNL A   1      35.138  33.193  27.708  1.00  0.00     0.063 H 
ATOM     22  C   UNL A   1      35.803  29.602  28.661  1.00  0.00    -0.053 A 
ATOM     23  H   UNL A   1      33.815  29.279  28.111  1.00  0.00     0.063 H 
ATOM     24  C   UNL A   1      36.809  30.517  28.805  1.00  0.00    -0.014 A 
ATOM     25  H   UNL A   1      37.412  32.331  28.157  1.00  0.00     0.063 H 
ATOM     26  H   UNL A   1      35.963  28.622  28.943  1.00  0.00     0.063 H 
BRANCH  24  27
ATOM     27  C   UNL A   1      38.100  30.180  29.533  1.00  0.00     0.031 A 
ATOM     28  C   UNL A   1      39.045  29.313  28.982  1.00  0.00     0.074 A 
ATOM     29  C   UNL A   1      38.195  30.723  30.802  1.00  0.00     0.049 A 
ATOM     30  N   UNL A   1      40.183  28.892  29.536  1.00  0.00    -0.248 NA
ATOM     31  C   UNL A   1      38.929  28.708  27.648  1.00  0.00    -0.034 C 
ATOM     32  C   UNL A   1      37.250  31.605  31.362  1.00  0.00    -0.036 A 
ATOM     33  N   UNL A   1      39.188  30.522  31.736  1.00  0.00    -0.354 N 
ATOM     34  C   UNL A   1      40.835  28.086  28.696  1.00  0.00     0.074 A 
ATOM     35  C   UNL A   1      40.034  27.951  27.471  1.00  0.00    -0.034 C 
ATOM     36  H   UNL A   1      38.155  28.835  26.977  1.00  0.00     0.065 H 
ATOM     37  C   UNL A   1      37.661  31.921  32.619  1.00  0.00    -0.036 A 
ATOM     38  H   UNL A   1      36.395  31.951  30.900  1.00  0.00     0.065 H 
ATOM     39  C   UNL A   1      38.870  31.244  32.865  1.00  0.00     0.049 A 
ATOM     40  H   UNL A   1      39.987  29.960  31.617  1.00  0.00     0.167 HD
ATOM     41  C   UNL A   1      42.065  27.460  28.901  1.00  0.00     0.037 A 
ATOM     42  H   UNL A   1      40.269  27.387  26.640  1.00  0.00     0.065 H 
ATOM     43  H   UNL A   1      37.171  32.549  33.276  1.00  0.00     0.065 H 
ATOM     44  C   UNL A   1      39.579  31.318  34.053  1.00  0.00     0.037 A 
ATOM     45  C   UNL A   1      42.796  27.569  30.074  1.00  0.00     0.049 A 
ATOM     46  C   UNL A   1      40.782  30.645  34.281  1.00  0.00     0.074 A 
ATOM     47  C   UNL A   1      44.041  26.950  30.294  1.00  0.00    -0.036 A 
ATOM     48  N   UNL A   1      42.465  28.270  31.211  1.00  0.00    -0.354 N 
ATOM     49  N   UNL A   1      41.452  29.871  33.426  1.00  0.00    -0.248 NA
ATOM     50  C   UNL A   1      41.526  30.690  35.546  1.00  0.00    -0.034 C 
ATOM     51  C   UNL A   1      44.452  27.267  31.551  1.00  0.00    -0.036 A 
ATOM     52  H   UNL A   1      44.553  26.359  29.620  1.00  0.00     0.065 H 
ATOM     53  C   UNL A   1      43.469  28.088  32.137  1.00  0.00     0.049 A 
ATOM     54  H   UNL A   1      41.652  28.810  31.342  1.00  0.00     0.167 HD
ATOM     55  C   UNL A   1      42.570  29.416  33.996  1.00  0.00     0.074 A 
ATOM     56  C   UNL A   1      42.630  29.931  35.371  1.00  0.00    -0.034 C 
ATOM     57  H   UNL A   1      41.258  31.202  36.402  1.00  0.00     0.065 H 
ATOM     58  H   UNL A   1      45.330  26.959  31.998  1.00  0.00     0.065 H 
ATOM     59  C   UNL A   1      43.544  28.596  33.424  1.00  0.00     0.037 A 
ATOM     60  H   UNL A   1      43.370  29.749  36.066  1.00  0.00     0.065 H 
BRANCH  41  61
ATOM     61  C   UNL A   1      42.634  26.611  27.776  1.00  0.00     0.064 A 
ATOM     62  C   UNL A   1      42.310  25.275  27.605  1.00  0.00     0.173 A 
ATOM     63  C   UNL A   1      43.350  27.268  26.871  1.00  0.00     0.173 A 
ATOM     64  F   UNL A   1      41.397  24.650  28.341  1.00  0.00    -0.203 F 
ATOM     65  C   UNL A   1      43.040  24.636  26.574  1.00  0.00     0.198 A 
ATOM     66  C   UNL A   1      43.922  26.602  25.814  1.00  0.00     0.198 A 
ATOM     67  F   UNL A   1      43.516  28.581  26.990  1.00  0.00    -0.203 F 
ATOM     68  F   UNL A   1      43.070  23.307  26.571  1.00  0.00    -0.200 F 
ATOM     69  C   UNL A   1      43.694  25.268  25.617  1.00  0.00     0.200 A 
ATOM     70  F   UNL A   1      44.710  27.264  24.971  1.00  0.00    -0.200 F 
ATOM     71  F   UNL A   1      44.107  24.641  24.519  1.00  0.00    -0.200 F 
ENDBRANCH  41  61
BRANCH  44  72
ATOM     72  C   UNL A   1      39.018  32.181  35.171  1.00  0.00     0.064 A 
ATOM     73  C   UNL A   1      39.377  33.514  35.287  1.00  0.00     0.173 A 
ATOM     74  C   UNL A   1      38.310  31.573  36.117  1.00  0.00     0.173 A 
ATOM     75  F   UNL A   1      39.856  34.226  34.271  1.00  0.00    -0.203 F 
ATOM     76  C   UNL A   1      39.186  34.048  36.583  1.00  0.00     0.198 A 
ATOM     77  C   UNL A   1      38.046  32.207  37.308  1.00  0.00     0.198 A 
ATOM     78  F   UNL A   1      37.854  30.342  35.910  1.00  0.00    -0.203 F 
ATOM     79  F   UNL A   1      39.822  35.178  36.885  1.00  0.00    -0.200 F 
ATOM     80  C   UNL A   1      38.424  33.504  37.514  1.00  0.00     0.200 A 
ATOM     81  F   UNL A   1      37.414  31.547  38.274  1.00  0.00    -0.200 F 
ATOM     82  F   UNL A   1      38.042  34.183  38.592  1.00  0.00    -0.200 F 
ENDBRANCH  44  72
BRANCH  59  83
ATOM     83  C   UNL A   1      44.760  28.241  34.263  1.00  0.00     0.064 A 
ATOM     84  C   UNL A   1      45.817  29.132  34.162  1.00  0.00     0.173 A 
ATOM     85  C   UNL A   1      44.807  27.209  35.096  1.00  0.00     0.173 A 
ATOM     86  F   UNL A   1      45.721  30.304  33.542  1.00  0.00    -0.203 F 
ATOM     87  C   UNL A   1      47.008  28.681  34.778  1.00  0.00     0.198 A 
ATOM     88  C   UNL A   1      45.966  26.905  35.770  1.00  0.00     0.198 A 
ATOM     89  F   UNL A   1      43.723  26.461  35.281  1.00  0.00    -0.203 F 
ATOM     90  F   UNL A   1      48.146  29.275  34.434  1.00  0.00    -0.200 F 
ATOM     91  C   UNL A   1      47.068  27.710  35.671  1.00  0.00     0.200 A 
ATOM     92  F   UNL A   1      46.016  25.815  36.530  1.00  0.00    -0.200 F 
ATOM     93  F   UNL A   1      48.142  27.522  36.432  1.00  0.00    -0.200 F 
ENDBRANCH  59  83
ENDBRANCH  24  27
ENDBRANCH  15  17
ENDBRANCH  10  13
ENDBRANCH   7  10
ENDBRANCH   4   7
ENDBRANCH   1   4
BRANCH   1  94
ATOM     94  C   UNL A   1      30.240  26.219  23.228  1.00  0.00    -0.036 C 
ATOM     95  H   UNL A   1      30.699  26.531  22.312  1.00  0.00     0.028 H 
ATOM     96  H   UNL A   1      29.222  25.948  23.042  1.00  0.00     0.028 H 
BRANCH  94  97
ATOM     97  C   UNL A   1      30.991  25.020  23.786  1.00  0.00     0.018 C 
ATOM     98  H   UNL A   1      32.002  25.298  23.998  1.00  0.00     0.049 H 
ATOM     99  H   UNL A   1      30.982  24.227  23.067  1.00  0.00     0.049 H 
BRANCH  97 100
ATOM    100  N   UNL A   1      30.338  24.566  25.023  1.00  0.00    -0.352 N 
ATOM    101  C   UNL A   1      31.148  24.041  26.131  1.00  0.00     0.253 C 
ATOM    102  H   UNL A   1      29.359  24.616  25.109  1.00  0.00     0.163 HD
ATOM    103  O   UNL A   1      30.583  23.649  27.201  1.00  0.00    -0.269 OA
BRANCH 101 104
ATOM    104  C   UNL A   1      32.659  23.965  25.998  1.00  0.00     0.063 A 
ATOM    105  C   UNL A   1      33.404  25.132  26.043  1.00  0.00    -0.047 A 
ATOM    106  C   UNL A   1      33.241  22.782  25.842  1.00  0.00     0.051 A 
ATOM    107  C   UNL A   1      34.746  24.972  25.621  1.00  0.00    -0.061 A 
ATOM    108  H   UNL A   1      33.017  26.036  26.355  1.00  0.00     0.063 H 
ATOM    109  C   UNL A   1      34.585  22.693  25.565  1.00  0.00    -0.038 A 
ATOM    110  C   UNL A   1      35.371  23.812  25.535  1.00  0.00    -0.060 A 
ATOM    111  H   UNL A   1      35.272  25.821  25.361  1.00  0.00     0.062 H 
ATOM    112  H   UNL A   1      35.006  21.771  25.377  1.00  0.00     0.064 H 
ATOM    113  H   UNL A   1      36.397  23.752  25.449  1.00  0.00     0.062 H 
BRANCH 106 114
ATOM    114  N   UNL A   1      32.442  21.555  25.965  1.00  0.00    -0.355 N 
ATOM    115  H   UNL A   1      31.808  21.454  26.711  1.00  0.00     0.167 HD
BRANCH 114 116
ATOM    116  C   UNL A   1      32.587  20.479  24.974  1.00  0.00     0.040 A 
ATOM    117  C   UNL A   1      32.233  20.726  23.659  1.00  0.00    -0.039 A 
ATOM    118  C   UNL A   1      33.089  19.306  25.343  1.00  0.00    -0.016 A 
ATOM    119  C   UNL A   1      32.175  19.565  22.851  1.00  0.00    -0.059 A 
ATOM    120  H   UNL A   1      32.028  21.672  23.299  1.00  0.00     0.064 H 
ATOM    121  C   UNL A   1      33.127  18.252  24.461  1.00  0.00     0.109 A 
ATOM    122  H   UNL A   1      33.453  19.184  26.301  1.00  0.00     0.066 H 
ATOM    123  C   UNL A   1      32.736  18.410  23.161  1.00  0.00    -0.039 A 
ATOM    124  H   UNL A   1      31.659  19.625  21.960  1.00  0.00     0.062 H 
ATOM    125  H   UNL A   1      32.872  17.667  22.458  1.00  0.00     0.064 H 
BRANCH 121 126
ATOM    126  S   UNL A   1      33.703  16.634  25.029  1.00  0.00     0.310 S 
ATOM    127  F   UNL A   1      33.540  15.989  23.589  1.00  0.00    -0.094 F 
ATOM    128  F   UNL A   1      32.215  16.205  25.314  1.00  0.00    -0.094 F 
ATOM    129  F   UNL A   1      34.224  15.253  25.521  1.00  0.00    -0.094 F 
ATOM    130  F   UNL A   1      35.173  17.028  24.606  1.00  0.00    -0.094 F 
ATOM    131  F   UNL A   1      33.180  17.996  24.422  1.00  0.00    -0.094 F 
ENDBRANCH 121 126
ENDBRANCH 114 116
ENDBRANCH 106 114
ENDBRANCH 101 104
ENDBRANCH  97 100
ENDBRANCH  94  97
ENDBRANCH   1  94
TORSDOF 16
ENDMDL
