MODEL 1
REMARK VINA RESULT:     -11.7      0.000      0.000
REMARK SMILES Nc1ccc(O)c(C(=O)NCCCCCCNC(=O)c2ccc(-c3c4nc(c(-c5c(F)c(F)c(F)c(F)c5F)c5ccc([nH]5)c(-c5c(F)c(F)c(F)c(F)c5F)c5nc(c(-c6c(F)c(F)c(F)c(F)c6F)c6ccc3[nH]6)C=C5)C=C4)cc2)c1
REMARK SMILES IDX 14 1 13 4 12 7 11 10 10 13 8 14 9 15 7 17 2 18 3 19 83 20
REMARK SMILES IDX 4 21 5 24 1 26 6 29 15 31 16 34 17 37 18 38 19 40 20 41
REMARK SMILES IDX 21 42 82 43 22 44 81 46 23 48 24 51 25 52 75 53 26 54 80 55
REMARK SMILES IDX 74 56 76 57 27 58 79 59 73 61 72 63 28 65 60 68 40 69 59 70
REMARK SMILES IDX 41 71 44 72 58 73 77 74 42 75 43 77 57 79 78 80 45 83 29 85
REMARK SMILES IDX 30 86 38 87 31 88 32 89 36 90 39 91 33 92 34 93 37 94 35 95
REMARK SMILES IDX 61 96 62 97 70 98 63 99 64 100 68 101 71 102 65 103 66 104
REMARK SMILES IDX 69 105 67 106 46 107 47 108 55 109 48 110 49 111 53 112
REMARK SMILES IDX 56 113 50 114 51 115 54 116 52 117
REMARK H PARENT 14 2 14 3 13 5 13 6 12 8 12 9 11 11 11 12 10 16 3 22 83 23
REMARK H PARENT 4 25 1 27 1 28 6 30 15 32 15 33 16 35 16 36 17 39 21 45 82 47
REMARK H PARENT 22 49 81 50 80 60 74 62 76 64 79 66 73 67 41 76 44 78 77 81
REMARK H PARENT 42 82 78 84
REMARK Flexibility Score: inf
ROOT
ATOM      1  C   UNL A   1      31.455  30.793  26.105  1.00  0.00    -0.052 C 
ATOM      2  H   UNL A   1      30.604  30.276  26.498  1.00  0.00     0.027 H 
ATOM      3  H   UNL A   1      31.505  30.773  25.036  1.00  0.00     0.027 H 
ENDROOT
BRANCH   1   4
ATOM      4  C   UNL A   1      32.719  30.083  26.608  1.00  0.00    -0.052 C 
ATOM      5  H   UNL A   1      33.555  30.726  26.428  1.00  0.00     0.027 H 
ATOM      6  H   UNL A   1      32.556  29.881  27.646  1.00  0.00     0.027 H 
BRANCH   4   7
ATOM      7  C   UNL A   1      33.008  28.727  25.945  1.00  0.00    -0.036 C 
ATOM      8  H   UNL A   1      33.644  28.890  25.100  1.00  0.00     0.028 H 
ATOM      9  H   UNL A   1      33.471  28.104  26.682  1.00  0.00     0.028 H 
BRANCH   7  10
ATOM     10  C   UNL A   1      31.742  28.009  25.470  1.00  0.00     0.018 C 
ATOM     11  H   UNL A   1      31.522  27.199  26.134  1.00  0.00     0.049 H 
ATOM     12  H   UNL A   1      30.925  28.700  25.464  1.00  0.00     0.049 H 
BRANCH  10  13
ATOM     13  N   UNL A   1      31.943  27.493  24.131  1.00  0.00    -0.352 N 
ATOM     14  C   UNL A   1      31.217  27.541  22.972  1.00  0.00     0.255 C 
ATOM     15  O   UNL A   1      31.698  26.950  21.999  1.00  0.00    -0.269 OA
ATOM     16  H   UNL A   1      32.789  27.001  24.034  1.00  0.00     0.163 HD
BRANCH  14  17
ATOM     17  C   UNL A   1      29.948  28.299  22.774  1.00  0.00     0.083 A 
ATOM     18  C   UNL A   1      27.549  28.663  23.074  1.00  0.00     0.032 A 
ATOM     19  C   UNL A   1      27.653  29.891  22.424  1.00  0.00    -0.035 A 
ATOM     20  C   UNL A   1      28.683  27.844  23.169  1.00  0.00    -0.023 A 
ATOM     21  C   UNL A   1      28.884  30.333  21.944  1.00  0.00    -0.017 A 
ATOM     22  H   UNL A   1      26.813  30.477  22.296  1.00  0.00     0.065 H 
ATOM     23  H   UNL A   1      28.585  26.886  23.540  1.00  0.00     0.065 H 
ATOM     24  C   UNL A   1      30.019  29.549  22.128  1.00  0.00     0.128 A 
ATOM     25  H   UNL A   1      28.953  31.239  21.454  1.00  0.00     0.066 H 
BRANCH  18  26
ATOM     26  N   UNL A   1      26.311  28.203  23.501  1.00  0.00    -0.399 N 
ATOM     27  H   UNL A   1      25.585  28.843  23.686  1.00  0.00     0.156 HD
ATOM     28  H   UNL A   1      26.158  27.238  23.618  1.00  0.00     0.156 HD
ENDBRANCH  18  26
BRANCH  24  29
ATOM     29  O   UNL A   1      31.181  30.078  21.626  1.00  0.00    -0.507 OA
ATOM     30  H   UNL A   1      31.149  30.819  21.052  1.00  0.00     0.293 HD
ENDBRANCH  24  29
ENDBRANCH  14  17
ENDBRANCH  10  13
ENDBRANCH   7  10
ENDBRANCH   4   7
ENDBRANCH   1   4
BRANCH   1  31
ATOM     31  C   UNL A   1      31.341  32.267  26.501  1.00  0.00    -0.036 C 
ATOM     32  H   UNL A   1      30.481  32.380  27.127  1.00  0.00     0.028 H 
ATOM     33  H   UNL A   1      31.267  32.825  25.590  1.00  0.00     0.028 H 
BRANCH  31  34
ATOM     34  C   UNL A   1      32.552  32.811  27.251  1.00  0.00     0.018 C 
ATOM     35  H   UNL A   1      33.414  32.730  26.622  1.00  0.00     0.049 H 
ATOM     36  H   UNL A   1      32.675  32.238  28.147  1.00  0.00     0.049 H 
BRANCH  34  37
ATOM     37  N   UNL A   1      32.372  34.204  27.626  1.00  0.00    -0.352 N 
ATOM     38  C   UNL A   1      32.963  34.917  28.638  1.00  0.00     0.251 C 
ATOM     39  H   UNL A   1      31.732  34.710  27.074  1.00  0.00     0.163 HD
ATOM     40  O   UNL A   1      32.530  36.020  28.955  1.00  0.00    -0.269 OA
BRANCH  38  41
ATOM     41  C   UNL A   1      34.123  34.348  29.358  1.00  0.00     0.039 A 
ATOM     42  C   UNL A   1      33.900  33.610  30.523  1.00  0.00    -0.049 A 
ATOM     43  C   UNL A   1      35.426  34.566  28.900  1.00  0.00    -0.049 A 
ATOM     44  C   UNL A   1      34.982  33.044  31.201  1.00  0.00    -0.053 A 
ATOM     45  H   UNL A   1      32.941  33.484  30.880  1.00  0.00     0.063 H 
ATOM     46  C   UNL A   1      36.497  33.944  29.537  1.00  0.00    -0.053 A 
ATOM     47  H   UNL A   1      35.594  35.183  28.091  1.00  0.00     0.063 H 
ATOM     48  C   UNL A   1      36.286  33.184  30.697  1.00  0.00    -0.014 A 
ATOM     49  H   UNL A   1      34.822  32.521  32.075  1.00  0.00     0.063 H 
ATOM     50  H   UNL A   1      37.449  34.045  29.155  1.00  0.00     0.063 H 
BRANCH  48  51
ATOM     51  C   UNL A   1      37.443  32.546  31.374  1.00  0.00     0.031 A 
ATOM     52  C   UNL A   1      38.161  31.399  30.719  1.00  0.00     0.074 A 
ATOM     53  C   UNL A   1      37.805  32.960  32.604  1.00  0.00     0.049 A 
ATOM     54  N   UNL A   1      39.143  30.666  31.180  1.00  0.00    -0.248 NA
ATOM     55  C   UNL A   1      37.698  31.007  29.379  1.00  0.00    -0.034 C 
ATOM     56  C   UNL A   1      37.158  34.034  33.359  1.00  0.00    -0.036 A 
ATOM     57  N   UNL A   1      38.799  32.517  33.441  1.00  0.00    -0.354 N 
ATOM     58  C   UNL A   1      39.401  29.719  30.198  1.00  0.00     0.074 A 
ATOM     59  C   UNL A   1      38.443  29.939  29.135  1.00  0.00    -0.034 C 
ATOM     60  H   UNL A   1      36.980  31.449  28.783  1.00  0.00     0.065 H 
ATOM     61  C   UNL A   1      37.783  34.180  34.539  1.00  0.00    -0.036 A 
ATOM     62  H   UNL A   1      36.350  34.588  33.037  1.00  0.00     0.065 H 
ATOM     63  C   UNL A   1      38.849  33.187  34.639  1.00  0.00     0.049 A 
ATOM     64  H   UNL A   1      39.416  31.788  33.205  1.00  0.00     0.167 HD
ATOM     65  C   UNL A   1      40.364  28.767  30.175  1.00  0.00     0.037 A 
ATOM     66  H   UNL A   1      38.352  29.341  28.299  1.00  0.00     0.065 H 
ATOM     67  H   UNL A   1      37.548  34.882  35.258  1.00  0.00     0.065 H 
ATOM     68  C   UNL A   1      39.660  33.015  35.701  1.00  0.00     0.037 A 
ATOM     69  C   UNL A   1      41.336  28.574  31.219  1.00  0.00     0.049 A 
ATOM     70  C   UNL A   1      40.719  31.947  35.647  1.00  0.00     0.074 A 
ATOM     71  C   UNL A   1      42.393  27.682  31.259  1.00  0.00    -0.036 A 
ATOM     72  N   UNL A   1      41.368  29.286  32.408  1.00  0.00    -0.354 N 
ATOM     73  N   UNL A   1      40.998  31.104  34.683  1.00  0.00    -0.248 NA
ATOM     74  C   UNL A   1      41.581  31.812  36.830  1.00  0.00    -0.034 C 
ATOM     75  C   UNL A   1      43.036  27.821  32.493  1.00  0.00    -0.036 A 
ATOM     76  H   UNL A   1      42.660  27.026  30.508  1.00  0.00     0.065 H 
ATOM     77  C   UNL A   1      42.412  28.836  33.200  1.00  0.00     0.049 A 
ATOM     78  H   UNL A   1      40.740  30.004  32.654  1.00  0.00     0.167 HD
ATOM     79  C   UNL A   1      42.085  30.363  35.127  1.00  0.00     0.074 A 
ATOM     80  C   UNL A   1      42.423  30.864  36.443  1.00  0.00    -0.034 C 
ATOM     81  H   UNL A   1      41.541  32.320  37.726  1.00  0.00     0.065 H 
ATOM     82  H   UNL A   1      43.840  27.263  32.821  1.00  0.00     0.065 H 
ATOM     83  C   UNL A   1      42.743  29.357  34.501  1.00  0.00     0.037 A 
ATOM     84  H   UNL A   1      43.218  30.526  37.007  1.00  0.00     0.065 H 
BRANCH  65  85
ATOM     85  C   UNL A   1      40.421  27.860  28.979  1.00  0.00     0.064 A 
ATOM     86  C   UNL A   1      41.236  28.149  27.874  1.00  0.00     0.173 A 
ATOM     87  C   UNL A   1      39.693  26.661  28.962  1.00  0.00     0.173 A 
ATOM     88  F   UNL A   1      41.944  29.288  27.837  1.00  0.00    -0.203 F 
ATOM     89  C   UNL A   1      41.299  27.284  26.784  1.00  0.00     0.198 A 
ATOM     90  C   UNL A   1      39.781  25.784  27.883  1.00  0.00     0.198 A 
ATOM     91  F   UNL A   1      38.903  26.333  29.995  1.00  0.00    -0.203 F 
ATOM     92  F   UNL A   1      42.051  27.602  25.721  1.00  0.00    -0.200 F 
ATOM     93  C   UNL A   1      40.580  26.099  26.794  1.00  0.00     0.200 A 
ATOM     94  F   UNL A   1      39.096  24.632  27.900  1.00  0.00    -0.200 F 
ATOM     95  F   UNL A   1      40.651  25.261  25.750  1.00  0.00    -0.200 F 
ENDBRANCH  65  85
BRANCH  68  96
ATOM     96  C   UNL A   1      39.519  33.886  36.896  1.00  0.00     0.064 A 
ATOM     97  C   UNL A   1      38.746  33.481  37.994  1.00  0.00     0.173 A 
ATOM     98  C   UNL A   1      40.135  35.144  36.962  1.00  0.00     0.173 A 
ATOM     99  F   UNL A   1      38.121  32.294  37.970  1.00  0.00    -0.203 F 
ATOM    100  C   UNL A   1      38.574  34.311  39.100  1.00  0.00     0.198 A 
ATOM    101  C   UNL A   1      39.987  35.961  38.080  1.00  0.00     0.198 A 
ATOM    102  F   UNL A   1      40.889  35.577  35.941  1.00  0.00    -0.203 F 
ATOM    103  F   UNL A   1      37.789  33.919  40.111  1.00  0.00    -0.200 F 
ATOM    104  C   UNL A   1      39.198  35.548  39.145  1.00  0.00     0.200 A 
ATOM    105  F   UNL A   1      40.603  37.150  38.126  1.00  0.00    -0.200 F 
ATOM    106  F   UNL A   1      39.033  36.346  40.207  1.00  0.00    -0.200 F 
ENDBRANCH  68  96
BRANCH  83 107
ATOM    107  C   UNL A   1      43.921  28.758  35.213  1.00  0.00     0.064 A 
ATOM    108  C   UNL A   1      43.783  27.656  36.068  1.00  0.00     0.173 A 
ATOM    109  C   UNL A   1      45.210  29.272  35.004  1.00  0.00     0.173 A 
ATOM    110  F   UNL A   1      42.569  27.138  36.313  1.00  0.00    -0.203 F 
ATOM    111  C   UNL A   1      44.890  27.104  36.709  1.00  0.00     0.198 A 
ATOM    112  C   UNL A   1      46.318  28.699  35.621  1.00  0.00     0.198 A 
ATOM    113  F   UNL A   1      45.397  30.321  34.190  1.00  0.00    -0.203 F 
ATOM    114  F   UNL A   1      44.729  26.081  37.560  1.00  0.00    -0.200 F 
ATOM    115  C   UNL A   1      46.157  27.622  36.479  1.00  0.00     0.200 A 
ATOM    116  F   UNL A   1      47.543  29.190  35.388  1.00  0.00    -0.200 F 
ATOM    117  F   UNL A   1      47.222  27.084  37.090  1.00  0.00    -0.200 F 
ENDBRANCH  83 107
ENDBRANCH  48  51
ENDBRANCH  38  41
ENDBRANCH  34  37
ENDBRANCH  31  34
ENDBRANCH   1  31
TORSDOF 15
ENDMDL
MODEL 2
REMARK VINA RESULT:     -11.7      0.818      1.946
REMARK SMILES Nc1ccc(O)c(C(=O)NCCCCCCNC(=O)c2ccc(-c3c4nc(c(-c5c(F)c(F)c(F)c(F)c5F)c5ccc([nH]5)c(-c5c(F)c(F)c(F)c(F)c5F)c5nc(c(-c6c(F)c(F)c(F)c(F)c6F)c6ccc3[nH]6)C=C5)C=C4)cc2)c1
REMARK SMILES IDX 14 1 13 4 12 7 11 10 10 13 8 14 9 15 7 17 2 18 3 19 83 20
REMARK SMILES IDX 4 21 5 24 1 26 6 29 15 31 16 34 17 37 18 38 19 40 20 41
REMARK SMILES IDX 21 42 82 43 22 44 81 46 23 48 24 51 25 52 75 53 26 54 80 55
REMARK SMILES IDX 74 56 76 57 27 58 79 59 73 61 72 63 28 65 60 68 40 69 59 70
REMARK SMILES IDX 41 71 44 72 58 73 77 74 42 75 43 77 57 79 78 80 45 83 29 85
REMARK SMILES IDX 30 86 38 87 31 88 32 89 36 90 39 91 33 92 34 93 37 94 35 95
REMARK SMILES IDX 61 96 62 97 70 98 63 99 64 100 68 101 71 102 65 103 66 104
REMARK SMILES IDX 69 105 67 106 46 107 47 108 55 109 48 110 49 111 53 112
REMARK SMILES IDX 56 113 50 114 51 115 54 116 52 117
REMARK H PARENT 14 2 14 3 13 5 13 6 12 8 12 9 11 11 11 12 10 16 3 22 83 23
REMARK H PARENT 4 25 1 27 1 28 6 30 15 32 15 33 16 35 16 36 17 39 21 45 82 47
REMARK H PARENT 22 49 81 50 80 60 74 62 76 64 79 66 73 67 41 76 44 78 77 81
REMARK H PARENT 42 82 78 84
REMARK Flexibility Score: inf
ROOT
ATOM      1  C   UNL A   1      31.484  30.753  25.991  1.00  0.00    -0.052 C 
ATOM      2  H   UNL A   1      30.514  30.352  25.784  1.00  0.00     0.027 H 
ATOM      3  H   UNL A   1      32.101  30.842  25.121  1.00  0.00     0.027 H 
ENDROOT
BRANCH   1   4
ATOM      4  C   UNL A   1      32.209  29.784  26.934  1.00  0.00    -0.052 C 
ATOM      5  H   UNL A   1      33.135  30.234  27.225  1.00  0.00     0.027 H 
ATOM      6  H   UNL A   1      31.546  29.612  27.756  1.00  0.00     0.027 H 
BRANCH   4   7
ATOM      7  C   UNL A   1      32.517  28.403  26.333  1.00  0.00    -0.036 C 
ATOM      8  H   UNL A   1      32.922  28.542  25.352  1.00  0.00     0.028 H 
ATOM      9  H   UNL A   1      33.210  27.918  26.988  1.00  0.00     0.028 H 
BRANCH   7  10
ATOM     10  C   UNL A   1      31.282  27.505  26.227  1.00  0.00     0.018 C 
ATOM     11  H   UNL A   1      31.261  26.830  27.057  1.00  0.00     0.049 H 
ATOM     12  H   UNL A   1      30.401  28.113  26.236  1.00  0.00     0.049 H 
BRANCH  10  13
ATOM     13  N   UNL A   1      31.329  26.749  24.992  1.00  0.00    -0.352 N 
ATOM     14  C   UNL A   1      30.674  26.840  23.793  1.00  0.00     0.255 C 
ATOM     15  O   UNL A   1      30.956  25.984  22.949  1.00  0.00    -0.269 OA
ATOM     16  H   UNL A   1      31.975  26.008  25.021  1.00  0.00     0.163 HD
BRANCH  14  17
ATOM     17  C   UNL A   1      29.717  27.916  23.406  1.00  0.00     0.083 A 
ATOM     18  C   UNL A   1      29.150  30.127  22.529  1.00  0.00     0.032 A 
ATOM     19  C   UNL A   1      27.796  29.810  22.605  1.00  0.00    -0.035 A 
ATOM     20  C   UNL A   1      30.093  29.206  23.008  1.00  0.00    -0.023 A 
ATOM     21  C   UNL A   1      27.388  28.565  23.076  1.00  0.00    -0.017 A 
ATOM     22  H   UNL A   1      27.089  30.503  22.309  1.00  0.00     0.065 H 
ATOM     23  H   UNL A   1      31.085  29.483  23.067  1.00  0.00     0.065 H 
ATOM     24  C   UNL A   1      28.340  27.626  23.462  1.00  0.00     0.128 A 
ATOM     25  H   UNL A   1      26.382  28.339  23.139  1.00  0.00     0.066 H 
BRANCH  18  26
ATOM     26  N   UNL A   1      29.549  31.389  22.110  1.00  0.00    -0.399 N 
ATOM     27  H   UNL A   1      30.109  31.486  21.306  1.00  0.00     0.156 HD
ATOM     28  H   UNL A   1      29.272  32.186  22.617  1.00  0.00     0.156 HD
ENDBRANCH  18  26
BRANCH  24  29
ATOM     29  O   UNL A   1      27.835  26.429  23.903  1.00  0.00    -0.507 OA
ATOM     30  H   UNL A   1      28.263  25.967  24.597  1.00  0.00     0.293 HD
ENDBRANCH  24  29
ENDBRANCH  14  17
ENDBRANCH  10  13
ENDBRANCH   7  10
ENDBRANCH   4   7
ENDBRANCH   1   4
BRANCH   1  31
ATOM     31  C   UNL A   1      31.306  32.172  26.536  1.00  0.00    -0.036 C 
ATOM     32  H   UNL A   1      30.503  32.161  27.243  1.00  0.00     0.028 H 
ATOM     33  H   UNL A   1      31.109  32.802  25.693  1.00  0.00     0.028 H 
BRANCH  31  34
ATOM     34  C   UNL A   1      32.542  32.739  27.226  1.00  0.00     0.018 C 
ATOM     35  H   UNL A   1      33.380  32.648  26.567  1.00  0.00     0.049 H 
ATOM     36  H   UNL A   1      32.702  32.188  28.130  1.00  0.00     0.049 H 
BRANCH  34  37
ATOM     37  N   UNL A   1      32.368  34.140  27.576  1.00  0.00    -0.352 N 
ATOM     38  C   UNL A   1      32.981  34.875  28.559  1.00  0.00     0.251 C 
ATOM     39  H   UNL A   1      31.716  34.634  27.027  1.00  0.00     0.163 HD
ATOM     40  O   UNL A   1      32.553  35.983  28.862  1.00  0.00    -0.269 OA
BRANCH  38  41
ATOM     41  C   UNL A   1      34.157  34.323  29.265  1.00  0.00     0.039 A 
ATOM     42  C   UNL A   1      33.959  33.592  30.439  1.00  0.00    -0.049 A 
ATOM     43  C   UNL A   1      35.450  34.548  28.784  1.00  0.00    -0.049 A 
ATOM     44  C   UNL A   1      35.057  33.042  31.104  1.00  0.00    -0.053 A 
ATOM     45  H   UNL A   1      33.007  33.460  30.813  1.00  0.00     0.063 H 
ATOM     46  C   UNL A   1      36.537  33.941  29.409  1.00  0.00    -0.053 A 
ATOM     47  H   UNL A   1      35.600  35.160  27.968  1.00  0.00     0.063 H 
ATOM     48  C   UNL A   1      36.351  33.189  30.579  1.00  0.00    -0.014 A 
ATOM     49  H   UNL A   1      34.916  32.524  31.986  1.00  0.00     0.063 H 
ATOM     50  H   UNL A   1      37.482  34.047  29.011  1.00  0.00     0.063 H 
BRANCH  48  51
ATOM     51  C   UNL A   1      37.525  32.567  31.243  1.00  0.00     0.031 A 
ATOM     52  C   UNL A   1      38.268  31.448  30.567  1.00  0.00     0.074 A 
ATOM     53  C   UNL A   1      37.880  32.968  32.479  1.00  0.00     0.049 A 
ATOM     54  N   UNL A   1      39.268  30.731  31.013  1.00  0.00    -0.248 NA
ATOM     55  C   UNL A   1      37.811  31.067  29.222  1.00  0.00    -0.034 C 
ATOM     56  C   UNL A   1      37.210  34.014  33.253  1.00  0.00    -0.036 A 
ATOM     57  N   UNL A   1      38.886  32.535  33.306  1.00  0.00    -0.354 N 
ATOM     58  C   UNL A   1      39.545  29.806  30.015  1.00  0.00     0.074 A 
ATOM     59  C   UNL A   1      38.579  30.021  28.958  1.00  0.00    -0.034 C 
ATOM     60  H   UNL A   1      37.081  31.502  28.635  1.00  0.00     0.065 H 
ATOM     61  C   UNL A   1      37.835  34.155  34.433  1.00  0.00    -0.036 A 
ATOM     62  H   UNL A   1      36.389  34.555  32.942  1.00  0.00     0.065 H 
ATOM     63  C   UNL A   1      38.924  33.186  34.514  1.00  0.00     0.049 A 
ATOM     64  H   UNL A   1      39.520  31.825  33.056  1.00  0.00     0.167 HD
ATOM     65  C   UNL A   1      40.530  28.877  29.974  1.00  0.00     0.037 A 
ATOM     66  H   UNL A   1      38.500  29.436  28.112  1.00  0.00     0.065 H 
ATOM     67  H   UNL A   1      37.586  34.839  35.165  1.00  0.00     0.065 H 
ATOM     68  C   UNL A   1      39.742  33.015  35.571  1.00  0.00     0.037 A 
ATOM     69  C   UNL A   1      41.509  28.690  31.012  1.00  0.00     0.049 A 
ATOM     70  C   UNL A   1      40.825  31.974  35.498  1.00  0.00     0.074 A 
ATOM     71  C   UNL A   1      42.586  27.822  31.035  1.00  0.00    -0.036 A 
ATOM     72  N   UNL A   1      41.527  29.382  32.214  1.00  0.00    -0.354 N 
ATOM     73  N   UNL A   1      41.121  31.154  34.519  1.00  0.00    -0.248 NA
ATOM     74  C   UNL A   1      41.693  31.839  36.676  1.00  0.00    -0.034 C 
ATOM     75  C   UNL A   1      43.229  27.956  32.269  1.00  0.00    -0.036 A 
ATOM     76  H   UNL A   1      42.867  27.186  30.273  1.00  0.00     0.065 H 
ATOM     77  C   UNL A   1      42.583  28.944  32.995  1.00  0.00     0.049 A 
ATOM     78  H   UNL A   1      40.884  30.082  32.473  1.00  0.00     0.167 HD
ATOM     79  C   UNL A   1      42.226  30.430  34.948  1.00  0.00     0.074 A 
ATOM     80  C   UNL A   1      42.556  30.917  36.271  1.00  0.00    -0.034 C 
ATOM     81  H   UNL A   1      41.643  32.331  37.581  1.00  0.00     0.065 H 
ATOM     82  H   UNL A   1      44.047  27.411  32.586  1.00  0.00     0.065 H 
ATOM     83  C   UNL A   1      42.906  29.450  34.304  1.00  0.00     0.037 A 
ATOM     84  H   UNL A   1      43.360  30.589  36.828  1.00  0.00     0.065 H 
BRANCH  65  85
ATOM     85  C   UNL A   1      40.605  27.992  28.763  1.00  0.00     0.064 A 
ATOM     86  C   UNL A   1      39.901  26.781  28.692  1.00  0.00     0.173 A 
ATOM     87  C   UNL A   1      41.350  28.386  27.641  1.00  0.00     0.173 A 
ATOM     88  F   UNL A   1      39.183  26.354  29.741  1.00  0.00    -0.203 F 
ATOM     89  C   UNL A   1      39.959  25.984  27.550  1.00  0.00     0.198 A 
ATOM     90  C   UNL A   1      41.381  27.601  26.490  1.00  0.00     0.198 A 
ATOM     91  F   UNL A   1      42.037  29.537  27.653  1.00  0.00    -0.203 F 
ATOM     92  F   UNL A   1      39.312  24.811  27.521  1.00  0.00    -0.200 F 
ATOM     93  C   UNL A   1      40.691  26.399  26.449  1.00  0.00     0.200 A 
ATOM     94  F   UNL A   1      42.079  28.010  25.421  1.00  0.00    -0.200 F 
ATOM     95  F   UNL A   1      40.736  25.638  25.346  1.00  0.00    -0.200 F 
ENDBRANCH  65  85
BRANCH  68  96
ATOM     96  C   UNL A   1      39.584  33.863  36.781  1.00  0.00     0.064 A 
ATOM     97  C   UNL A   1      38.805  33.431  37.865  1.00  0.00     0.173 A 
ATOM     98  C   UNL A   1      40.189  35.124  36.876  1.00  0.00     0.173 A 
ATOM     99  F   UNL A   1      38.190  32.240  37.814  1.00  0.00    -0.203 F 
ATOM    100  C   UNL A   1      38.617  34.239  38.984  1.00  0.00     0.198 A 
ATOM    101  C   UNL A   1      40.025  35.919  38.008  1.00  0.00     0.198 A 
ATOM    102  F   UNL A   1      40.948  35.582  35.869  1.00  0.00    -0.203 F 
ATOM    103  F   UNL A   1      37.827  33.822  39.982  1.00  0.00    -0.200 F 
ATOM    104  C   UNL A   1      39.231  35.480  39.058  1.00  0.00     0.200 A 
ATOM    105  F   UNL A   1      40.631  37.112  38.081  1.00  0.00    -0.200 F 
ATOM    106  F   UNL A   1      39.050  36.256  40.134  1.00  0.00    -0.200 F 
ENDBRANCH  68  96
BRANCH  83 107
ATOM    107  C   UNL A   1      44.099  28.868  35.003  1.00  0.00     0.064 A 
ATOM    108  C   UNL A   1      45.377  29.430  34.871  1.00  0.00     0.173 A 
ATOM    109  C   UNL A   1      43.953  27.757  35.848  1.00  0.00     0.173 A 
ATOM    110  F   UNL A   1      45.572  30.483  34.062  1.00  0.00    -0.203 F 
ATOM    111  C   UNL A   1      46.471  28.885  35.539  1.00  0.00     0.198 A 
ATOM    112  C   UNL A   1      45.042  27.234  36.539  1.00  0.00     0.198 A 
ATOM    113  F   UNL A   1      42.750  27.187  36.014  1.00  0.00    -0.203 F 
ATOM    114  F   UNL A   1      47.692  29.408  35.360  1.00  0.00    -0.200 F 
ATOM    115  C   UNL A   1      46.301  27.792  36.378  1.00  0.00     0.200 A 
ATOM    116  F   UNL A   1      44.875  26.188  37.359  1.00  0.00    -0.200 F 
ATOM    117  F   UNL A   1      47.354  27.275  37.027  1.00  0.00    -0.200 F 
ENDBRANCH  83 107
ENDBRANCH  48  51
ENDBRANCH  38  41
ENDBRANCH  34  37
ENDBRANCH  31  34
ENDBRANCH   1  31
TORSDOF 15
ENDMDL
MODEL 3
REMARK VINA RESULT:     -11.7      0.694      7.599
REMARK SMILES Nc1ccc(O)c(C(=O)NCCCCCCNC(=O)c2ccc(-c3c4nc(c(-c5c(F)c(F)c(F)c(F)c5F)c5ccc([nH]5)c(-c5c(F)c(F)c(F)c(F)c5F)c5nc(c(-c6c(F)c(F)c(F)c(F)c6F)c6ccc3[nH]6)C=C5)C=C4)cc2)c1
REMARK SMILES IDX 14 1 13 4 12 7 11 10 10 13 8 14 9 15 7 17 2 18 3 19 83 20
REMARK SMILES IDX 4 21 5 24 1 26 6 29 15 31 16 34 17 37 18 38 19 40 20 41
REMARK SMILES IDX 21 42 82 43 22 44 81 46 23 48 24 51 25 52 75 53 26 54 80 55
REMARK SMILES IDX 74 56 76 57 27 58 79 59 73 61 72 63 28 65 60 68 40 69 59 70
REMARK SMILES IDX 41 71 44 72 58 73 77 74 42 75 43 77 57 79 78 80 45 83 29 85
REMARK SMILES IDX 30 86 38 87 31 88 32 89 36 90 39 91 33 92 34 93 37 94 35 95
REMARK SMILES IDX 61 96 62 97 70 98 63 99 64 100 68 101 71 102 65 103 66 104
REMARK SMILES IDX 69 105 67 106 46 107 47 108 55 109 48 110 49 111 53 112
REMARK SMILES IDX 56 113 50 114 51 115 54 116 52 117
REMARK H PARENT 14 2 14 3 13 5 13 6 12 8 12 9 11 11 11 12 10 16 3 22 83 23
REMARK H PARENT 4 25 1 27 1 28 6 30 15 32 15 33 16 35 16 36 17 39 21 45 82 47
REMARK H PARENT 22 49 81 50 80 60 74 62 76 64 79 66 73 67 41 76 44 78 77 81
REMARK H PARENT 42 82 78 84
REMARK Flexibility Score: inf
ROOT
ATOM      1  C   UNL A   1      31.340  30.771  25.883  1.00  0.00    -0.052 C 
ATOM      2  H   UNL A   1      30.516  30.192  26.242  1.00  0.00     0.027 H 
ATOM      3  H   UNL A   1      31.331  30.908  24.821  1.00  0.00     0.027 H 
ENDROOT
BRANCH   1   4
ATOM      4  C   UNL A   1      32.634  30.013  26.207  1.00  0.00    -0.052 C 
ATOM      5  H   UNL A   1      33.231  29.981  25.319  1.00  0.00     0.027 H 
ATOM      6  H   UNL A   1      33.099  30.544  27.011  1.00  0.00     0.027 H 
BRANCH   4   7
ATOM      7  C   UNL A   1      32.434  28.571  26.700  1.00  0.00    -0.036 C 
ATOM      8  H   UNL A   1      33.360  28.045  26.598  1.00  0.00     0.028 H 
ATOM      9  H   UNL A   1      32.113  28.625  27.719  1.00  0.00     0.028 H 
BRANCH   7  10
ATOM     10  C   UNL A   1      31.355  27.814  25.921  1.00  0.00     0.018 C 
ATOM     11  H   UNL A   1      31.083  26.930  26.459  1.00  0.00     0.049 H 
ATOM     12  H   UNL A   1      30.497  28.442  25.804  1.00  0.00     0.049 H 
BRANCH  10  13
ATOM     13  N   UNL A   1      31.861  27.446  24.614  1.00  0.00    -0.352 N 
ATOM     14  C   UNL A   1      31.389  27.581  23.337  1.00  0.00     0.255 C 
ATOM     15  O   UNL A   1      32.096  27.113  22.439  1.00  0.00    -0.269 OA
ATOM     16  H   UNL A   1      32.738  27.003  24.654  1.00  0.00     0.163 HD
BRANCH  14  17
ATOM     17  C   UNL A   1      30.143  28.301  22.943  1.00  0.00     0.083 A 
ATOM     18  C   UNL A   1      27.727  28.674  22.987  1.00  0.00     0.032 A 
ATOM     19  C   UNL A   1      27.890  29.824  22.217  1.00  0.00    -0.035 A 
ATOM     20  C   UNL A   1      28.848  27.881  23.272  1.00  0.00    -0.023 A 
ATOM     21  C   UNL A   1      29.159  30.222  21.804  1.00  0.00    -0.017 A 
ATOM     22  H   UNL A   1      27.065  30.385  21.951  1.00  0.00     0.065 H 
ATOM     23  H   UNL A   1      28.716  26.968  23.736  1.00  0.00     0.065 H 
ATOM     24  C   UNL A   1      30.272  29.473  22.173  1.00  0.00     0.128 A 
ATOM     25  H   UNL A   1      29.273  31.069  21.225  1.00  0.00     0.066 H 
BRANCH  18  26
ATOM     26  N   UNL A   1      26.455  28.252  23.349  1.00  0.00    -0.399 N 
ATOM     27  H   UNL A   1      26.344  27.590  24.070  1.00  0.00     0.156 HD
ATOM     28  H   UNL A   1      25.666  28.613  22.886  1.00  0.00     0.156 HD
ENDBRANCH  18  26
BRANCH  24  29
ATOM     29  O   UNL A   1      31.476  29.955  21.722  1.00  0.00    -0.507 OA
ATOM     30  H   UNL A   1      32.234  29.910  22.272  1.00  0.00     0.293 HD
ENDBRANCH  24  29
ENDBRANCH  14  17
ENDBRANCH  10  13
ENDBRANCH   7  10
ENDBRANCH   4   7
ENDBRANCH   1   4
BRANCH   1  31
ATOM     31  C   UNL A   1      31.240  32.170  26.496  1.00  0.00    -0.036 C 
ATOM     32  H   UNL A   1      30.486  32.151  27.254  1.00  0.00     0.028 H 
ATOM     33  H   UNL A   1      31.007  32.840  25.694  1.00  0.00     0.028 H 
BRANCH  31  34
ATOM     34  C   UNL A   1      32.536  32.674  27.125  1.00  0.00     0.018 C 
ATOM     35  H   UNL A   1      33.324  32.595  26.405  1.00  0.00     0.049 H 
ATOM     36  H   UNL A   1      32.741  32.075  27.988  1.00  0.00     0.049 H 
BRANCH  34  37
ATOM     37  N   UNL A   1      32.424  34.059  27.550  1.00  0.00    -0.352 N 
ATOM     38  C   UNL A   1      33.076  34.714  28.564  1.00  0.00     0.251 C 
ATOM     39  H   UNL A   1      31.787  34.608  27.037  1.00  0.00     0.163 HD
ATOM     40  O   UNL A   1      32.698  35.821  28.931  1.00  0.00    -0.269 OA
BRANCH  38  41
ATOM     41  C   UNL A   1      34.236  34.077  29.225  1.00  0.00     0.039 A 
ATOM     42  C   UNL A   1      34.006  33.142  30.238  1.00  0.00    -0.049 A 
ATOM     43  C   UNL A   1      35.542  34.420  28.865  1.00  0.00    -0.049 A 
ATOM     44  C   UNL A   1      35.089  32.511  30.855  1.00  0.00    -0.053 A 
ATOM     45  H   UNL A   1      33.042  32.919  30.528  1.00  0.00     0.063 H 
ATOM     46  C   UNL A   1      36.617  33.741  29.432  1.00  0.00    -0.053 A 
ATOM     47  H   UNL A   1      35.709  35.173  28.180  1.00  0.00     0.063 H 
ATOM     48  C   UNL A   1      36.402  32.786  30.437  1.00  0.00    -0.014 A 
ATOM     49  H   UNL A   1      34.923  31.840  31.620  1.00  0.00     0.063 H 
ATOM     50  H   UNL A   1      37.577  33.943  29.113  1.00  0.00     0.063 H 
BRANCH  48  51
ATOM     51  C   UNL A   1      37.563  32.088  31.044  1.00  0.00     0.031 A 
ATOM     52  C   UNL A   1      38.047  32.482  32.412  1.00  0.00     0.074 A 
ATOM     53  C   UNL A   1      38.217  31.146  30.338  1.00  0.00     0.049 A 
ATOM     54  N   UNL A   1      39.084  32.044  33.081  1.00  0.00    -0.248 NA
ATOM     55  C   UNL A   1      37.280  33.523  33.112  1.00  0.00    -0.034 C 
ATOM     56  C   UNL A   1      37.868  30.709  28.985  1.00  0.00    -0.036 A 
ATOM     57  N   UNL A   1      39.321  30.394  30.656  1.00  0.00    -0.354 N 
ATOM     58  C   UNL A   1      39.103  32.767  34.266  1.00  0.00     0.074 A 
ATOM     59  C   UNL A   1      38.002  33.705  34.207  1.00  0.00    -0.034 C 
ATOM     60  H   UNL A   1      36.405  33.991  32.825  1.00  0.00     0.065 H 
ATOM     61  C   UNL A   1      38.727  29.753  28.597  1.00  0.00    -0.036 A 
ATOM     62  H   UNL A   1      37.088  31.078  28.421  1.00  0.00     0.065 H 
ATOM     63  C   UNL A   1      39.709  29.536  29.656  1.00  0.00     0.049 A 
ATOM     64  H   UNL A   1      39.789  30.464  31.519  1.00  0.00     0.167 HD
ATOM     65  C   UNL A   1      39.948  32.644  35.317  1.00  0.00     0.037 A 
ATOM     66  H   UNL A   1      37.807  34.422  34.924  1.00  0.00     0.065 H 
ATOM     67  H   UNL A   1      38.698  29.252  27.695  1.00  0.00     0.065 H 
ATOM     68  C   UNL A   1      40.744  28.676  29.599  1.00  0.00     0.037 A 
ATOM     69  C   UNL A   1      41.021  31.687  35.385  1.00  0.00     0.049 A 
ATOM     70  C   UNL A   1      41.668  28.563  30.781  1.00  0.00     0.074 A 
ATOM     71  C   UNL A   1      41.890  31.438  36.432  1.00  0.00    -0.036 A 
ATOM     72  N   UNL A   1      41.371  30.820  34.360  1.00  0.00    -0.354 N 
ATOM     73  N   UNL A   1      41.633  29.203  31.924  1.00  0.00    -0.248 NA
ATOM     74  C   UNL A   1      42.774  27.602  30.666  1.00  0.00    -0.034 C 
ATOM     75  C   UNL A   1      42.795  30.454  36.025  1.00  0.00    -0.036 A 
ATOM     76  H   UNL A   1      41.873  31.900  37.355  1.00  0.00     0.065 H 
ATOM     77  C   UNL A   1      42.458  30.052  34.742  1.00  0.00     0.049 A 
ATOM     78  H   UNL A   1      40.914  30.760  33.490  1.00  0.00     0.167 HD
ATOM     79  C   UNL A   1      42.688  28.701  32.675  1.00  0.00     0.074 A 
ATOM     80  C   UNL A   1      43.336  27.693  31.863  1.00  0.00    -0.034 C 
ATOM     81  H   UNL A   1      43.043  27.012  29.864  1.00  0.00     0.065 H 
ATOM     82  H   UNL A   1      43.581  30.088  36.585  1.00  0.00     0.065 H 
ATOM     83  C   UNL A   1      43.083  29.044  33.926  1.00  0.00     0.037 A 
ATOM     84  H   UNL A   1      44.134  27.119  32.176  1.00  0.00     0.065 H 
BRANCH  65  85
ATOM     85  C   UNL A   1      39.747  33.564  36.486  1.00  0.00     0.064 A 
ATOM     86  C   UNL A   1      40.365  34.822  36.549  1.00  0.00     0.173 A 
ATOM     87  C   UNL A   1      38.883  33.205  37.532  1.00  0.00     0.173 A 
ATOM     88  F   UNL A   1      41.207  35.209  35.580  1.00  0.00    -0.203 F 
ATOM     89  C   UNL A   1      40.146  35.676  37.628  1.00  0.00     0.198 A 
ATOM     90  C   UNL A   1      38.644  34.073  38.595  1.00  0.00     0.198 A 
ATOM     91  F   UNL A   1      38.262  32.016  37.520  1.00  0.00    -0.203 F 
ATOM     92  F   UNL A   1      40.781  36.854  37.687  1.00  0.00    -0.200 F 
ATOM     93  C   UNL A   1      39.280  35.304  38.644  1.00  0.00     0.200 A 
ATOM     94  F   UNL A   1      37.795  33.718  39.570  1.00  0.00    -0.200 F 
ATOM     95  F   UNL A   1      39.060  36.132  39.676  1.00  0.00    -0.200 F 
ENDBRANCH  65  85
BRANCH  68  96
ATOM     96  C   UNL A   1      40.952  27.838  28.390  1.00  0.00     0.064 A 
ATOM     97  C   UNL A   1      41.749  28.291  27.329  1.00  0.00     0.173 A 
ATOM     98  C   UNL A   1      40.347  26.579  28.259  1.00  0.00     0.173 A 
ATOM     99  F   UNL A   1      42.333  29.496  27.399  1.00  0.00    -0.203 F 
ATOM    100  C   UNL A   1      41.913  27.529  26.174  1.00  0.00     0.198 A 
ATOM    101  C   UNL A   1      40.535  25.805  27.116  1.00  0.00     0.198 A 
ATOM    102  F   UNL A   1      39.578  26.098  29.247  1.00  0.00    -0.203 F 
ATOM    103  F   UNL A   1      42.639  28.009  25.156  1.00  0.00    -0.200 F 
ATOM    104  C   UNL A   1      41.310  26.285  26.070  1.00  0.00     0.200 A 
ATOM    105  F   UNL A   1      39.962  24.598  27.026  1.00  0.00    -0.200 F 
ATOM    106  F   UNL A   1      41.467  25.553  24.960  1.00  0.00    -0.200 F 
ENDBRANCH  68  96
BRANCH  83 107
ATOM    107  C   UNL A   1      44.245  28.295  34.509  1.00  0.00     0.064 A 
ATOM    108  C   UNL A   1      44.072  27.091  35.206  1.00  0.00     0.173 A 
ATOM    109  C   UNL A   1      45.554  28.770  34.332  1.00  0.00     0.173 A 
ATOM    110  F   UNL A   1      42.839  26.603  35.415  1.00  0.00    -0.203 F 
ATOM    111  C   UNL A   1      45.164  26.402  35.727  1.00  0.00     0.198 A 
ATOM    112  C   UNL A   1      46.646  28.064  34.827  1.00  0.00     0.198 A 
ATOM    113  F   UNL A   1      45.774  29.914  33.667  1.00  0.00    -0.203 F 
ATOM    114  F   UNL A   1      44.971  25.278  36.431  1.00  0.00    -0.200 F 
ATOM    115  C   UNL A   1      46.450  26.885  35.531  1.00  0.00     0.200 A 
ATOM    116  F   UNL A   1      47.888  28.524  34.625  1.00  0.00    -0.200 F 
ATOM    117  F   UNL A   1      47.501  26.216  36.026  1.00  0.00    -0.200 F 
ENDBRANCH  83 107
ENDBRANCH  48  51
ENDBRANCH  38  41
ENDBRANCH  34  37
ENDBRANCH  31  34
ENDBRANCH   1  31
TORSDOF 15
ENDMDL
MODEL 4
REMARK VINA RESULT:     -11.7      4.399     10.265
REMARK SMILES Nc1ccc(O)c(C(=O)NCCCCCCNC(=O)c2ccc(-c3c4nc(c(-c5c(F)c(F)c(F)c(F)c5F)c5ccc([nH]5)c(-c5c(F)c(F)c(F)c(F)c5F)c5nc(c(-c6c(F)c(F)c(F)c(F)c6F)c6ccc3[nH]6)C=C5)C=C4)cc2)c1
REMARK SMILES IDX 14 1 13 4 12 7 11 10 10 13 8 14 9 15 7 17 2 18 3 19 83 20
REMARK SMILES IDX 4 21 5 24 1 26 6 29 15 31 16 34 17 37 18 38 19 40 20 41
REMARK SMILES IDX 21 42 82 43 22 44 81 46 23 48 24 51 25 52 75 53 26 54 80 55
REMARK SMILES IDX 74 56 76 57 27 58 79 59 73 61 72 63 28 65 60 68 40 69 59 70
REMARK SMILES IDX 41 71 44 72 58 73 77 74 42 75 43 77 57 79 78 80 45 83 29 85
REMARK SMILES IDX 30 86 38 87 31 88 32 89 36 90 39 91 33 92 34 93 37 94 35 95
REMARK SMILES IDX 61 96 62 97 70 98 63 99 64 100 68 101 71 102 65 103 66 104
REMARK SMILES IDX 69 105 67 106 46 107 47 108 55 109 48 110 49 111 53 112
REMARK SMILES IDX 56 113 50 114 51 115 54 116 52 117
REMARK H PARENT 14 2 14 3 13 5 13 6 12 8 12 9 11 11 11 12 10 16 3 22 83 23
REMARK H PARENT 4 25 1 27 1 28 6 30 15 32 15 33 16 35 16 36 17 39 21 45 82 47
REMARK H PARENT 22 49 81 50 80 60 74 62 76 64 79 66 73 67 41 76 44 78 77 81
REMARK H PARENT 42 82 78 84
REMARK Flexibility Score: inf
ROOT
ATOM      1  C   UNL A   1      36.946  33.507  28.744  1.00  0.00    -0.052 C 
ATOM      2  H   UNL A   1      37.658  33.123  28.044  1.00  0.00     0.027 H 
ATOM      3  H   UNL A   1      37.019  34.565  28.885  1.00  0.00     0.027 H 
ENDROOT
BRANCH   1   4
ATOM      4  C   UNL A   1      37.231  32.871  30.111  1.00  0.00    -0.052 C 
ATOM      5  H   UNL A   1      36.320  32.441  30.473  1.00  0.00     0.027 H 
ATOM      6  H   UNL A   1      38.004  32.149  29.951  1.00  0.00     0.027 H 
BRANCH   4   7
ATOM      7  C   UNL A   1      37.760  33.841  31.179  1.00  0.00    -0.036 C 
ATOM      8  H   UNL A   1      38.829  33.796  31.180  1.00  0.00     0.028 H 
ATOM      9  H   UNL A   1      37.399  34.817  30.931  1.00  0.00     0.028 H 
BRANCH   7  10
ATOM     10  C   UNL A   1      37.258  33.514  32.588  1.00  0.00     0.018 C 
ATOM     11  H   UNL A   1      37.929  32.822  33.052  1.00  0.00     0.049 H 
ATOM     12  H   UNL A   1      37.215  34.414  33.166  1.00  0.00     0.049 H 
BRANCH  10  13
ATOM     13  N   UNL A   1      35.935  32.927  32.515  1.00  0.00    -0.352 N 
ATOM     14  C   UNL A   1      34.667  33.440  32.463  1.00  0.00     0.255 C 
ATOM     15  O   UNL A   1      33.745  32.618  32.433  1.00  0.00    -0.269 OA
ATOM     16  H   UNL A   1      35.953  31.944  32.497  1.00  0.00     0.163 HD
BRANCH  14  17
ATOM     17  C   UNL A   1      34.319  34.887  32.369  1.00  0.00     0.083 A 
ATOM     18  C   UNL A   1      33.579  36.883  31.167  1.00  0.00     0.032 A 
ATOM     19  C   UNL A   1      33.575  37.601  32.362  1.00  0.00    -0.035 A 
ATOM     20  C   UNL A   1      34.029  35.556  31.172  1.00  0.00    -0.023 A 
ATOM     21  C   UNL A   1      33.939  36.985  33.556  1.00  0.00    -0.017 A 
ATOM     22  H   UNL A   1      33.301  38.597  32.362  1.00  0.00     0.065 H 
ATOM     23  H   UNL A   1      34.150  35.060  30.275  1.00  0.00     0.065 H 
ATOM     24  C   UNL A   1      34.297  35.640  33.559  1.00  0.00     0.128 A 
ATOM     25  H   UNL A   1      33.944  37.524  34.436  1.00  0.00     0.066 H 
BRANCH  18  26
ATOM     26  N   UNL A   1      33.268  37.517  29.972  1.00  0.00    -0.399 N 
ATOM     27  H   UNL A   1      32.955  36.989  29.202  1.00  0.00     0.156 HD
ATOM     28  H   UNL A   1      33.362  38.494  29.894  1.00  0.00     0.156 HD
ENDBRANCH  18  26
BRANCH  24  29
ATOM     29  O   UNL A   1      34.630  35.126  34.787  1.00  0.00    -0.507 OA
ATOM     30  H   UNL A   1      34.117  34.437  35.161  1.00  0.00     0.293 HD
ENDBRANCH  24  29
ENDBRANCH  14  17
ENDBRANCH  10  13
ENDBRANCH   7  10
ENDBRANCH   4   7
ENDBRANCH   1   4
BRANCH   1  31
ATOM     31  C   UNL A   1      35.544  33.244  28.188  1.00  0.00    -0.036 C 
ATOM     32  H   UNL A   1      35.645  32.731  27.255  1.00  0.00     0.028 H 
ATOM     33  H   UNL A   1      35.070  34.198  28.089  1.00  0.00     0.028 H 
BRANCH  31  34
ATOM     34  C   UNL A   1      34.654  32.406  29.101  1.00  0.00     0.018 C 
ATOM     35  H   UNL A   1      33.867  33.023  29.480  1.00  0.00     0.049 H 
ATOM     36  H   UNL A   1      35.260  32.023  29.896  1.00  0.00     0.049 H 
BRANCH  34  37
ATOM     37  N   UNL A   1      34.069  31.278  28.393  1.00  0.00    -0.352 N 
ATOM     38  C   UNL A   1      34.678  30.160  27.883  1.00  0.00     0.251 C 
ATOM     39  H   UNL A   1      33.094  31.323  28.261  1.00  0.00     0.163 HD
ATOM     40  O   UNL A   1      34.071  29.417  27.119  1.00  0.00    -0.269 OA
BRANCH  38  41
ATOM     41  C   UNL A   1      36.079  29.854  28.246  1.00  0.00     0.039 A 
ATOM     42  C   UNL A   1      36.353  29.357  29.522  1.00  0.00    -0.049 A 
ATOM     43  C   UNL A   1      37.119  30.083  27.340  1.00  0.00    -0.049 A 
ATOM     44  C   UNL A   1      37.667  29.038  29.873  1.00  0.00    -0.053 A 
ATOM     45  H   UNL A   1      35.589  29.225  30.202  1.00  0.00     0.063 H 
ATOM     46  C   UNL A   1      38.417  29.701  27.666  1.00  0.00    -0.053 A 
ATOM     47  H   UNL A   1      36.925  30.532  26.432  1.00  0.00     0.063 H 
ATOM     48  C   UNL A   1      38.705  29.181  28.938  1.00  0.00    -0.014 A 
ATOM     49  H   UNL A   1      37.875  28.695  30.824  1.00  0.00     0.063 H 
ATOM     50  H   UNL A   1      39.172  29.801  26.970  1.00  0.00     0.063 H 
BRANCH  48  51
ATOM     51  C   UNL A   1      40.100  28.799  29.274  1.00  0.00     0.031 A 
ATOM     52  C   UNL A   1      40.959  29.726  30.089  1.00  0.00     0.074 A 
ATOM     53  C   UNL A   1      40.609  27.650  28.792  1.00  0.00     0.049 A 
ATOM     54  N   UNL A   1      42.219  29.606  30.424  1.00  0.00    -0.248 NA
ATOM     55  C   UNL A   1      40.326  30.964  30.570  1.00  0.00    -0.034 C 
ATOM     56  C   UNL A   1      39.887  26.690  27.955  1.00  0.00    -0.036 A 
ATOM     57  N   UNL A   1      41.859  27.098  28.927  1.00  0.00    -0.354 N 
ATOM     58  C   UNL A   1      42.532  30.756  31.136  1.00  0.00     0.074 A 
ATOM     59  C   UNL A   1      41.345  31.584  31.146  1.00  0.00    -0.034 C 
ATOM     60  H   UNL A   1      39.344  31.270  30.482  1.00  0.00     0.065 H 
ATOM     61  C   UNL A   1      40.699  25.659  27.668  1.00  0.00    -0.036 A 
ATOM     62  H   UNL A   1      38.912  26.791  27.636  1.00  0.00     0.065 H 
ATOM     63  C   UNL A   1      42.008  25.903  28.268  1.00  0.00     0.049 A 
ATOM     64  H   UNL A   1      42.580  27.520  29.447  1.00  0.00     0.167 HD
ATOM     65  C   UNL A   1      43.697  31.082  31.745  1.00  0.00     0.037 A 
ATOM     66  H   UNL A   1      41.300  32.534  31.548  1.00  0.00     0.065 H 
ATOM     67  H   UNL A   1      40.439  24.829  27.113  1.00  0.00     0.065 H 
ATOM     68  C   UNL A   1      43.081  25.097  28.155  1.00  0.00     0.037 A 
ATOM     69  C   UNL A   1      44.864  30.239  31.760  1.00  0.00     0.049 A 
ATOM     70  C   UNL A   1      44.363  25.486  28.840  1.00  0.00     0.074 A 
ATOM     71  C   UNL A   1      46.070  30.448  32.406  1.00  0.00    -0.036 A 
ATOM     72  N   UNL A   1      44.971  29.026  31.098  1.00  0.00    -0.354 N 
ATOM     73  N   UNL A   1      44.626  26.543  29.570  1.00  0.00    -0.248 NA
ATOM     74  C   UNL A   1      45.499  24.564  28.691  1.00  0.00    -0.034 C 
ATOM     75  C   UNL A   1      46.922  29.384  32.096  1.00  0.00    -0.036 A 
ATOM     76  H   UNL A   1      46.301  31.252  33.011  1.00  0.00     0.065 H 
ATOM     77  C   UNL A   1      46.230  28.486  31.300  1.00  0.00     0.049 A 
ATOM     78  H   UNL A   1      44.256  28.609  30.563  1.00  0.00     0.167 HD
ATOM     79  C   UNL A   1      45.940  26.398  29.993  1.00  0.00     0.074 A 
ATOM     80  C   UNL A   1      46.418  25.145  29.449  1.00  0.00    -0.034 C 
ATOM     81  H   UNL A   1      45.563  23.695  28.140  1.00  0.00     0.065 H 
ATOM     82  H   UNL A   1      47.901  29.284  32.408  1.00  0.00     0.065 H 
ATOM     83  C   UNL A   1      46.684  27.230  30.762  1.00  0.00     0.037 A 
ATOM     84  H   UNL A   1      47.356  24.753  29.628  1.00  0.00     0.065 H 
BRANCH  65  85
ATOM     85  C   UNL A   1      43.770  32.404  32.452  1.00  0.00     0.064 A 
ATOM     86  C   UNL A   1      43.427  32.534  33.806  1.00  0.00     0.173 A 
ATOM     87  C   UNL A   1      44.239  33.543  31.781  1.00  0.00     0.173 A 
ATOM     88  F   UNL A   1      42.964  31.478  34.491  1.00  0.00    -0.203 F 
ATOM     89  C   UNL A   1      43.527  33.763  34.456  1.00  0.00     0.198 A 
ATOM     90  C   UNL A   1      44.365  34.764  32.441  1.00  0.00     0.198 A 
ATOM     91  F   UNL A   1      44.585  33.473  30.487  1.00  0.00    -0.203 F 
ATOM     92  F   UNL A   1      43.153  33.873  35.738  1.00  0.00    -0.200 F 
ATOM     93  C   UNL A   1      44.003  34.873  33.776  1.00  0.00     0.200 A 
ATOM     94  F   UNL A   1      44.839  35.832  31.786  1.00  0.00    -0.200 F 
ATOM     95  F   UNL A   1      44.111  36.052  34.405  1.00  0.00    -0.200 F 
ENDBRANCH  65  85
BRANCH  68  96
ATOM     96  C   UNL A   1      42.987  23.832  27.381  1.00  0.00     0.064 A 
ATOM     97  C   UNL A   1      42.534  22.651  27.985  1.00  0.00     0.173 A 
ATOM     98  C   UNL A   1      43.363  23.771  26.031  1.00  0.00     0.173 A 
ATOM     99  F   UNL A   1      42.181  22.656  29.280  1.00  0.00    -0.203 F 
ATOM    100  C   UNL A   1      42.484  21.452  27.278  1.00  0.00     0.198 A 
ATOM    101  C   UNL A   1      43.286  22.578  25.316  1.00  0.00     0.198 A 
ATOM    102  F   UNL A   1      43.799  24.873  25.404  1.00  0.00    -0.203 F 
ATOM    103  F   UNL A   1      42.095  20.329  27.895  1.00  0.00    -0.200 F 
ATOM    104  C   UNL A   1      42.855  21.417  25.943  1.00  0.00     0.200 A 
ATOM    105  F   UNL A   1      43.631  22.551  24.022  1.00  0.00    -0.200 F 
ATOM    106  F   UNL A   1      42.808  20.264  25.262  1.00  0.00    -0.200 F 
ENDBRANCH  68  96
BRANCH  83 107
ATOM    107  C   UNL A   1      48.080  26.792  31.096  1.00  0.00     0.064 A 
ATOM    108  C   UNL A   1      48.348  25.956  32.190  1.00  0.00     0.173 A 
ATOM    109  C   UNL A   1      49.158  27.182  30.287  1.00  0.00     0.173 A 
ATOM    110  F   UNL A   1      47.354  25.568  33.004  1.00  0.00    -0.203 F 
ATOM    111  C   UNL A   1      49.648  25.547  32.477  1.00  0.00     0.198 A 
ATOM    112  C   UNL A   1      50.452  26.746  30.557  1.00  0.00     0.198 A 
ATOM    113  F   UNL A   1      48.954  27.975  29.225  1.00  0.00    -0.203 F 
ATOM    114  F   UNL A   1      49.888  24.788  33.555  1.00  0.00    -0.200 F 
ATOM    115  C   UNL A   1      50.698  25.937  31.656  1.00  0.00     0.200 A 
ATOM    116  F   UNL A   1      51.462  27.112  29.757  1.00  0.00    -0.200 F 
ATOM    117  F   UNL A   1      51.947  25.535  31.928  1.00  0.00    -0.200 F 
ENDBRANCH  83 107
ENDBRANCH  48  51
ENDBRANCH  38  41
ENDBRANCH  34  37
ENDBRANCH  31  34
ENDBRANCH   1  31
TORSDOF 15
ENDMDL
MODEL 5
REMARK VINA RESULT:     -11.6      4.398     10.351
REMARK SMILES Nc1ccc(O)c(C(=O)NCCCCCCNC(=O)c2ccc(-c3c4nc(c(-c5c(F)c(F)c(F)c(F)c5F)c5ccc([nH]5)c(-c5c(F)c(F)c(F)c(F)c5F)c5nc(c(-c6c(F)c(F)c(F)c(F)c6F)c6ccc3[nH]6)C=C5)C=C4)cc2)c1
REMARK SMILES IDX 14 1 13 4 12 7 11 10 10 13 8 14 9 15 7 17 2 18 3 19 83 20
REMARK SMILES IDX 4 21 5 24 1 26 6 29 15 31 16 34 17 37 18 38 19 40 20 41
REMARK SMILES IDX 21 42 82 43 22 44 81 46 23 48 24 51 25 52 75 53 26 54 80 55
REMARK SMILES IDX 74 56 76 57 27 58 79 59 73 61 72 63 28 65 60 68 40 69 59 70
REMARK SMILES IDX 41 71 44 72 58 73 77 74 42 75 43 77 57 79 78 80 45 83 29 85
REMARK SMILES IDX 30 86 38 87 31 88 32 89 36 90 39 91 33 92 34 93 37 94 35 95
REMARK SMILES IDX 61 96 62 97 70 98 63 99 64 100 68 101 71 102 65 103 66 104
REMARK SMILES IDX 69 105 67 106 46 107 47 108 55 109 48 110 49 111 53 112
REMARK SMILES IDX 56 113 50 114 51 115 54 116 52 117
REMARK H PARENT 14 2 14 3 13 5 13 6 12 8 12 9 11 11 11 12 10 16 3 22 83 23
REMARK H PARENT 4 25 1 27 1 28 6 30 15 32 15 33 16 35 16 36 17 39 21 45 82 47
REMARK H PARENT 22 49 81 50 80 60 74 62 76 64 79 66 73 67 41 76 44 78 77 81
REMARK H PARENT 42 82 78 84
REMARK Flexibility Score: inf
ROOT
ATOM      1  C   UNL A   1      36.841  33.511  28.698  1.00  0.00    -0.052 C 
ATOM      2  H   UNL A   1      37.476  33.075  27.955  1.00  0.00     0.027 H 
ATOM      3  H   UNL A   1      36.974  34.568  28.800  1.00  0.00     0.027 H 
ENDROOT
BRANCH   1   4
ATOM      4  C   UNL A   1      37.205  32.899  30.057  1.00  0.00    -0.052 C 
ATOM      5  H   UNL A   1      36.349  32.374  30.425  1.00  0.00     0.027 H 
ATOM      6  H   UNL A   1      38.049  32.264  29.883  1.00  0.00     0.027 H 
BRANCH   4   7
ATOM      7  C   UNL A   1      37.641  33.912  31.128  1.00  0.00    -0.036 C 
ATOM      8  H   UNL A   1      38.707  34.002  31.097  1.00  0.00     0.028 H 
ATOM      9  H   UNL A   1      37.154  34.838  30.908  1.00  0.00     0.028 H 
BRANCH   7  10
ATOM     10  C   UNL A   1      37.227  33.503  32.544  1.00  0.00     0.018 C 
ATOM     11  H   UNL A   1      37.921  32.781  32.922  1.00  0.00     0.049 H 
ATOM     12  H   UNL A   1      37.229  34.367  33.176  1.00  0.00     0.049 H 
BRANCH  10  13
ATOM     13  N   UNL A   1      35.897  32.929  32.520  1.00  0.00    -0.352 N 
ATOM     14  C   UNL A   1      34.634  33.453  32.488  1.00  0.00     0.255 C 
ATOM     15  O   UNL A   1      33.703  32.640  32.503  1.00  0.00    -0.269 OA
ATOM     16  H   UNL A   1      35.905  31.945  32.528  1.00  0.00     0.163 HD
BRANCH  14  17
ATOM     17  C   UNL A   1      34.297  34.900  32.365  1.00  0.00     0.083 A 
ATOM     18  C   UNL A   1      33.575  36.879  31.124  1.00  0.00     0.032 A 
ATOM     19  C   UNL A   1      33.574  37.620  32.304  1.00  0.00    -0.035 A 
ATOM     20  C   UNL A   1      34.015  35.548  31.155  1.00  0.00    -0.023 A 
ATOM     21  C   UNL A   1      33.931  37.024  33.511  1.00  0.00    -0.017 A 
ATOM     22  H   UNL A   1      33.307  38.617  32.284  1.00  0.00     0.065 H 
ATOM     23  H   UNL A   1      34.134  35.034  30.268  1.00  0.00     0.065 H 
ATOM     24  C   UNL A   1      34.277  35.676  33.540  1.00  0.00     0.128 A 
ATOM     25  H   UNL A   1      33.938  37.580  34.380  1.00  0.00     0.066 H 
BRANCH  18  26
ATOM     26  N   UNL A   1      33.273  37.492  29.915  1.00  0.00    -0.399 N 
ATOM     27  H   UNL A   1      32.396  37.339  29.492  1.00  0.00     0.156 HD
ATOM     28  H   UNL A   1      33.933  38.079  29.482  1.00  0.00     0.156 HD
ENDBRANCH  18  26
BRANCH  24  29
ATOM     29  O   UNL A   1      34.604  35.184  34.779  1.00  0.00    -0.507 OA
ATOM     30  H   UNL A   1      33.926  34.952  35.384  1.00  0.00     0.293 HD
ENDBRANCH  24  29
ENDBRANCH  14  17
ENDBRANCH  10  13
ENDBRANCH   7  10
ENDBRANCH   4   7
ENDBRANCH   1   4
BRANCH   1  31
ATOM     31  C   UNL A   1      35.389  33.302  28.263  1.00  0.00    -0.036 C 
ATOM     32  H   UNL A   1      35.390  32.906  27.269  1.00  0.00     0.028 H 
ATOM     33  H   UNL A   1      34.908  34.255  28.330  1.00  0.00     0.028 H 
BRANCH  31  34
ATOM     34  C   UNL A   1      34.598  32.349  29.155  1.00  0.00     0.018 C 
ATOM     35  H   UNL A   1      33.799  32.890  29.616  1.00  0.00     0.049 H 
ATOM     36  H   UNL A   1      35.266  31.949  29.889  1.00  0.00     0.049 H 
BRANCH  34  37
ATOM     37  N   UNL A   1      34.041  31.241  28.396  1.00  0.00    -0.352 N 
ATOM     38  C   UNL A   1      34.674  30.153  27.852  1.00  0.00     0.251 C 
ATOM     39  H   UNL A   1      33.067  31.276  28.252  1.00  0.00     0.163 HD
ATOM     40  O   UNL A   1      34.089  29.431  27.052  1.00  0.00    -0.269 OA
BRANCH  38  41
ATOM     41  C   UNL A   1      36.074  29.855  28.224  1.00  0.00     0.039 A 
ATOM     42  C   UNL A   1      36.342  29.346  29.497  1.00  0.00    -0.049 A 
ATOM     43  C   UNL A   1      37.120  30.101  27.330  1.00  0.00    -0.049 A 
ATOM     44  C   UNL A   1      37.655  29.034  29.855  1.00  0.00    -0.053 A 
ATOM     45  H   UNL A   1      35.573  29.201  30.169  1.00  0.00     0.063 H 
ATOM     46  C   UNL A   1      38.419  29.726  27.662  1.00  0.00    -0.053 A 
ATOM     47  H   UNL A   1      36.930  30.558  26.424  1.00  0.00     0.063 H 
ATOM     48  C   UNL A   1      38.700  29.196  28.930  1.00  0.00    -0.014 A 
ATOM     49  H   UNL A   1      37.859  28.683  30.804  1.00  0.00     0.063 H 
ATOM     50  H   UNL A   1      39.178  29.840  26.973  1.00  0.00     0.063 H 
BRANCH  48  51
ATOM     51  C   UNL A   1      40.095  28.822  29.274  1.00  0.00     0.031 A 
ATOM     52  C   UNL A   1      40.950  29.761  30.079  1.00  0.00     0.074 A 
ATOM     53  C   UNL A   1      40.609  27.668  28.807  1.00  0.00     0.049 A 
ATOM     54  N   UNL A   1      42.209  29.648  30.419  1.00  0.00    -0.248 NA
ATOM     55  C   UNL A   1      40.313  31.002  30.545  1.00  0.00    -0.034 C 
ATOM     56  C   UNL A   1      39.891  26.696  27.980  1.00  0.00    -0.036 A 
ATOM     57  N   UNL A   1      41.860  27.121  28.952  1.00  0.00    -0.354 N 
ATOM     58  C   UNL A   1      42.518  30.808  31.118  1.00  0.00     0.074 A 
ATOM     59  C   UNL A   1      41.329  31.632  31.115  1.00  0.00    -0.034 C 
ATOM     60  H   UNL A   1      39.330  31.304  30.451  1.00  0.00     0.065 H 
ATOM     61  C   UNL A   1      40.706  25.664  27.707  1.00  0.00    -0.036 A 
ATOM     62  H   UNL A   1      38.916  26.790  27.658  1.00  0.00     0.065 H 
ATOM     63  C   UNL A   1      42.013  25.918  28.307  1.00  0.00     0.049 A 
ATOM     64  H   UNL A   1      42.579  27.551  29.468  1.00  0.00     0.167 HD
ATOM     65  C   UNL A   1      43.681  31.143  31.725  1.00  0.00     0.037 A 
ATOM     66  H   UNL A   1      41.280  32.586  31.506  1.00  0.00     0.065 H 
ATOM     67  H   UNL A   1      40.450  24.827  27.162  1.00  0.00     0.065 H 
ATOM     68  C   UNL A   1      43.089  25.115  28.206  1.00  0.00     0.037 A 
ATOM     69  C   UNL A   1      44.850  30.304  31.753  1.00  0.00     0.049 A 
ATOM     70  C   UNL A   1      44.369  25.515  28.889  1.00  0.00     0.074 A 
ATOM     71  C   UNL A   1      46.054  30.525  32.399  1.00  0.00    -0.036 A 
ATOM     72  N   UNL A   1      44.961  29.083  31.106  1.00  0.00    -0.354 N 
ATOM     73  N   UNL A   1      44.626  26.581  29.607  1.00  0.00    -0.248 NA
ATOM     74  C   UNL A   1      45.507  24.595  28.753  1.00  0.00    -0.034 C 
ATOM     75  C   UNL A   1      46.910  29.459  32.103  1.00  0.00    -0.036 A 
ATOM     76  H   UNL A   1      46.281  31.336  32.995  1.00  0.00     0.065 H 
ATOM     77  C   UNL A   1      46.222  28.550  31.317  1.00  0.00     0.049 A 
ATOM     78  H   UNL A   1      44.249  28.659  30.574  1.00  0.00     0.167 HD
ATOM     79  C   UNL A   1      45.941  26.445  30.034  1.00  0.00     0.074 A 
ATOM     80  C   UNL A   1      46.423  25.187  29.506  1.00  0.00    -0.034 C 
ATOM     81  H   UNL A   1      45.574  23.719  28.213  1.00  0.00     0.065 H 
ATOM     82  H   UNL A   1      47.888  29.366  32.419  1.00  0.00     0.065 H 
ATOM     83  C   UNL A   1      46.681  27.288  30.795  1.00  0.00     0.037 A 
ATOM     84  H   UNL A   1      47.362  24.800  29.692  1.00  0.00     0.065 H 
BRANCH  65  85
ATOM     85  C   UNL A   1      43.749  32.474  32.417  1.00  0.00     0.064 A 
ATOM     86  C   UNL A   1      43.412  32.618  33.771  1.00  0.00     0.173 A 
ATOM     87  C   UNL A   1      44.206  33.609  31.730  1.00  0.00     0.173 A 
ATOM     88  F   UNL A   1      42.960  31.567  34.470  1.00  0.00    -0.203 F 
ATOM     89  C   UNL A   1      43.507  33.854  34.406  1.00  0.00     0.198 A 
ATOM     90  C   UNL A   1      44.328  34.838  32.376  1.00  0.00     0.198 A 
ATOM     91  F   UNL A   1      44.546  33.526  30.435  1.00  0.00    -0.203 F 
ATOM     92  F   UNL A   1      43.139  33.977  35.689  1.00  0.00    -0.200 F 
ATOM     93  C   UNL A   1      43.973  34.960  33.710  1.00  0.00     0.200 A 
ATOM     94  F   UNL A   1      44.791  35.902  31.705  1.00  0.00    -0.200 F 
ATOM     95  F   UNL A   1      44.075  36.147  34.325  1.00  0.00    -0.200 F 
ENDBRANCH  65  85
BRANCH  68  96
ATOM     96  C   UNL A   1      43.000  23.840  27.447  1.00  0.00     0.064 A 
ATOM     97  C   UNL A   1      43.370  23.781  26.096  1.00  0.00     0.173 A 
ATOM     98  C   UNL A   1      42.530  22.663  28.046  1.00  0.00     0.173 A 
ATOM     99  F   UNL A   1      43.808  24.886  25.473  1.00  0.00    -0.203 F 
ATOM    100  C   UNL A   1      43.248  22.601  25.366  1.00  0.00     0.198 A 
ATOM    101  C   UNL A   1      42.436  21.475  27.323  1.00  0.00     0.198 A 
ATOM    102  F   UNL A   1      42.168  22.664  29.337  1.00  0.00    -0.203 F 
ATOM    103  F   UNL A   1      43.560  22.587  24.063  1.00  0.00    -0.200 F 
ATOM    104  C   UNL A   1      42.786  21.448  25.981  1.00  0.00     0.200 A 
ATOM    105  F   UNL A   1      42.003  20.360  27.925  1.00  0.00    -0.200 F 
ATOM    106  F   UNL A   1      42.669  20.313  25.279  1.00  0.00    -0.200 F 
ENDBRANCH  68  96
BRANCH  83 107
ATOM    107  C   UNL A   1      48.077  26.858  31.138  1.00  0.00     0.064 A 
ATOM    108  C   UNL A   1      49.183  27.276  30.383  1.00  0.00     0.173 A 
ATOM    109  C   UNL A   1      48.314  26.049  32.259  1.00  0.00     0.173 A 
ATOM    110  F   UNL A   1      49.008  28.037  29.292  1.00  0.00    -0.203 F 
ATOM    111  C   UNL A   1      50.473  26.879  30.725  1.00  0.00     0.198 A 
ATOM    112  C   UNL A   1      49.607  25.680  32.617  1.00  0.00     0.198 A 
ATOM    113  F   UNL A   1      47.291  25.628  33.018  1.00  0.00    -0.203 F 
ATOM    114  F   UNL A   1      51.511  27.250  29.962  1.00  0.00    -0.200 F 
ATOM    115  C   UNL A   1      50.685  26.087  31.845  1.00  0.00     0.200 A 
ATOM    116  F   UNL A   1      49.812  24.927  33.706  1.00  0.00    -0.200 F 
ATOM    117  F   UNL A   1      51.928  25.713  32.177  1.00  0.00    -0.200 F 
ENDBRANCH  83 107
ENDBRANCH  48  51
ENDBRANCH  38  41
ENDBRANCH  34  37
ENDBRANCH  31  34
ENDBRANCH   1  31
TORSDOF 15
ENDMDL
MODEL 6
REMARK VINA RESULT:     -11.6      6.412     11.616
REMARK SMILES Nc1ccc(O)c(C(=O)NCCCCCCNC(=O)c2ccc(-c3c4nc(c(-c5c(F)c(F)c(F)c(F)c5F)c5ccc([nH]5)c(-c5c(F)c(F)c(F)c(F)c5F)c5nc(c(-c6c(F)c(F)c(F)c(F)c6F)c6ccc3[nH]6)C=C5)C=C4)cc2)c1
REMARK SMILES IDX 14 1 13 4 12 7 11 10 10 13 8 14 9 15 7 17 2 18 3 19 83 20
REMARK SMILES IDX 4 21 5 24 1 26 6 29 15 31 16 34 17 37 18 38 19 40 20 41
REMARK SMILES IDX 21 42 82 43 22 44 81 46 23 48 24 51 25 52 75 53 26 54 80 55
REMARK SMILES IDX 74 56 76 57 27 58 79 59 73 61 72 63 28 65 60 68 40 69 59 70
REMARK SMILES IDX 41 71 44 72 58 73 77 74 42 75 43 77 57 79 78 80 45 83 29 85
REMARK SMILES IDX 30 86 38 87 31 88 32 89 36 90 39 91 33 92 34 93 37 94 35 95
REMARK SMILES IDX 61 96 62 97 70 98 63 99 64 100 68 101 71 102 65 103 66 104
REMARK SMILES IDX 69 105 67 106 46 107 47 108 55 109 48 110 49 111 53 112
REMARK SMILES IDX 56 113 50 114 51 115 54 116 52 117
REMARK H PARENT 14 2 14 3 13 5 13 6 12 8 12 9 11 11 11 12 10 16 3 22 83 23
REMARK H PARENT 4 25 1 27 1 28 6 30 15 32 15 33 16 35 16 36 17 39 21 45 82 47
REMARK H PARENT 22 49 81 50 80 60 74 62 76 64 79 66 73 67 41 76 44 78 77 81
REMARK H PARENT 42 82 78 84
REMARK Flexibility Score: inf
ROOT
ATOM      1  C   UNL A   1      36.673  20.440  25.003  1.00  0.00    -0.052 C 
ATOM      2  H   UNL A   1      35.908  19.927  24.459  1.00  0.00     0.027 H 
ATOM      3  H   UNL A   1      36.474  20.507  26.052  1.00  0.00     0.027 H 
ENDROOT
BRANCH   1   4
ATOM      4  C   UNL A   1      36.742  21.883  24.486  1.00  0.00    -0.052 C 
ATOM      5  H   UNL A   1      37.728  22.052  24.105  1.00  0.00     0.027 H 
ATOM      6  H   UNL A   1      35.980  21.970  23.740  1.00  0.00     0.027 H 
BRANCH   4   7
ATOM      7  C   UNL A   1      36.444  22.963  25.537  1.00  0.00    -0.036 C 
ATOM      8  H   UNL A   1      36.099  22.484  26.429  1.00  0.00     0.028 H 
ATOM      9  H   UNL A   1      37.350  23.509  25.700  1.00  0.00     0.028 H 
BRANCH   7  10
ATOM     10  C   UNL A   1      35.382  23.967  25.082  1.00  0.00     0.018 C 
ATOM     11  H   UNL A   1      35.795  24.953  25.098  1.00  0.00     0.049 H 
ATOM     12  H   UNL A   1      35.070  23.724  24.087  1.00  0.00     0.049 H 
BRANCH  10  13
ATOM     13  N   UNL A   1      34.238  23.909  25.970  1.00  0.00    -0.352 N 
ATOM     14  C   UNL A   1      33.124  23.118  26.038  1.00  0.00     0.255 C 
ATOM     15  O   UNL A   1      32.322  23.378  26.941  1.00  0.00    -0.269 OA
ATOM     16  H   UNL A   1      34.272  24.587  26.682  1.00  0.00     0.163 HD
BRANCH  14  17
ATOM     17  C   UNL A   1      32.840  21.941  25.168  1.00  0.00     0.083 A 
ATOM     18  C   UNL A   1      32.227  20.885  23.050  1.00  0.00     0.032 A 
ATOM     19  C   UNL A   1      32.452  19.629  23.610  1.00  0.00    -0.035 A 
ATOM     20  C   UNL A   1      32.345  22.023  23.860  1.00  0.00    -0.023 A 
ATOM     21  C   UNL A   1      32.865  19.511  24.935  1.00  0.00    -0.017 A 
ATOM     22  H   UNL A   1      32.313  18.780  23.039  1.00  0.00     0.065 H 
ATOM     23  H   UNL A   1      32.062  22.942  23.485  1.00  0.00     0.065 H 
ATOM     24  C   UNL A   1      33.066  20.656  25.700  1.00  0.00     0.128 A 
ATOM     25  H   UNL A   1      33.020  18.578  25.348  1.00  0.00     0.066 H 
BRANCH  18  26
ATOM     26  N   UNL A   1      31.763  20.994  21.746  1.00  0.00    -0.399 N 
ATOM     27  H   UNL A   1      30.880  21.392  21.570  1.00  0.00     0.156 HD
ATOM     28  H   UNL A   1      32.316  20.673  20.998  1.00  0.00     0.156 HD
ENDBRANCH  18  26
BRANCH  24  29
ATOM     29  O   UNL A   1      33.479  20.432  26.989  1.00  0.00    -0.507 OA
ATOM     30  H   UNL A   1      33.994  21.076  27.435  1.00  0.00     0.293 HD
ENDBRANCH  24  29
ENDBRANCH  14  17
ENDBRANCH  10  13
ENDBRANCH   7  10
ENDBRANCH   4   7
ENDBRANCH   1   4
BRANCH   1  31
ATOM     31  C   UNL A   1      37.971  19.641  24.864  1.00  0.00    -0.036 C 
ATOM     32  H   UNL A   1      38.291  19.696  23.845  1.00  0.00     0.028 H 
ATOM     33  H   UNL A   1      37.751  18.641  25.178  1.00  0.00     0.028 H 
BRANCH  31  34
ATOM     34  C   UNL A   1      39.111  20.136  25.749  1.00  0.00     0.018 C 
ATOM     35  H   UNL A   1      38.718  20.387  26.712  1.00  0.00     0.049 H 
ATOM     36  H   UNL A   1      39.551  20.991  25.279  1.00  0.00     0.049 H 
BRANCH  34  37
ATOM     37  N   UNL A   1      40.144  19.126  25.911  1.00  0.00    -0.352 N 
ATOM     38  C   UNL A   1      41.494  19.284  26.095  1.00  0.00     0.251 C 
ATOM     39  H   UNL A   1      39.830  18.193  25.884  1.00  0.00     0.163 HD
ATOM     40  O   UNL A   1      42.251  18.325  25.986  1.00  0.00    -0.269 OA
BRANCH  38  41
ATOM     41  C   UNL A   1      42.042  20.620  26.414  1.00  0.00     0.039 A 
ATOM     42  C   UNL A   1      42.400  21.472  25.366  1.00  0.00    -0.049 A 
ATOM     43  C   UNL A   1      42.226  21.019  27.741  1.00  0.00    -0.049 A 
ATOM     44  C   UNL A   1      42.895  22.747  25.650  1.00  0.00    -0.053 A 
ATOM     45  H   UNL A   1      42.300  21.161  24.388  1.00  0.00     0.063 H 
ATOM     46  C   UNL A   1      42.654  22.314  28.022  1.00  0.00    -0.053 A 
ATOM     47  H   UNL A   1      42.044  20.356  28.511  1.00  0.00     0.063 H 
ATOM     48  C   UNL A   1      42.999  23.187  26.980  1.00  0.00    -0.014 A 
ATOM     49  H   UNL A   1      43.184  23.368  24.879  1.00  0.00     0.063 H 
ATOM     50  H   UNL A   1      42.719  22.631  29.001  1.00  0.00     0.063 H 
BRANCH  48  51
ATOM     51  C   UNL A   1      43.473  24.557  27.300  1.00  0.00     0.031 A 
ATOM     52  C   UNL A   1      42.516  25.574  27.858  1.00  0.00     0.074 A 
ATOM     53  C   UNL A   1      44.747  24.901  27.030  1.00  0.00     0.049 A 
ATOM     54  N   UNL A   1      42.720  26.838  28.133  1.00  0.00    -0.248 NA
ATOM     55  C   UNL A   1      41.142  25.118  28.118  1.00  0.00    -0.034 C 
ATOM     56  C   UNL A   1      45.757  24.014  26.449  1.00  0.00    -0.036 A 
ATOM     57  N   UNL A   1      45.408  26.092  27.197  1.00  0.00    -0.354 N 
ATOM     58  C   UNL A   1      41.499  27.329  28.578  1.00  0.00     0.074 A 
ATOM     59  C   UNL A   1      40.549  26.241  28.493  1.00  0.00    -0.034 C 
ATOM     60  H   UNL A   1      40.743  24.170  28.030  1.00  0.00     0.065 H 
ATOM     61  C   UNL A   1      46.913  24.686  26.327  1.00  0.00    -0.036 A 
ATOM     62  H   UNL A   1      45.603  23.032  26.176  1.00  0.00     0.065 H 
ATOM     63  C   UNL A   1      46.717  26.059  26.784  1.00  0.00     0.049 A 
ATOM     64  H   UNL A   1      44.983  26.895  27.576  1.00  0.00     0.167 HD
ATOM     65  C   UNL A   1      41.204  28.569  29.036  1.00  0.00     0.037 A 
ATOM     66  H   UNL A   1      39.541  26.330  28.698  1.00  0.00     0.065 H 
ATOM     67  H   UNL A   1      47.798  24.294  25.967  1.00  0.00     0.065 H 
ATOM     68  C   UNL A   1      47.652  27.028  26.770  1.00  0.00     0.037 A 
ATOM     69  C   UNL A   1      42.162  29.638  29.150  1.00  0.00     0.049 A 
ATOM     70  C   UNL A   1      47.295  28.397  27.283  1.00  0.00     0.074 A 
ATOM     71  C   UNL A   1      41.978  30.909  29.665  1.00  0.00    -0.036 A 
ATOM     72  N   UNL A   1      43.484  29.560  28.740  1.00  0.00    -0.354 N 
ATOM     73  N   UNL A   1      46.156  28.829  27.768  1.00  0.00    -0.248 NA
ATOM     74  C   UNL A   1      48.357  29.412  27.254  1.00  0.00    -0.034 C 
ATOM     75  C   UNL A   1      43.176  31.615  29.524  1.00  0.00    -0.036 A 
ATOM     76  H   UNL A   1      41.106  31.273  30.081  1.00  0.00     0.065 H 
ATOM     77  C   UNL A   1      44.121  30.768  28.969  1.00  0.00     0.049 A 
ATOM     78  H   UNL A   1      43.907  28.763  28.345  1.00  0.00     0.167 HD
ATOM     79  C   UNL A   1      46.373  30.152  28.130  1.00  0.00     0.074 A 
ATOM     80  C   UNL A   1      47.755  30.448  27.821  1.00  0.00    -0.034 C 
ATOM     81  H   UNL A   1      49.318  29.338  26.887  1.00  0.00     0.065 H 
ATOM     82  H   UNL A   1      43.330  32.601  29.789  1.00  0.00     0.065 H 
ATOM     83  C   UNL A   1      45.503  31.041  28.669  1.00  0.00     0.037 A 
ATOM     84  H   UNL A   1      48.215  31.351  28.018  1.00  0.00     0.065 H 
BRANCH  65  85
ATOM     85  C   UNL A   1      39.789  28.840  29.457  1.00  0.00     0.064 A 
ATOM     86  C   UNL A   1      38.833  29.329  28.554  1.00  0.00     0.173 A 
ATOM     87  C   UNL A   1      39.371  28.558  30.766  1.00  0.00     0.173 A 
ATOM     88  F   UNL A   1      39.184  29.625  27.293  1.00  0.00    -0.203 F 
ATOM     89  C   UNL A   1      37.516  29.549  28.952  1.00  0.00     0.198 A 
ATOM     90  C   UNL A   1      38.046  28.751  31.154  1.00  0.00     0.198 A 
ATOM     91  F   UNL A   1      40.242  28.084  31.668  1.00  0.00    -0.203 F 
ATOM     92  F   UNL A   1      36.631  30.057  28.084  1.00  0.00    -0.200 F 
ATOM     93  C   UNL A   1      37.123  29.251  30.248  1.00  0.00     0.200 A 
ATOM     94  F   UNL A   1      37.665  28.450  32.403  1.00  0.00    -0.200 F 
ATOM     95  F   UNL A   1      35.853  29.451  30.628  1.00  0.00    -0.200 F 
ENDBRANCH  65  85
BRANCH  68  96
ATOM     96  C   UNL A   1      49.022  26.737  26.274  1.00  0.00     0.064 A 
ATOM     97  C   UNL A   1      49.367  26.973  24.935  1.00  0.00     0.173 A 
ATOM     98  C   UNL A   1      50.008  26.203  27.116  1.00  0.00     0.173 A 
ATOM     99  F   UNL A   1      48.452  27.464  24.086  1.00  0.00    -0.203 F 
ATOM    100  C   UNL A   1      50.636  26.661  24.452  1.00  0.00     0.198 A 
ATOM    101  C   UNL A   1      51.285  25.920  26.640  1.00  0.00     0.198 A 
ATOM    102  F   UNL A   1      49.731  25.964  28.407  1.00  0.00    -0.203 F 
ATOM    103  F   UNL A   1      50.921  26.849  23.157  1.00  0.00    -0.200 F 
ATOM    104  C   UNL A   1      51.596  26.140  25.306  1.00  0.00     0.200 A 
ATOM    105  F   UNL A   1      52.215  25.429  27.471  1.00  0.00    -0.200 F 
ATOM    106  F   UNL A   1      52.816  25.840  24.841  1.00  0.00    -0.200 F 
ENDBRANCH  68  96
BRANCH  83 107
ATOM    107  C   UNL A   1      46.033  32.406  28.999  1.00  0.00     0.064 A 
ATOM    108  C   UNL A   1      45.960  33.466  28.083  1.00  0.00     0.173 A 
ATOM    109  C   UNL A   1      46.583  32.666  30.263  1.00  0.00     0.173 A 
ATOM    110  F   UNL A   1      45.456  33.265  26.855  1.00  0.00    -0.203 F 
ATOM    111  C   UNL A   1      46.443  34.730  28.412  1.00  0.00     0.198 A 
ATOM    112  C   UNL A   1      47.036  33.938  30.600  1.00  0.00     0.198 A 
ATOM    113  F   UNL A   1      46.669  31.688  31.178  1.00  0.00    -0.203 F 
ATOM    114  F   UNL A   1      46.408  35.716  27.504  1.00  0.00    -0.200 F 
ATOM    115  C   UNL A   1      46.974  34.967  29.672  1.00  0.00     0.200 A 
ATOM    116  F   UNL A   1      47.536  34.169  31.822  1.00  0.00    -0.200 F 
ATOM    117  F   UNL A   1      47.430  36.186  29.990  1.00  0.00    -0.200 F 
ENDBRANCH  83 107
ENDBRANCH  48  51
ENDBRANCH  38  41
ENDBRANCH  34  37
ENDBRANCH  31  34
ENDBRANCH   1  31
TORSDOF 15
ENDMDL
MODEL 7
REMARK VINA RESULT:     -11.5      1.113      7.757
REMARK SMILES Nc1ccc(O)c(C(=O)NCCCCCCNC(=O)c2ccc(-c3c4nc(c(-c5c(F)c(F)c(F)c(F)c5F)c5ccc([nH]5)c(-c5c(F)c(F)c(F)c(F)c5F)c5nc(c(-c6c(F)c(F)c(F)c(F)c6F)c6ccc3[nH]6)C=C5)C=C4)cc2)c1
REMARK SMILES IDX 14 1 13 4 12 7 11 10 10 13 8 14 9 15 7 17 2 18 3 19 83 20
REMARK SMILES IDX 4 21 5 24 1 26 6 29 15 31 16 34 17 37 18 38 19 40 20 41
REMARK SMILES IDX 21 42 82 43 22 44 81 46 23 48 24 51 25 52 75 53 26 54 80 55
REMARK SMILES IDX 74 56 76 57 27 58 79 59 73 61 72 63 28 65 60 68 40 69 59 70
REMARK SMILES IDX 41 71 44 72 58 73 77 74 42 75 43 77 57 79 78 80 45 83 29 85
REMARK SMILES IDX 30 86 38 87 31 88 32 89 36 90 39 91 33 92 34 93 37 94 35 95
REMARK SMILES IDX 61 96 62 97 70 98 63 99 64 100 68 101 71 102 65 103 66 104
REMARK SMILES IDX 69 105 67 106 46 107 47 108 55 109 48 110 49 111 53 112
REMARK SMILES IDX 56 113 50 114 51 115 54 116 52 117
REMARK H PARENT 14 2 14 3 13 5 13 6 12 8 12 9 11 11 11 12 10 16 3 22 83 23
REMARK H PARENT 4 25 1 27 1 28 6 30 15 32 15 33 16 35 16 36 17 39 21 45 82 47
REMARK H PARENT 22 49 81 50 80 60 74 62 76 64 79 66 73 67 41 76 44 78 77 81
REMARK H PARENT 42 82 78 84
REMARK Flexibility Score: inf
ROOT
ATOM      1  C   UNL A   1      31.403  30.589  25.945  1.00  0.00    -0.052 C 
ATOM      2  H   UNL A   1      30.446  30.340  25.537  1.00  0.00     0.027 H 
ATOM      3  H   UNL A   1      32.186  30.594  25.216  1.00  0.00     0.027 H 
ENDROOT
BRANCH   1   4
ATOM      4  C   UNL A   1      31.779  29.513  26.972  1.00  0.00    -0.052 C 
ATOM      5  H   UNL A   1      32.788  29.687  27.282  1.00  0.00     0.027 H 
ATOM      6  H   UNL A   1      31.071  29.599  27.769  1.00  0.00     0.027 H 
BRANCH   4   7
ATOM      7  C   UNL A   1      31.680  28.067  26.461  1.00  0.00    -0.036 C 
ATOM      8  H   UNL A   1      32.172  27.424  27.160  1.00  0.00     0.028 H 
ATOM      9  H   UNL A   1      30.640  27.833  26.365  1.00  0.00     0.028 H 
BRANCH   7  10
ATOM     10  C   UNL A   1      32.321  27.871  25.085  1.00  0.00     0.018 C 
ATOM     11  H   UNL A   1      32.222  28.771  24.515  1.00  0.00     0.049 H 
ATOM     12  H   UNL A   1      33.358  27.637  25.208  1.00  0.00     0.049 H 
BRANCH  10  13
ATOM     13  N   UNL A   1      31.665  26.784  24.387  1.00  0.00    -0.352 N 
ATOM     14  C   UNL A   1      30.503  26.674  23.672  1.00  0.00     0.255 C 
ATOM     15  O   UNL A   1      30.237  25.552  23.229  1.00  0.00    -0.269 OA
ATOM     16  H   UNL A   1      32.165  25.938  24.439  1.00  0.00     0.163 HD
BRANCH  14  17
ATOM     17  C   UNL A   1      29.584  27.797  23.330  1.00  0.00     0.083 A 
ATOM     18  C   UNL A   1      29.087  30.027  22.460  1.00  0.00     0.032 A 
ATOM     19  C   UNL A   1      27.724  29.787  22.622  1.00  0.00    -0.035 A 
ATOM     20  C   UNL A   1      30.005  29.060  22.892  1.00  0.00    -0.023 A 
ATOM     21  C   UNL A   1      27.278  28.572  23.134  1.00  0.00    -0.017 A 
ATOM     22  H   UNL A   1      27.040  30.515  22.361  1.00  0.00     0.065 H 
ATOM     23  H   UNL A   1      31.013  29.282  22.887  1.00  0.00     0.065 H 
ATOM     24  C   UNL A   1      28.199  27.585  23.474  1.00  0.00     0.128 A 
ATOM     25  H   UNL A   1      26.268  28.403  23.262  1.00  0.00     0.066 H 
BRANCH  18  26
ATOM     26  N   UNL A   1      29.528  31.261  22.001  1.00  0.00    -0.399 N 
ATOM     27  H   UNL A   1      29.619  32.015  22.628  1.00  0.00     0.156 HD
ATOM     28  H   UNL A   1      29.750  31.383  21.050  1.00  0.00     0.156 HD
ENDBRANCH  18  26
BRANCH  24  29
ATOM     29  O   UNL A   1      27.657  26.423  23.961  1.00  0.00    -0.507 OA
ATOM     30  H   UNL A   1      27.256  26.412  24.809  1.00  0.00     0.293 HD
ENDBRANCH  24  29
ENDBRANCH  14  17
ENDBRANCH  10  13
ENDBRANCH   7  10
ENDBRANCH   4   7
ENDBRANCH   1   4
BRANCH   1  31
ATOM     31  C   UNL A   1      31.327  32.013  26.501  1.00  0.00    -0.036 C 
ATOM     32  H   UNL A   1      30.591  32.031  27.277  1.00  0.00     0.028 H 
ATOM     33  H   UNL A   1      31.078  32.651  25.678  1.00  0.00     0.028 H 
BRANCH  31  34
ATOM     34  C   UNL A   1      32.640  32.534  27.076  1.00  0.00     0.018 C 
ATOM     35  H   UNL A   1      33.399  32.465  26.325  1.00  0.00     0.049 H 
ATOM     36  H   UNL A   1      32.889  31.939  27.930  1.00  0.00     0.049 H 
BRANCH  34  37
ATOM     37  N   UNL A   1      32.528  33.918  27.507  1.00  0.00    -0.352 N 
ATOM     38  C   UNL A   1      33.167  34.565  28.534  1.00  0.00     0.251 C 
ATOM     39  H   UNL A   1      31.903  34.472  26.986  1.00  0.00     0.163 HD
ATOM     40  O   UNL A   1      32.788  35.672  28.900  1.00  0.00    -0.269 OA
BRANCH  38  41
ATOM     41  C   UNL A   1      34.312  33.919  29.211  1.00  0.00     0.039 A 
ATOM     42  C   UNL A   1      34.061  32.969  30.205  1.00  0.00    -0.049 A 
ATOM     43  C   UNL A   1      35.625  34.268  28.886  1.00  0.00    -0.049 A 
ATOM     44  C   UNL A   1      35.131  32.331  30.836  1.00  0.00    -0.053 A 
ATOM     45  H   UNL A   1      33.091  32.741  30.471  1.00  0.00     0.063 H 
ATOM     46  C   UNL A   1      36.689  33.582  29.466  1.00  0.00    -0.053 A 
ATOM     47  H   UNL A   1      35.807  35.032  28.216  1.00  0.00     0.063 H 
ATOM     48  C   UNL A   1      36.452  32.612  30.452  1.00  0.00    -0.014 A 
ATOM     49  H   UNL A   1      34.948  31.648  31.589  1.00  0.00     0.063 H 
ATOM     50  H   UNL A   1      37.655  33.789  29.172  1.00  0.00     0.063 H 
BRANCH  48  51
ATOM     51  C   UNL A   1      37.600  31.906  31.075  1.00  0.00     0.031 A 
ATOM     52  C   UNL A   1      38.058  32.286  32.456  1.00  0.00     0.074 A 
ATOM     53  C   UNL A   1      38.266  30.970  30.372  1.00  0.00     0.049 A 
ATOM     54  N   UNL A   1      39.082  31.839  33.140  1.00  0.00    -0.248 NA
ATOM     55  C   UNL A   1      37.279  33.322  33.151  1.00  0.00    -0.034 C 
ATOM     56  C   UNL A   1      37.943  30.547  29.009  1.00  0.00    -0.036 A 
ATOM     57  N   UNL A   1      39.362  30.213  30.704  1.00  0.00    -0.354 N 
ATOM     58  C   UNL A   1      39.078  32.551  34.332  1.00  0.00     0.074 A 
ATOM     59  C   UNL A   1      37.980  33.492  34.261  1.00  0.00    -0.034 C 
ATOM     60  H   UNL A   1      36.410  33.794  32.851  1.00  0.00     0.065 H 
ATOM     61  C   UNL A   1      38.808  29.594  28.628  1.00  0.00    -0.036 A 
ATOM     62  H   UNL A   1      37.175  30.923  28.433  1.00  0.00     0.065 H 
ATOM     63  C   UNL A   1      39.769  29.365  29.704  1.00  0.00     0.049 A 
ATOM     64  H   UNL A   1      39.815  30.274  31.576  1.00  0.00     0.167 HD
ATOM     65  C   UNL A   1      39.903  32.417  35.398  1.00  0.00     0.037 A 
ATOM     66  H   UNL A   1      37.773  34.201  34.982  1.00  0.00     0.065 H 
ATOM     67  H   UNL A   1      38.796  29.101  27.721  1.00  0.00     0.065 H 
ATOM     68  C   UNL A   1      40.804  28.504  29.657  1.00  0.00     0.037 A 
ATOM     69  C   UNL A   1      40.973  31.457  35.477  1.00  0.00     0.049 A 
ATOM     70  C   UNL A   1      41.705  28.378  30.856  1.00  0.00     0.074 A 
ATOM     71  C   UNL A   1      41.821  31.196  36.539  1.00  0.00    -0.036 A 
ATOM     72  N   UNL A   1      41.341  30.600  34.451  1.00  0.00    -0.354 N 
ATOM     73  N   UNL A   1      41.648  29.006  32.005  1.00  0.00    -0.248 NA
ATOM     74  C   UNL A   1      42.811  27.416  30.753  1.00  0.00    -0.034 C 
ATOM     75  C   UNL A   1      42.733  30.215  36.139  1.00  0.00    -0.036 A 
ATOM     76  H   UNL A   1      41.787  31.649  37.466  1.00  0.00     0.065 H 
ATOM     77  C   UNL A   1      42.420  29.826  34.846  1.00  0.00     0.049 A 
ATOM     78  H   UNL A   1      40.901  30.549  33.571  1.00  0.00     0.167 HD
ATOM     79  C   UNL A   1      42.687  28.495  32.771  1.00  0.00     0.074 A 
ATOM     80  C   UNL A   1      43.350  27.494  31.961  1.00  0.00    -0.034 C 
ATOM     81  H   UNL A   1      43.095  26.834  29.950  1.00  0.00     0.065 H 
ATOM     82  H   UNL A   1      43.507  29.842  36.711  1.00  0.00     0.065 H 
ATOM     83  C   UNL A   1      43.059  28.825  34.032  1.00  0.00     0.037 A 
ATOM     84  H   UNL A   1      44.141  26.916  32.284  1.00  0.00     0.065 H 
BRANCH  65  85
ATOM     85  C   UNL A   1      39.680  33.325  36.572  1.00  0.00     0.064 A 
ATOM     86  C   UNL A   1      40.309  34.576  36.665  1.00  0.00     0.173 A 
ATOM     87  C   UNL A   1      38.787  32.962  37.592  1.00  0.00     0.173 A 
ATOM     88  F   UNL A   1      41.179  34.966  35.723  1.00  0.00    -0.203 F 
ATOM     89  C   UNL A   1      40.070  35.420  37.748  1.00  0.00     0.198 A 
ATOM     90  C   UNL A   1      38.528  33.821  38.658  1.00  0.00     0.198 A 
ATOM     91  F   UNL A   1      38.155  31.780  37.550  1.00  0.00    -0.203 F 
ATOM     92  F   UNL A   1      40.715  36.591  37.837  1.00  0.00    -0.200 F 
ATOM     93  C   UNL A   1      39.175  35.045  38.738  1.00  0.00     0.200 A 
ATOM     94  F   UNL A   1      37.652  33.463  39.607  1.00  0.00    -0.200 F 
ATOM     95  F   UNL A   1      38.936  35.863  39.773  1.00  0.00    -0.200 F 
ENDBRANCH  65  85
BRANCH  68  96
ATOM     96  C   UNL A   1      41.033  27.677  28.444  1.00  0.00     0.064 A 
ATOM     97  C   UNL A   1      41.894  28.115  27.428  1.00  0.00     0.173 A 
ATOM     98  C   UNL A   1      40.388  26.445  28.265  1.00  0.00     0.173 A 
ATOM     99  F   UNL A   1      42.520  29.296  27.545  1.00  0.00    -0.203 F 
ATOM    100  C   UNL A   1      42.081  27.366  26.268  1.00  0.00     0.198 A 
ATOM    101  C   UNL A   1      40.597  25.683  27.118  1.00  0.00     0.198 A 
ATOM    102  F   UNL A   1      39.558  25.978  29.209  1.00  0.00    -0.203 F 
ATOM    103  F   UNL A   1      42.869  27.834  25.292  1.00  0.00    -0.200 F 
ATOM    104  C   UNL A   1      41.436  26.148  26.116  1.00  0.00     0.200 A 
ATOM    105  F   UNL A   1      39.984  24.499  26.981  1.00  0.00    -0.200 F 
ATOM    106  F   UNL A   1      41.615  25.428  25.001  1.00  0.00    -0.200 F 
ENDBRANCH  68  96
BRANCH  83 107
ATOM    107  C   UNL A   1      44.209  28.068  34.630  1.00  0.00     0.064 A 
ATOM    108  C   UNL A   1      45.525  28.545  34.549  1.00  0.00     0.173 A 
ATOM    109  C   UNL A   1      43.984  26.872  35.327  1.00  0.00     0.173 A 
ATOM    110  F   UNL A   1      45.795  29.676  33.879  1.00  0.00    -0.203 F 
ATOM    111  C   UNL A   1      46.579  27.837  35.123  1.00  0.00     0.198 A 
ATOM    112  C   UNL A   1      45.034  26.183  35.927  1.00  0.00     0.198 A 
ATOM    113  F   UNL A   1      42.742  26.377  35.440  1.00  0.00    -0.203 F 
ATOM    114  F   UNL A   1      47.835  28.285  34.992  1.00  0.00    -0.200 F 
ATOM    115  C   UNL A   1      46.331  26.661  35.817  1.00  0.00     0.200 A 
ATOM    116  F   UNL A   1      44.792  25.055  36.609  1.00  0.00    -0.200 F 
ATOM    117  F   UNL A   1      47.345  25.986  36.376  1.00  0.00    -0.200 F 
ENDBRANCH  83 107
ENDBRANCH  48  51
ENDBRANCH  38  41
ENDBRANCH  34  37
ENDBRANCH  31  34
ENDBRANCH   1  31
TORSDOF 15
ENDMDL
MODEL 8
REMARK VINA RESULT:     -11.5      3.534     10.071
REMARK SMILES Nc1ccc(O)c(C(=O)NCCCCCCNC(=O)c2ccc(-c3c4nc(c(-c5c(F)c(F)c(F)c(F)c5F)c5ccc([nH]5)c(-c5c(F)c(F)c(F)c(F)c5F)c5nc(c(-c6c(F)c(F)c(F)c(F)c6F)c6ccc3[nH]6)C=C5)C=C4)cc2)c1
REMARK SMILES IDX 14 1 13 4 12 7 11 10 10 13 8 14 9 15 7 17 2 18 3 19 83 20
REMARK SMILES IDX 4 21 5 24 1 26 6 29 15 31 16 34 17 37 18 38 19 40 20 41
REMARK SMILES IDX 21 42 82 43 22 44 81 46 23 48 24 51 25 52 75 53 26 54 80 55
REMARK SMILES IDX 74 56 76 57 27 58 79 59 73 61 72 63 28 65 60 68 40 69 59 70
REMARK SMILES IDX 41 71 44 72 58 73 77 74 42 75 43 77 57 79 78 80 45 83 29 85
REMARK SMILES IDX 30 86 38 87 31 88 32 89 36 90 39 91 33 92 34 93 37 94 35 95
REMARK SMILES IDX 61 96 62 97 70 98 63 99 64 100 68 101 71 102 65 103 66 104
REMARK SMILES IDX 69 105 67 106 46 107 47 108 55 109 48 110 49 111 53 112
REMARK SMILES IDX 56 113 50 114 51 115 54 116 52 117
REMARK H PARENT 14 2 14 3 13 5 13 6 12 8 12 9 11 11 11 12 10 16 3 22 83 23
REMARK H PARENT 4 25 1 27 1 28 6 30 15 32 15 33 16 35 16 36 17 39 21 45 82 47
REMARK H PARENT 22 49 81 50 80 60 74 62 76 64 79 66 73 67 41 76 44 78 77 81
REMARK H PARENT 42 82 78 84
REMARK Flexibility Score: inf
ROOT
ATOM      1  C   UNL A   1      33.760  35.240  29.355  1.00  0.00    -0.052 C 
ATOM      2  H   UNL A   1      34.683  35.766  29.482  1.00  0.00     0.027 H 
ATOM      3  H   UNL A   1      33.311  35.399  28.397  1.00  0.00     0.027 H 
ENDROOT
BRANCH   1   4
ATOM      4  C   UNL A   1      32.761  35.772  30.391  1.00  0.00    -0.052 C 
ATOM      5  H   UNL A   1      31.860  36.038  29.878  1.00  0.00     0.027 H 
ATOM      6  H   UNL A   1      32.624  34.987  31.106  1.00  0.00     0.027 H 
BRANCH   4   7
ATOM      7  C   UNL A   1      33.240  36.999  31.183  1.00  0.00    -0.036 C 
ATOM      8  H   UNL A   1      34.153  37.349  30.749  1.00  0.00     0.028 H 
ATOM      9  H   UNL A   1      32.464  37.734  31.132  1.00  0.00     0.028 H 
BRANCH   7  10
ATOM     10  C   UNL A   1      33.488  36.699  32.663  1.00  0.00     0.018 C 
ATOM     11  H   UNL A   1      34.500  36.941  32.910  1.00  0.00     0.049 H 
ATOM     12  H   UNL A   1      32.822  37.287  33.259  1.00  0.00     0.049 H 
BRANCH  10  13
ATOM     13  N   UNL A   1      33.251  35.293  32.926  1.00  0.00    -0.352 N 
ATOM     14  C   UNL A   1      34.064  34.212  33.131  1.00  0.00     0.255 C 
ATOM     15  O   UNL A   1      33.498  33.127  33.303  1.00  0.00    -0.269 OA
ATOM     16  H   UNL A   1      32.294  35.068  32.966  1.00  0.00     0.163 HD
BRANCH  14  17
ATOM     17  C   UNL A   1      35.551  34.250  33.232  1.00  0.00     0.083 A 
ATOM     18  C   UNL A   1      37.796  34.589  32.326  1.00  0.00     0.032 A 
ATOM     19  C   UNL A   1      38.337  34.405  33.597  1.00  0.00    -0.035 A 
ATOM     20  C   UNL A   1      36.415  34.428  32.144  1.00  0.00    -0.023 A 
ATOM     21  C   UNL A   1      37.509  34.144  34.685  1.00  0.00    -0.017 A 
ATOM     22  H   UNL A   1      39.359  34.464  33.733  1.00  0.00     0.065 H 
ATOM     23  H   UNL A   1      36.027  34.442  31.188  1.00  0.00     0.065 H 
ATOM     24  C   UNL A   1      36.131  34.078  34.504  1.00  0.00     0.128 A 
ATOM     25  H   UNL A   1      37.916  33.999  35.623  1.00  0.00     0.066 H 
BRANCH  18  26
ATOM     26  N   UNL A   1      38.631  34.794  31.236  1.00  0.00    -0.399 N 
ATOM     27  H   UNL A   1      39.608  34.810  31.361  1.00  0.00     0.156 HD
ATOM     28  H   UNL A   1      38.247  34.924  30.339  1.00  0.00     0.156 HD
ENDBRANCH  18  26
BRANCH  24  29
ATOM     29  O   UNL A   1      35.404  33.823  35.640  1.00  0.00    -0.507 OA
ATOM     30  H   UNL A   1      34.842  33.074  35.679  1.00  0.00     0.293 HD
ENDBRANCH  24  29
ENDBRANCH  14  17
ENDBRANCH  10  13
ENDBRANCH   7  10
ENDBRANCH   4   7
ENDBRANCH   1   4
BRANCH   1  31
ATOM     31  C   UNL A   1      34.051  33.740  29.448  1.00  0.00    -0.036 C 
ATOM     32  H   UNL A   1      33.127  33.230  29.623  1.00  0.00     0.028 H 
ATOM     33  H   UNL A   1      34.753  33.613  30.246  1.00  0.00     0.028 H 
BRANCH  31  34
ATOM     34  C   UNL A   1      34.696  33.147  28.199  1.00  0.00     0.018 C 
ATOM     35  H   UNL A   1      35.679  32.805  28.446  1.00  0.00     0.049 H 
ATOM     36  H   UNL A   1      34.731  33.909  27.449  1.00  0.00     0.049 H 
BRANCH  34  37
ATOM     37  N   UNL A   1      33.926  32.031  27.675  1.00  0.00    -0.352 N 
ATOM     38  C   UNL A   1      34.304  30.726  27.485  1.00  0.00     0.251 C 
ATOM     39  H   UNL A   1      32.998  32.241  27.419  1.00  0.00     0.163 HD
ATOM     40  O   UNL A   1      33.602  29.967  26.824  1.00  0.00    -0.269 OA
BRANCH  38  41
ATOM     41  C   UNL A   1      35.569  30.233  28.071  1.00  0.00     0.039 A 
ATOM     42  C   UNL A   1      36.733  30.277  27.300  1.00  0.00    -0.049 A 
ATOM     43  C   UNL A   1      35.600  29.706  29.365  1.00  0.00    -0.049 A 
ATOM     44  C   UNL A   1      37.942  29.841  27.847  1.00  0.00    -0.053 A 
ATOM     45  H   UNL A   1      36.700  30.631  26.332  1.00  0.00     0.063 H 
ATOM     46  C   UNL A   1      36.816  29.336  29.933  1.00  0.00    -0.053 A 
ATOM     47  H   UNL A   1      34.725  29.593  29.900  1.00  0.00     0.063 H 
ATOM     48  C   UNL A   1      37.997  29.393  29.177  1.00  0.00    -0.014 A 
ATOM     49  H   UNL A   1      38.798  29.848  27.271  1.00  0.00     0.063 H 
ATOM     50  H   UNL A   1      36.849  29.016  30.913  1.00  0.00     0.063 H 
BRANCH  48  51
ATOM     51  C   UNL A   1      39.281  28.973  29.794  1.00  0.00     0.031 A 
ATOM     52  C   UNL A   1      39.837  29.732  30.966  1.00  0.00     0.074 A 
ATOM     53  C   UNL A   1      39.974  27.950  29.257  1.00  0.00     0.049 A 
ATOM     54  N   UNL A   1      40.974  29.567  31.595  1.00  0.00    -0.248 NA
ATOM     55  C   UNL A   1      39.020  30.839  31.486  1.00  0.00    -0.034 C 
ATOM     56  C   UNL A   1      39.558  27.166  28.093  1.00  0.00    -0.036 A 
ATOM     57  N   UNL A   1      41.181  27.403  29.613  1.00  0.00    -0.354 N 
ATOM     58  C   UNL A   1      41.015  30.558  32.568  1.00  0.00     0.074 A 
ATOM     59  C   UNL A   1      39.812  31.348  32.418  1.00  0.00    -0.034 C 
ATOM     60  H   UNL A   1      38.075  31.141  31.200  1.00  0.00     0.065 H 
ATOM     61  C   UNL A   1      40.484  26.226  27.844  1.00  0.00    -0.036 A 
ATOM     62  H   UNL A   1      38.693  27.313  27.552  1.00  0.00     0.065 H 
ATOM     63  C   UNL A   1      41.575  26.365  28.804  1.00  0.00     0.049 A 
ATOM     64  H   UNL A   1      41.714  27.724  30.375  1.00  0.00     0.167 HD
ATOM     65  C   UNL A   1      41.960  30.773  33.514  1.00  0.00     0.037 A 
ATOM     66  H   UNL A   1      39.601  32.198  32.965  1.00  0.00     0.065 H 
ATOM     67  H   UNL A   1      40.432  25.519  27.094  1.00  0.00     0.065 H 
ATOM     68  C   UNL A   1      42.694  25.615  28.830  1.00  0.00     0.037 A 
ATOM     69  C   UNL A   1      43.138  29.963  33.680  1.00  0.00     0.049 A 
ATOM     70  C   UNL A   1      43.727  25.880  29.891  1.00  0.00     0.074 A 
ATOM     71  C   UNL A   1      44.120  30.058  34.649  1.00  0.00    -0.036 A 
ATOM     72  N   UNL A   1      43.493  28.907  32.854  1.00  0.00    -0.354 N 
ATOM     73  N   UNL A   1      43.721  26.774  30.850  1.00  0.00    -0.248 NA
ATOM     74  C   UNL A   1      44.922  25.024  29.878  1.00  0.00    -0.034 C 
ATOM     75  C   UNL A   1      45.093  29.090  34.382  1.00  0.00    -0.036 A 
ATOM     76  H   UNL A   1      44.133  30.728  35.434  1.00  0.00     0.065 H 
ATOM     77  C   UNL A   1      44.691  28.358  33.277  1.00  0.00     0.049 A 
ATOM     78  H   UNL A   1      42.969  28.595  32.080  1.00  0.00     0.167 HD
ATOM     79  C   UNL A   1      44.890  26.568  31.571  1.00  0.00     0.074 A 
ATOM     80  C   UNL A   1      45.575  25.456  30.948  1.00  0.00    -0.034 C 
ATOM     81  H   UNL A   1      45.185  24.283  29.211  1.00  0.00     0.065 H 
ATOM     82  H   UNL A   1      45.964  28.946  34.918  1.00  0.00     0.065 H 
ATOM     83  C   UNL A   1      45.353  27.241  32.653  1.00  0.00     0.037 A 
ATOM     84  H   UNL A   1      46.459  25.051  31.293  1.00  0.00     0.065 H 
BRANCH  65  85
ATOM     85  C   UNL A   1      41.759  31.929  34.451  1.00  0.00     0.064 A 
ATOM     86  C   UNL A   1      42.307  33.193  34.189  1.00  0.00     0.173 A 
ATOM     87  C   UNL A   1      40.964  31.783  35.598  1.00  0.00     0.173 A 
ATOM     88  F   UNL A   1      43.083  33.383  33.111  1.00  0.00    -0.203 F 
ATOM     89  C   UNL A   1      42.089  34.263  35.054  1.00  0.00     0.198 A 
ATOM     90  C   UNL A   1      40.723  32.863  36.446  1.00  0.00     0.198 A 
ATOM     91  F   UNL A   1      40.411  30.598  35.893  1.00  0.00    -0.203 F 
ATOM     92  F   UNL A   1      42.659  35.450  34.806  1.00  0.00    -0.200 F 
ATOM     93  C   UNL A   1      41.291  34.099  36.176  1.00  0.00     0.200 A 
ATOM     94  F   UNL A   1      39.940  32.705  37.522  1.00  0.00    -0.200 F 
ATOM     95  F   UNL A   1      41.070  35.132  37.001  1.00  0.00    -0.200 F 
ENDBRANCH  65  85
BRANCH  68  96
ATOM     96  C   UNL A   1      42.888  24.529  27.835  1.00  0.00     0.064 A 
ATOM     97  C   UNL A   1      42.533  23.206  28.137  1.00  0.00     0.173 A 
ATOM     98  C   UNL A   1      43.445  24.782  26.573  1.00  0.00     0.173 A 
ATOM     99  F   UNL A   1      42.015  22.910  29.338  1.00  0.00    -0.203 F 
ATOM    100  C   UNL A   1      42.752  22.175  27.226  1.00  0.00     0.198 A 
ATOM    101  C   UNL A   1      43.636  23.756  25.652  1.00  0.00     0.198 A 
ATOM    102  F   UNL A   1      43.797  26.031  26.233  1.00  0.00    -0.203 F 
ATOM    103  F   UNL A   1      42.451  20.914  27.560  1.00  0.00    -0.200 F 
ATOM    104  C   UNL A   1      43.299  22.451  25.982  1.00  0.00     0.200 A 
ATOM    105  F   UNL A   1      44.152  24.029  24.445  1.00  0.00    -0.200 F 
ATOM    106  F   UNL A   1      43.510  21.461  25.106  1.00  0.00    -0.200 F 
ENDBRANCH  68  96
BRANCH  83 107
ATOM    107  C   UNL A   1      46.642  26.767  33.257  1.00  0.00     0.064 A 
ATOM    108  C   UNL A   1      47.874  27.342  32.910  1.00  0.00     0.173 A 
ATOM    109  C   UNL A   1      46.640  25.751  34.225  1.00  0.00     0.173 A 
ATOM    110  F   UNL A   1      47.931  28.306  31.978  1.00  0.00    -0.203 F 
ATOM    111  C   UNL A   1      49.059  26.899  33.492  1.00  0.00     0.198 A 
ATOM    112  C   UNL A   1      47.822  25.333  34.828  1.00  0.00     0.198 A 
ATOM    113  F   UNL A   1      45.487  25.174  34.596  1.00  0.00    -0.203 F 
ATOM    114  F   UNL A   1      50.229  27.429  33.111  1.00  0.00    -0.200 F 
ATOM    115  C   UNL A   1      49.031  25.900  34.456  1.00  0.00     0.200 A 
ATOM    116  F   UNL A   1      47.792  24.378  35.767  1.00  0.00    -0.200 F 
ATOM    117  F   UNL A   1      50.172  25.482  35.021  1.00  0.00    -0.200 F 
ENDBRANCH  83 107
ENDBRANCH  48  51
ENDBRANCH  38  41
ENDBRANCH  34  37
ENDBRANCH  31  34
ENDBRANCH   1  31
TORSDOF 15
ENDMDL
MODEL 9
REMARK VINA RESULT:     -11.4      5.542      9.944
REMARK SMILES Nc1ccc(O)c(C(=O)NCCCCCCNC(=O)c2ccc(-c3c4nc(c(-c5c(F)c(F)c(F)c(F)c5F)c5ccc([nH]5)c(-c5c(F)c(F)c(F)c(F)c5F)c5nc(c(-c6c(F)c(F)c(F)c(F)c6F)c6ccc3[nH]6)C=C5)C=C4)cc2)c1
REMARK SMILES IDX 14 1 13 4 12 7 11 10 10 13 8 14 9 15 7 17 2 18 3 19 83 20
REMARK SMILES IDX 4 21 5 24 1 26 6 29 15 31 16 34 17 37 18 38 19 40 20 41
REMARK SMILES IDX 21 42 82 43 22 44 81 46 23 48 24 51 25 52 75 53 26 54 80 55
REMARK SMILES IDX 74 56 76 57 27 58 79 59 73 61 72 63 28 65 60 68 40 69 59 70
REMARK SMILES IDX 41 71 44 72 58 73 77 74 42 75 43 77 57 79 78 80 45 83 29 85
REMARK SMILES IDX 30 86 38 87 31 88 32 89 36 90 39 91 33 92 34 93 37 94 35 95
REMARK SMILES IDX 61 96 62 97 70 98 63 99 64 100 68 101 71 102 65 103 66 104
REMARK SMILES IDX 69 105 67 106 46 107 47 108 55 109 48 110 49 111 53 112
REMARK SMILES IDX 56 113 50 114 51 115 54 116 52 117
REMARK H PARENT 14 2 14 3 13 5 13 6 12 8 12 9 11 11 11 12 10 16 3 22 83 23
REMARK H PARENT 4 25 1 27 1 28 6 30 15 32 15 33 16 35 16 36 17 39 21 45 82 47
REMARK H PARENT 22 49 81 50 80 60 74 62 76 64 79 66 73 67 41 76 44 78 77 81
REMARK H PARENT 42 82 78 84
REMARK Flexibility Score: inf
ROOT
ATOM      1  C   UNL A   1      43.028  23.467  25.701  1.00  0.00    -0.052 C 
ATOM      2  H   UNL A   1      43.943  23.365  25.156  1.00  0.00     0.027 H 
ATOM      3  H   UNL A   1      42.326  24.124  25.231  1.00  0.00     0.027 H 
ENDROOT
BRANCH   1   4
ATOM      4  C   UNL A   1      43.352  24.089  27.065  1.00  0.00    -0.052 C 
ATOM      5  H   UNL A   1      43.212  25.147  26.990  1.00  0.00     0.027 H 
ATOM      6  H   UNL A   1      42.695  23.624  27.770  1.00  0.00     0.027 H 
BRANCH   4   7
ATOM      7  C   UNL A   1      44.780  23.831  27.572  1.00  0.00    -0.036 C 
ATOM      8  H   UNL A   1      44.721  23.363  28.533  1.00  0.00     0.028 H 
ATOM      9  H   UNL A   1      45.266  23.207  26.852  1.00  0.00     0.028 H 
BRANCH   7  10
ATOM     10  C   UNL A   1      45.611  25.110  27.704  1.00  0.00     0.018 C 
ATOM     11  H   UNL A   1      45.040  25.853  28.220  1.00  0.00     0.049 H 
ATOM     12  H   UNL A   1      46.504  24.897  28.254  1.00  0.00     0.049 H 
BRANCH  10  13
ATOM     13  N   UNL A   1      45.966  25.603  26.388  1.00  0.00    -0.352 N 
ATOM     14  C   UNL A   1      45.542  26.651  25.616  1.00  0.00     0.255 C 
ATOM     15  O   UNL A   1      46.064  26.755  24.501  1.00  0.00    -0.269 OA
ATOM     16  H   UNL A   1      46.667  25.065  25.954  1.00  0.00     0.163 HD
BRANCH  14  17
ATOM     17  C   UNL A   1      44.571  27.701  26.036  1.00  0.00     0.083 A 
ATOM     18  C   UNL A   1      43.923  29.716  27.260  1.00  0.00     0.032 A 
ATOM     19  C   UNL A   1      42.671  29.686  26.648  1.00  0.00    -0.035 A 
ATOM     20  C   UNL A   1      44.829  28.676  27.008  1.00  0.00    -0.023 A 
ATOM     21  C   UNL A   1      42.355  28.679  25.739  1.00  0.00    -0.017 A 
ATOM     22  H   UNL A   1      41.974  30.414  26.870  1.00  0.00     0.065 H 
ATOM     23  H   UNL A   1      45.707  28.629  27.550  1.00  0.00     0.065 H 
ATOM     24  C   UNL A   1      43.299  27.705  25.431  1.00  0.00     0.128 A 
ATOM     25  H   UNL A   1      41.423  28.656  25.297  1.00  0.00     0.066 H 
BRANCH  18  26
ATOM     26  N   UNL A   1      44.213  30.690  28.206  1.00  0.00    -0.399 N 
ATOM     27  H   UNL A   1      44.734  30.455  29.009  1.00  0.00     0.156 HD
ATOM     28  H   UNL A   1      43.900  31.613  28.075  1.00  0.00     0.156 HD
ENDBRANCH  18  26
BRANCH  24  29
ATOM     29  O   UNL A   1      42.891  26.764  24.519  1.00  0.00    -0.507 OA
ATOM     30  H   UNL A   1      42.289  27.000  23.840  1.00  0.00     0.293 HD
ENDBRANCH  24  29
ENDBRANCH  14  17
ENDBRANCH  10  13
ENDBRANCH   7  10
ENDBRANCH   4   7
ENDBRANCH   1   4
BRANCH   1  31
ATOM     31  C   UNL A   1      42.355  22.094  25.760  1.00  0.00    -0.036 C 
ATOM     32  H   UNL A   1      43.092  21.371  26.040  1.00  0.00     0.028 H 
ATOM     33  H   UNL A   1      41.943  21.912  24.789  1.00  0.00     0.028 H 
BRANCH  31  34
ATOM     34  C   UNL A   1      41.198  22.004  26.750  1.00  0.00     0.018 C 
ATOM     35  H   UNL A   1      41.309  22.775  27.484  1.00  0.00     0.049 H 
ATOM     36  H   UNL A   1      41.222  21.035  27.204  1.00  0.00     0.049 H 
BRANCH  34  37
ATOM     37  N   UNL A   1      39.912  22.163  26.091  1.00  0.00    -0.352 N 
ATOM     38  C   UNL A   1      38.976  23.156  26.237  1.00  0.00     0.251 C 
ATOM     39  H   UNL A   1      39.678  21.457  25.446  1.00  0.00     0.163 HD
ATOM     40  O   UNL A   1      37.849  23.018  25.773  1.00  0.00    -0.269 OA
BRANCH  38  41
ATOM     41  C   UNL A   1      39.324  24.394  26.967  1.00  0.00     0.039 A 
ATOM     42  C   UNL A   1      38.964  24.509  28.312  1.00  0.00    -0.049 A 
ATOM     43  C   UNL A   1      39.979  25.446  26.320  1.00  0.00    -0.049 A 
ATOM     44  C   UNL A   1      39.308  25.661  29.023  1.00  0.00    -0.053 A 
ATOM     45  H   UNL A   1      38.447  23.748  28.777  1.00  0.00     0.063 H 
ATOM     46  C   UNL A   1      40.382  26.563  27.047  1.00  0.00    -0.053 A 
ATOM     47  H   UNL A   1      40.165  25.394  25.306  1.00  0.00     0.063 H 
ATOM     48  C   UNL A   1      40.044  26.684  28.403  1.00  0.00    -0.014 A 
ATOM     49  H   UNL A   1      39.021  25.760  30.009  1.00  0.00     0.063 H 
ATOM     50  H   UNL A   1      40.929  27.305  26.585  1.00  0.00     0.063 H 
BRANCH  48  51
ATOM     51  C   UNL A   1      40.464  27.893  29.156  1.00  0.00     0.031 A 
ATOM     52  C   UNL A   1      41.848  27.975  29.738  1.00  0.00     0.074 A 
ATOM     53  C   UNL A   1      39.579  28.886  29.369  1.00  0.00     0.049 A 
ATOM     54  N   UNL A   1      42.378  28.910  30.486  1.00  0.00    -0.248 NA
ATOM     55  C   UNL A   1      42.750  26.845  29.464  1.00  0.00    -0.034 C 
ATOM     56  C   UNL A   1      38.195  28.901  28.892  1.00  0.00    -0.036 A 
ATOM     57  N   UNL A   1      39.708  30.069  30.052  1.00  0.00    -0.354 N 
ATOM     58  C   UNL A   1      43.661  28.473  30.785  1.00  0.00     0.074 A 
ATOM     59  C   UNL A   1      43.817  27.169  30.178  1.00  0.00    -0.034 C 
ATOM     60  H   UNL A   1      42.592  26.015  28.869  1.00  0.00     0.065 H 
ATOM     61  C   UNL A   1      37.610  30.046  29.280  1.00  0.00    -0.036 A 
ATOM     62  H   UNL A   1      37.743  28.152  28.347  1.00  0.00     0.065 H 
ATOM     63  C   UNL A   1      38.563  30.827  30.063  1.00  0.00     0.049 A 
ATOM     64  H   UNL A   1      40.543  30.348  30.493  1.00  0.00     0.167 HD
ATOM     65  C   UNL A   1      44.629  29.113  31.484  1.00  0.00     0.037 A 
ATOM     66  H   UNL A   1      44.651  26.570  30.288  1.00  0.00     0.065 H 
ATOM     67  H   UNL A   1      36.642  30.328  29.059  1.00  0.00     0.065 H 
ATOM     68  C   UNL A   1      38.308  32.014  30.645  1.00  0.00     0.037 A 
ATOM     69  C   UNL A   1      44.480  30.424  32.058  1.00  0.00     0.049 A 
ATOM     70  C   UNL A   1      39.402  32.699  31.418  1.00  0.00     0.074 A 
ATOM     71  C   UNL A   1      45.423  31.185  32.726  1.00  0.00    -0.036 A 
ATOM     72  N   UNL A   1      43.311  31.169  32.031  1.00  0.00    -0.354 N 
ATOM     73  N   UNL A   1      40.635  32.308  31.634  1.00  0.00    -0.248 NA
ATOM     74  C   UNL A   1      39.071  33.998  32.023  1.00  0.00    -0.034 C 
ATOM     75  C   UNL A   1      44.811  32.371  33.144  1.00  0.00    -0.036 A 
ATOM     76  H   UNL A   1      46.408  30.923  32.888  1.00  0.00     0.065 H 
ATOM     77  C   UNL A   1      43.502  32.371  32.691  1.00  0.00     0.049 A 
ATOM     78  H   UNL A   1      42.470  30.885  31.605  1.00  0.00     0.167 HD
ATOM     79  C   UNL A   1      41.234  33.322  32.370  1.00  0.00     0.074 A 
ATOM     80  C   UNL A   1      40.234  34.353  32.552  1.00  0.00    -0.034 C 
ATOM     81  H   UNL A   1      38.170  34.499  32.034  1.00  0.00     0.065 H 
ATOM     82  H   UNL A   1      45.260  33.119  33.696  1.00  0.00     0.065 H 
ATOM     83  C   UNL A   1      42.499  33.393  32.851  1.00  0.00     0.037 A 
ATOM     84  H   UNL A   1      40.404  35.250  33.032  1.00  0.00     0.065 H 
BRANCH  65  85
ATOM     85  C   UNL A   1      45.942  28.406  31.666  1.00  0.00     0.064 A 
ATOM     86  C   UNL A   1      46.172  27.548  32.751  1.00  0.00     0.173 A 
ATOM     87  C   UNL A   1      46.963  28.550  30.715  1.00  0.00     0.173 A 
ATOM     88  F   UNL A   1      45.232  27.384  33.694  1.00  0.00    -0.203 F 
ATOM     89  C   UNL A   1      47.385  26.878  32.891  1.00  0.00     0.198 A 
ATOM     90  C   UNL A   1      48.164  27.855  30.842  1.00  0.00     0.198 A 
ATOM     91  F   UNL A   1      46.794  29.354  29.655  1.00  0.00    -0.203 F 
ATOM     92  F   UNL A   1      47.598  26.096  33.959  1.00  0.00    -0.200 F 
ATOM     93  C   UNL A   1      48.376  27.025  31.932  1.00  0.00     0.200 A 
ATOM     94  F   UNL A   1      49.115  27.989  29.907  1.00  0.00    -0.200 F 
ATOM     95  F   UNL A   1      49.539  26.371  32.061  1.00  0.00    -0.200 F 
ENDBRANCH  65  85
BRANCH  68  96
ATOM     96  C   UNL A   1      36.970  32.643  30.504  1.00  0.00     0.064 A 
ATOM     97  C   UNL A   1      36.661  33.434  29.388  1.00  0.00     0.173 A 
ATOM     98  C   UNL A   1      35.979  32.485  31.483  1.00  0.00     0.173 A 
ATOM     99  F   UNL A   1      37.583  33.632  28.433  1.00  0.00    -0.203 F 
ATOM    100  C   UNL A   1      35.424  34.063  29.269  1.00  0.00     0.198 A 
ATOM    101  C   UNL A   1      34.731  33.090  31.350  1.00  0.00     0.198 A 
ATOM    102  F   UNL A   1      36.221  31.734  32.568  1.00  0.00    -0.203 F 
ATOM    103  F   UNL A   1      35.176  34.854  28.217  1.00  0.00    -0.200 F 
ATOM    104  C   UNL A   1      34.458  33.887  30.248  1.00  0.00     0.200 A 
ATOM    105  F   UNL A   1      33.795  32.905  32.291  1.00  0.00    -0.200 F 
ATOM    106  F   UNL A   1      33.268  34.491  30.134  1.00  0.00    -0.200 F 
ENDBRANCH  68  96
BRANCH  83 107
ATOM    107  C   UNL A   1      42.886  34.643  33.585  1.00  0.00     0.064 A 
ATOM    108  C   UNL A   1      43.298  35.799  32.906  1.00  0.00     0.173 A 
ATOM    109  C   UNL A   1      42.806  34.696  34.985  1.00  0.00     0.173 A 
ATOM    110  F   UNL A   1      43.407  35.794  31.568  1.00  0.00    -0.203 F 
ATOM    111  C   UNL A   1      43.640  36.955  33.603  1.00  0.00     0.198 A 
ATOM    112  C   UNL A   1      43.118  35.863  35.677  1.00  0.00     0.198 A 
ATOM    113  F   UNL A   1      42.410  33.620  35.681  1.00  0.00    -0.203 F 
ATOM    114  F   UNL A   1      44.077  38.032  32.936  1.00  0.00    -0.200 F 
ATOM    115  C   UNL A   1      43.542  36.988  34.987  1.00  0.00     0.200 A 
ATOM    116  F   UNL A   1      43.010  35.898  37.012  1.00  0.00    -0.200 F 
ATOM    117  F   UNL A   1      43.863  38.104  35.655  1.00  0.00    -0.200 F 
ENDBRANCH  83 107
ENDBRANCH  48  51
ENDBRANCH  38  41
ENDBRANCH  34  37
ENDBRANCH  31  34
ENDBRANCH   1  31
TORSDOF 15
ENDMDL
MODEL 10
REMARK VINA RESULT:     -11.4      6.745     11.983
REMARK SMILES Nc1ccc(O)c(C(=O)NCCCCCCNC(=O)c2ccc(-c3c4nc(c(-c5c(F)c(F)c(F)c(F)c5F)c5ccc([nH]5)c(-c5c(F)c(F)c(F)c(F)c5F)c5nc(c(-c6c(F)c(F)c(F)c(F)c6F)c6ccc3[nH]6)C=C5)C=C4)cc2)c1
REMARK SMILES IDX 14 1 13 4 12 7 11 10 10 13 8 14 9 15 7 17 2 18 3 19 83 20
REMARK SMILES IDX 4 21 5 24 1 26 6 29 15 31 16 34 17 37 18 38 19 40 20 41
REMARK SMILES IDX 21 42 82 43 22 44 81 46 23 48 24 51 25 52 75 53 26 54 80 55
REMARK SMILES IDX 74 56 76 57 27 58 79 59 73 61 72 63 28 65 60 68 40 69 59 70
REMARK SMILES IDX 41 71 44 72 58 73 77 74 42 75 43 77 57 79 78 80 45 83 29 85
REMARK SMILES IDX 30 86 38 87 31 88 32 89 36 90 39 91 33 92 34 93 37 94 35 95
REMARK SMILES IDX 61 96 62 97 70 98 63 99 64 100 68 101 71 102 65 103 66 104
REMARK SMILES IDX 69 105 67 106 46 107 47 108 55 109 48 110 49 111 53 112
REMARK SMILES IDX 56 113 50 114 51 115 54 116 52 117
REMARK H PARENT 14 2 14 3 13 5 13 6 12 8 12 9 11 11 11 12 10 16 3 22 83 23
REMARK H PARENT 4 25 1 27 1 28 6 30 15 32 15 33 16 35 16 36 17 39 21 45 82 47
REMARK H PARENT 22 49 81 50 80 60 74 62 76 64 79 66 73 67 41 76 44 78 77 81
REMARK H PARENT 42 82 78 84
REMARK Flexibility Score: inf
ROOT
ATOM      1  C   UNL A   1      37.120  20.645  24.624  1.00  0.00    -0.052 C 
ATOM      2  H   UNL A   1      37.438  21.086  23.702  1.00  0.00     0.027 H 
ATOM      3  H   UNL A   1      36.166  20.164  24.557  1.00  0.00     0.027 H 
ENDROOT
BRANCH   1   4
ATOM      4  C   UNL A   1      36.963  21.767  25.659  1.00  0.00    -0.052 C 
ATOM      5  H   UNL A   1      36.899  21.317  26.629  1.00  0.00     0.027 H 
ATOM      6  H   UNL A   1      37.815  22.403  25.544  1.00  0.00     0.027 H 
BRANCH   4   7
ATOM      7  C   UNL A   1      35.728  22.660  25.465  1.00  0.00    -0.036 C 
ATOM      8  H   UNL A   1      35.135  22.620  26.355  1.00  0.00     0.028 H 
ATOM      9  H   UNL A   1      36.080  23.650  25.261  1.00  0.00     0.028 H 
BRANCH   7  10
ATOM     10  C   UNL A   1      34.858  22.233  24.280  1.00  0.00     0.018 C 
ATOM     11  H   UNL A   1      34.838  23.017  23.552  1.00  0.00     0.049 H 
ATOM     12  H   UNL A   1      35.269  21.347  23.842  1.00  0.00     0.049 H 
BRANCH  10  13
ATOM     13  N   UNL A   1      33.509  21.961  24.734  1.00  0.00    -0.352 N 
ATOM     14  C   UNL A   1      32.710  20.850  24.738  1.00  0.00     0.255 C 
ATOM     15  O   UNL A   1      31.571  20.996  25.195  1.00  0.00    -0.269 OA
ATOM     16  H   UNL A   1      33.072  22.750  25.128  1.00  0.00     0.163 HD
BRANCH  14  17
ATOM     17  C   UNL A   1      33.122  19.483  24.308  1.00  0.00     0.083 A 
ATOM     18  C   UNL A   1      34.250  17.338  24.626  1.00  0.00     0.032 A 
ATOM     19  C   UNL A   1      33.723  16.881  23.420  1.00  0.00    -0.035 A 
ATOM     20  C   UNL A   1      34.009  18.663  25.016  1.00  0.00    -0.023 A 
ATOM     21  C   UNL A   1      32.903  17.704  22.652  1.00  0.00    -0.017 A 
ATOM     22  H   UNL A   1      33.941  15.926  23.094  1.00  0.00     0.065 H 
ATOM     23  H   UNL A   1      34.496  19.043  25.843  1.00  0.00     0.065 H 
ATOM     24  C   UNL A   1      32.599  18.986  23.098  1.00  0.00     0.128 A 
ATOM     25  H   UNL A   1      32.524  17.363  21.754  1.00  0.00     0.066 H 
BRANCH  18  26
ATOM     26  N   UNL A   1      35.111  16.534  25.361  1.00  0.00    -0.399 N 
ATOM     27  H   UNL A   1      34.963  16.409  26.326  1.00  0.00     0.156 HD
ATOM     28  H   UNL A   1      35.868  16.088  24.917  1.00  0.00     0.156 HD
ENDBRANCH  18  26
BRANCH  24  29
ATOM     29  O   UNL A   1      31.778  19.712  22.272  1.00  0.00    -0.507 OA
ATOM     30  H   UNL A   1      31.360  20.489  22.591  1.00  0.00     0.293 HD
ENDBRANCH  24  29
ENDBRANCH  14  17
ENDBRANCH  10  13
ENDBRANCH   7  10
ENDBRANCH   4   7
ENDBRANCH   1   4
BRANCH   1  31
ATOM     31  C   UNL A   1      38.124  19.554  25.001  1.00  0.00    -0.036 C 
ATOM     32  H   UNL A   1      38.574  19.188  24.102  1.00  0.00     0.028 H 
ATOM     33  H   UNL A   1      37.576  18.801  25.528  1.00  0.00     0.028 H 
BRANCH  31  34
ATOM     34  C   UNL A   1      39.236  20.020  25.936  1.00  0.00     0.018 C 
ATOM     35  H   UNL A   1      38.826  20.176  26.911  1.00  0.00     0.049 H 
ATOM     36  H   UNL A   1      39.646  20.926  25.541  1.00  0.00     0.049 H 
BRANCH  34  37
ATOM     37  N   UNL A   1      40.308  19.041  26.027  1.00  0.00    -0.352 N 
ATOM     38  C   UNL A   1      41.661  19.239  26.126  1.00  0.00     0.251 C 
ATOM     39  H   UNL A   1      40.021  18.099  26.016  1.00  0.00     0.163 HD
ATOM     40  O   UNL A   1      42.438  18.304  25.966  1.00  0.00    -0.269 OA
BRANCH  38  41
ATOM     41  C   UNL A   1      42.188  20.591  26.417  1.00  0.00     0.039 A 
ATOM     42  C   UNL A   1      42.588  21.403  25.353  1.00  0.00    -0.049 A 
ATOM     43  C   UNL A   1      42.311  21.042  27.734  1.00  0.00    -0.049 A 
ATOM     44  C   UNL A   1      43.063  22.692  25.609  1.00  0.00    -0.053 A 
ATOM     45  H   UNL A   1      42.532  21.054  24.385  1.00  0.00     0.063 H 
ATOM     46  C   UNL A   1      42.719  22.349  27.983  1.00  0.00    -0.053 A 
ATOM     47  H   UNL A   1      42.099  20.409  28.520  1.00  0.00     0.063 H 
ATOM     48  C   UNL A   1      43.106  23.184  26.923  1.00  0.00    -0.014 A 
ATOM     49  H   UNL A   1      43.383  23.284  24.827  1.00  0.00     0.063 H 
ATOM     50  H   UNL A   1      42.740  22.705  28.951  1.00  0.00     0.063 H 
BRANCH  48  51
ATOM     51  C   UNL A   1      43.559  24.569  27.210  1.00  0.00     0.031 A 
ATOM     52  C   UNL A   1      42.585  25.585  27.742  1.00  0.00     0.074 A 
ATOM     53  C   UNL A   1      44.827  24.925  26.932  1.00  0.00     0.049 A 
ATOM     54  N   UNL A   1      42.769  26.858  27.986  1.00  0.00    -0.248 NA
ATOM     55  C   UNL A   1      41.218  25.114  28.012  1.00  0.00    -0.034 C 
ATOM     56  C   UNL A   1      45.851  24.040  26.374  1.00  0.00    -0.036 A 
ATOM     57  N   UNL A   1      45.469  26.130  27.071  1.00  0.00    -0.354 N 
ATOM     58  C   UNL A   1      41.541  27.341  28.418  1.00  0.00     0.074 A 
ATOM     59  C   UNL A   1      40.607  26.236  28.359  1.00  0.00    -0.034 C 
ATOM     60  H   UNL A   1      40.834  24.157  27.947  1.00  0.00     0.065 H 
ATOM     61  C   UNL A   1      46.997  24.727  26.236  1.00  0.00    -0.036 A 
ATOM     62  H   UNL A   1      45.713  23.049  26.126  1.00  0.00     0.065 H 
ATOM     63  C   UNL A   1      46.779  26.107  26.660  1.00  0.00     0.049 A 
ATOM     64  H   UNL A   1      45.032  26.936  27.430  1.00  0.00     0.167 HD
ATOM     65  C   UNL A   1      41.227  28.587  28.846  1.00  0.00     0.037 A 
ATOM     66  H   UNL A   1      39.598  26.315  28.561  1.00  0.00     0.065 H 
ATOM     67  H   UNL A   1      47.888  24.340  25.887  1.00  0.00     0.065 H 
ATOM     68  C   UNL A   1      47.699  27.090  26.623  1.00  0.00     0.037 A 
ATOM     69  C   UNL A   1      42.167  29.673  28.933  1.00  0.00     0.049 A 
ATOM     70  C   UNL A   1      47.321  28.465  27.102  1.00  0.00     0.074 A 
ATOM     71  C   UNL A   1      41.963  30.953  29.417  1.00  0.00    -0.036 A 
ATOM     72  N   UNL A   1      43.491  29.605  28.527  1.00  0.00    -0.354 N 
ATOM     73  N   UNL A   1      46.175  28.892  27.575  1.00  0.00    -0.248 NA
ATOM     74  C   UNL A   1      48.367  29.496  27.048  1.00  0.00    -0.034 C 
ATOM     75  C   UNL A   1      43.150  31.674  29.260  1.00  0.00    -0.036 A 
ATOM     76  H   UNL A   1      41.086  31.314  29.823  1.00  0.00     0.065 H 
ATOM     77  C   UNL A   1      44.110  30.828  28.727  1.00  0.00     0.049 A 
ATOM     78  H   UNL A   1      43.927  28.806  28.152  1.00  0.00     0.167 HD
ATOM     79  C   UNL A   1      46.371  30.226  27.904  1.00  0.00     0.074 A 
ATOM     80  C   UNL A   1      47.749  30.536  27.590  1.00  0.00    -0.034 C 
ATOM     81  H   UNL A   1      49.330  29.427  26.684  1.00  0.00     0.065 H 
ATOM     82  H   UNL A   1      43.289  32.668  29.501  1.00  0.00     0.065 H 
ATOM     83  C   UNL A   1      45.487  31.115  28.421  1.00  0.00     0.037 A 
ATOM     84  H   UNL A   1      48.194  31.450  27.765  1.00  0.00     0.065 H 
BRANCH  65  85
ATOM     85  C   UNL A   1      39.807  28.846  29.258  1.00  0.00     0.064 A 
ATOM     86  C   UNL A   1      39.378  28.657  30.580  1.00  0.00     0.173 A 
ATOM     87  C   UNL A   1      38.876  29.340  28.331  1.00  0.00     0.173 A 
ATOM     88  F   UNL A   1      40.225  28.176  31.503  1.00  0.00    -0.203 F 
ATOM     89  C   UNL A   1      38.064  28.928  30.954  1.00  0.00     0.198 A 
ATOM     90  C   UNL A   1      37.571  29.639  28.715  1.00  0.00     0.198 A 
ATOM     91  F   UNL A   1      39.235  29.545  27.055  1.00  0.00    -0.203 F 
ATOM     92  F   UNL A   1      37.666  28.698  32.213  1.00  0.00    -0.200 F 
ATOM     93  C   UNL A   1      37.165  29.427  30.024  1.00  0.00     0.200 A 
ATOM     94  F   UNL A   1      36.707  30.133  27.817  1.00  0.00    -0.200 F 
ATOM     95  F   UNL A   1      35.903  29.700  30.387  1.00  0.00    -0.200 F 
ENDBRANCH  65  85
BRANCH  68  96
ATOM     96  C   UNL A   1      49.074  26.808  26.135  1.00  0.00     0.064 A 
ATOM     97  C   UNL A   1      49.414  27.007  24.789  1.00  0.00     0.173 A 
ATOM     98  C   UNL A   1      50.070  26.318  26.993  1.00  0.00     0.173 A 
ATOM     99  F   UNL A   1      48.491  27.456  23.925  1.00  0.00    -0.203 F 
ATOM    100  C   UNL A   1      50.689  26.704  24.315  1.00  0.00     0.198 A 
ATOM    101  C   UNL A   1      51.352  26.043  26.525  1.00  0.00     0.198 A 
ATOM    102  F   UNL A   1      49.797  26.115  28.290  1.00  0.00    -0.203 F 
ATOM    103  F   UNL A   1      50.970  26.856  23.015  1.00  0.00    -0.200 F 
ATOM    104  C   UNL A   1      51.658  26.226  25.184  1.00  0.00     0.200 A 
ATOM    105  F   UNL A   1      52.290  25.595  27.370  1.00  0.00    -0.200 F 
ATOM    106  F   UNL A   1      52.883  25.934  24.728  1.00  0.00    -0.200 F 
ENDBRANCH  68  96
BRANCH  83 107
ATOM    107  C   UNL A   1      45.995  32.496  28.717  1.00  0.00     0.064 A 
ATOM    108  C   UNL A   1      45.908  33.531  27.775  1.00  0.00     0.173 A 
ATOM    109  C   UNL A   1      46.540  32.795  29.975  1.00  0.00     0.173 A 
ATOM    110  F   UNL A   1      45.410  33.292  26.552  1.00  0.00    -0.203 F 
ATOM    111  C   UNL A   1      46.372  34.810  28.074  1.00  0.00     0.198 A 
ATOM    112  C   UNL A   1      46.973  34.082  30.281  1.00  0.00     0.198 A 
ATOM    113  F   UNL A   1      46.639  31.842  30.914  1.00  0.00    -0.203 F 
ATOM    114  F   UNL A   1      46.323  35.772  27.142  1.00  0.00    -0.200 F 
ATOM    115  C   UNL A   1      46.896  35.086  29.328  1.00  0.00     0.200 A 
ATOM    116  F   UNL A   1      47.467  34.350  31.498  1.00  0.00    -0.200 F 
ATOM    117  F   UNL A   1      47.334  36.320  29.616  1.00  0.00    -0.200 F 
ENDBRANCH  83 107
ENDBRANCH  48  51
ENDBRANCH  38  41
ENDBRANCH  34  37
ENDBRANCH  31  34
ENDBRANCH   1  31
TORSDOF 15
ENDMDL
