MODEL 1
REMARK VINA RESULT:     -11.0      0.000      0.000
REMARK SMILES CCOc1cccc(OCC)c1-c1ccc([C@@H](C)C(=O)NCCCCCCNC(=O)c2ccc(-c3c4nc(c(-c5c(F)c(F)c(F)c(F)c5F)c5ccc([nH]5)c(-c5c(F)c(F)c(F)c(F)c5F)c5nc(c(-c6c(F)c(F)c(F)c(F)c6F)c6ccc3[nH]6)C=C5)C=C4)cc2)cc1F
REMARK SMILES IDX 23 1 22 4 21 7 19 8 20 9 17 11 16 13 13 14 14 15 95 16 15 17
REMARK SMILES IDX 94 19 96 20 12 23 4 24 5 25 6 26 8 28 7 29 3 32 2 33 1 36
REMARK SMILES IDX 9 40 10 41 11 44 18 48 24 52 25 55 26 58 27 61 28 64 29 65
REMARK SMILES IDX 30 67 31 68 32 69 93 70 33 71 92 73 34 75 35 78 36 79 86 80
REMARK SMILES IDX 37 81 91 82 85 83 87 84 38 85 90 86 84 88 83 90 39 92 71 95
REMARK SMILES IDX 51 96 70 97 52 98 55 99 69 100 88 101 53 102 54 104 68 106
REMARK SMILES IDX 89 107 56 110 40 112 41 113 49 114 42 115 43 116 47 117
REMARK SMILES IDX 50 118 44 119 45 120 48 121 46 122 72 123 73 124 81 125
REMARK SMILES IDX 74 126 75 127 79 128 82 129 76 130 77 131 80 132 78 133
REMARK SMILES IDX 57 134 58 135 66 136 59 137 60 138 64 139 67 140 61 141
REMARK SMILES IDX 62 142 65 143 63 144
REMARK H PARENT 23 2 23 3 22 5 22 6 21 10 17 12 14 18 15 21 94 22 5 27 6 30
REMARK H PARENT 7 31 2 34 2 35 1 37 1 38 1 39 10 42 10 43 11 45 11 46 11 47
REMARK H PARENT 18 49 18 50 18 51 24 53 24 54 25 56 25 57 26 59 26 60 27 62
REMARK H PARENT 27 63 28 66 32 72 93 74 33 76 92 77 91 87 85 89 87 91 90 93
REMARK H PARENT 84 94 52 103 55 105 88 108 53 109 89 111
REMARK Flexibility Score: inf
ROOT
ATOM      1  C   UNL A   1      33.593  31.759  27.674  1.00  0.00    -0.036 C 
ATOM      2  H   UNL A   1      32.622  31.697  28.119  1.00  0.00     0.028 H 
ATOM      3  H   UNL A   1      33.664  32.480  26.888  1.00  0.00     0.028 H 
ENDROOT
BRANCH   1   4
ATOM      4  C   UNL A   1      33.905  30.395  27.025  1.00  0.00     0.017 C 
ATOM      5  H   UNL A   1      34.744  30.506  26.370  1.00  0.00     0.049 H 
ATOM      6  H   UNL A   1      34.120  29.693  27.803  1.00  0.00     0.049 H 
BRANCH   4   7
ATOM      7  N   UNL A   1      32.769  29.897  26.260  1.00  0.00    -0.356 N 
ATOM      8  C   UNL A   1      32.624  29.139  25.138  1.00  0.00     0.227 C 
ATOM      9  O   UNL A   1      31.457  29.011  24.741  1.00  0.00    -0.274 OA
ATOM     10  H   UNL A   1      31.906  30.172  26.644  1.00  0.00     0.163 HD
BRANCH   8  11
ATOM     11  C   UNL A   1      33.762  28.449  24.350  1.00  0.00     0.060 C 
ATOM     12  H   UNL A   1      34.639  28.728  24.895  1.00  0.00     0.045 H 
BRANCH  11  13
ATOM     13  C   UNL A   1      33.731  26.931  24.399  1.00  0.00    -0.033 A 
ATOM     14  C   UNL A   1      33.788  24.093  24.607  1.00  0.00     0.025 A 
ATOM     15  C   UNL A   1      33.924  24.907  25.725  1.00  0.00    -0.051 A 
ATOM     16  C   UNL A   1      33.652  24.726  23.365  1.00  0.00     0.131 A 
ATOM     17  C   UNL A   1      33.786  26.279  25.621  1.00  0.00    -0.057 A 
ATOM     18  H   UNL A   1      34.130  24.483  26.644  1.00  0.00     0.063 H 
ATOM     19  C   UNL A   1      33.652  26.127  23.253  1.00  0.00    -0.022 A 
ATOM     20  F   UNL A   1      33.538  23.998  22.244  1.00  0.00    -0.206 F 
ATOM     21  H   UNL A   1      33.721  26.839  26.486  1.00  0.00     0.063 H 
ATOM     22  H   UNL A   1      33.595  26.567  22.321  1.00  0.00     0.066 H 
BRANCH  14  23
ATOM     23  C   UNL A   1      33.888  22.645  24.818  1.00  0.00     0.069 A 
ATOM     24  C   UNL A   1      32.677  21.902  24.775  1.00  0.00     0.130 A 
ATOM     25  C   UNL A   1      32.657  20.507  24.812  1.00  0.00    -0.019 A 
ATOM     26  C   UNL A   1      33.854  19.810  24.870  1.00  0.00    -0.055 A 
ATOM     27  H   UNL A   1      31.759  19.998  24.795  1.00  0.00     0.066 H 
ATOM     28  C   UNL A   1      35.102  21.923  24.893  1.00  0.00     0.130 A 
ATOM     29  C   UNL A   1      35.055  20.515  24.923  1.00  0.00    -0.019 A 
ATOM     30  H   UNL A   1      33.856  18.779  24.872  1.00  0.00     0.063 H 
ATOM     31  H   UNL A   1      35.940  19.988  24.985  1.00  0.00     0.066 H 
BRANCH  24  32
ATOM     32  O   UNL A   1      31.475  22.571  24.771  1.00  0.00    -0.493 OA
BRANCH  32  33
ATOM     33  C   UNL A   1      30.816  22.564  26.042  1.00  0.00     0.085 C 
ATOM     34  H   UNL A   1      29.940  21.952  25.989  1.00  0.00     0.070 H 
ATOM     35  H   UNL A   1      31.474  22.170  26.789  1.00  0.00     0.070 H 
BRANCH  33  36
ATOM     36  C   UNL A   1      30.423  23.989  26.401  1.00  0.00    -0.031 C 
ATOM     37  H   UNL A   1      30.326  24.075  27.464  1.00  0.00     0.027 H 
ATOM     38  H   UNL A   1      29.488  24.229  25.938  1.00  0.00     0.027 H 
ATOM     39  H   UNL A   1      31.176  24.665  26.056  1.00  0.00     0.027 H 
ENDBRANCH  33  36
ENDBRANCH  32  33
ENDBRANCH  24  32
BRANCH  28  40
ATOM     40  O   UNL A   1      36.404  22.340  24.967  1.00  0.00    -0.493 OA
BRANCH  40  41
ATOM     41  C   UNL A   1      37.509  21.513  25.299  1.00  0.00     0.085 C 
ATOM     42  H   UNL A   1      37.896  21.067  24.407  1.00  0.00     0.070 H 
ATOM     43  H   UNL A   1      37.180  20.754  25.979  1.00  0.00     0.070 H 
BRANCH  41  44
ATOM     44  C   UNL A   1      38.608  22.328  25.968  1.00  0.00    -0.031 C 
ATOM     45  H   UNL A   1      39.537  22.155  25.465  1.00  0.00     0.027 H 
ATOM     46  H   UNL A   1      38.697  22.035  26.993  1.00  0.00     0.027 H 
ATOM     47  H   UNL A   1      38.362  23.369  25.915  1.00  0.00     0.027 H 
ENDBRANCH  41  44
ENDBRANCH  40  41
ENDBRANCH  28  40
ENDBRANCH  14  23
ENDBRANCH  11  13
BRANCH  11  48
ATOM     48  C   UNL A   1      33.980  28.996  22.942  1.00  0.00    -0.049 C 
ATOM     49  H   UNL A   1      33.062  29.395  22.567  1.00  0.00     0.024 H 
ATOM     50  H   UNL A   1      34.314  28.206  22.301  1.00  0.00     0.024 H 
ATOM     51  H   UNL A   1      34.720  29.768  22.971  1.00  0.00     0.024 H 
ENDBRANCH  11  48
ENDBRANCH   8  11
ENDBRANCH   4   7
ENDBRANCH   1   4
BRANCH   1  52
ATOM     52  C   UNL A   1      34.573  32.218  28.751  1.00  0.00    -0.052 C 
ATOM     53  H   UNL A   1      35.551  31.879  28.477  1.00  0.00     0.027 H 
ATOM     54  H   UNL A   1      34.223  31.801  29.673  1.00  0.00     0.027 H 
BRANCH  52  55
ATOM     55  C   UNL A   1      34.636  33.733  28.962  1.00  0.00    -0.052 C 
ATOM     56  H   UNL A   1      35.209  34.151  28.162  1.00  0.00     0.027 H 
ATOM     57  H   UNL A   1      35.071  33.873  29.930  1.00  0.00     0.027 H 
BRANCH  55  58
ATOM     58  C   UNL A   1      33.286  34.460  29.003  1.00  0.00    -0.036 C 
ATOM     59  H   UNL A   1      32.655  33.946  29.699  1.00  0.00     0.028 H 
ATOM     60  H   UNL A   1      32.915  34.451  28.000  1.00  0.00     0.028 H 
BRANCH  58  61
ATOM     61  C   UNL A   1      33.348  35.930  29.417  1.00  0.00     0.018 C 
ATOM     62  H   UNL A   1      33.000  36.532  28.604  1.00  0.00     0.049 H 
ATOM     63  H   UNL A   1      34.363  36.161  29.664  1.00  0.00     0.049 H 
BRANCH  61  64
ATOM     64  N   UNL A   1      32.529  36.203  30.588  1.00  0.00    -0.352 N 
ATOM     65  C   UNL A   1      32.629  35.717  31.867  1.00  0.00     0.251 C 
ATOM     66  H   UNL A   1      31.787  36.833  30.439  1.00  0.00     0.163 HD
ATOM     67  O   UNL A   1      31.701  35.883  32.660  1.00  0.00    -0.269 OA
BRANCH  65  68
ATOM     68  C   UNL A   1      33.838  34.989  32.304  1.00  0.00     0.039 A 
ATOM     69  C   UNL A   1      33.703  33.694  32.812  1.00  0.00    -0.049 A 
ATOM     70  C   UNL A   1      35.098  35.594  32.258  1.00  0.00    -0.049 A 
ATOM     71  C   UNL A   1      34.835  32.984  33.219  1.00  0.00    -0.053 A 
ATOM     72  H   UNL A   1      32.768  33.263  32.887  1.00  0.00     0.063 H 
ATOM     73  C   UNL A   1      36.232  34.862  32.605  1.00  0.00    -0.053 A 
ATOM     74  H   UNL A   1      35.187  36.581  31.970  1.00  0.00     0.063 H 
ATOM     75  C   UNL A   1      36.113  33.551  33.089  1.00  0.00    -0.014 A 
ATOM     76  H   UNL A   1      34.731  32.038  33.617  1.00  0.00     0.063 H 
ATOM     77  H   UNL A   1      37.167  35.288  32.502  1.00  0.00     0.063 H 
BRANCH  75  78
ATOM     78  C   UNL A   1      37.334  32.787  33.454  1.00  0.00     0.031 A 
ATOM     79  C   UNL A   1      38.073  33.100  34.726  1.00  0.00     0.074 A 
ATOM     80  C   UNL A   1      37.813  31.855  32.607  1.00  0.00     0.049 A 
ATOM     81  N   UNL A   1      39.198  32.604  35.174  1.00  0.00    -0.248 NA
ATOM     82  C   UNL A   1      37.479  34.125  35.600  1.00  0.00    -0.034 C 
ATOM     83  C   UNL A   1      37.211  31.492  31.323  1.00  0.00    -0.036 A 
ATOM     84  N   UNL A   1      38.925  31.055  32.691  1.00  0.00    -0.354 N 
ATOM     85  C   UNL A   1      39.451  33.259  36.372  1.00  0.00     0.074 A 
ATOM     86  C   UNL A   1      38.391  34.227  36.556  1.00  0.00    -0.034 C 
ATOM     87  H   UNL A   1      36.586  34.632  35.495  1.00  0.00     0.065 H 
ATOM     88  C   UNL A   1      37.954  30.535  30.745  1.00  0.00    -0.036 A 
ATOM     89  H   UNL A   1      36.353  31.906  30.926  1.00  0.00     0.065 H 
ATOM     90  C   UNL A   1      39.102  30.242  31.598  1.00  0.00     0.049 A 
ATOM     91  H   UNL A   1      39.537  31.061  33.462  1.00  0.00     0.167 HD
ATOM     92  C   UNL A   1      40.461  33.054  37.250  1.00  0.00     0.037 A 
ATOM     93  H   UNL A   1      38.350  34.906  37.331  1.00  0.00     0.065 H 
ATOM     94  H   UNL A   1      37.746  30.079  29.843  1.00  0.00     0.065 H 
ATOM     95  C   UNL A   1      40.087  29.371  31.308  1.00  0.00     0.037 A 
ATOM     96  C   UNL A   1      41.506  32.079  37.074  1.00  0.00     0.049 A 
ATOM     97  C   UNL A   1      41.203  29.170  32.298  1.00  0.00     0.074 A 
ATOM     98  C   UNL A   1      42.551  31.768  37.926  1.00  0.00    -0.036 A 
ATOM     99  N   UNL A   1      41.636  31.255  35.965  1.00  0.00    -0.354 N 
ATOM    100  N   UNL A   1      41.399  29.754  33.455  1.00  0.00    -0.248 NA
ATOM    101  C   UNL A   1      42.232  28.181  31.945  1.00  0.00    -0.034 C 
ATOM    102  C   UNL A   1      43.337  30.785  37.315  1.00  0.00    -0.036 A 
ATOM    103  H   UNL A   1      42.721  32.189  38.853  1.00  0.00     0.065 H 
ATOM    104  C   UNL A   1      42.753  30.448  36.105  1.00  0.00     0.049 A 
ATOM    105  H   UNL A   1      41.026  31.246  35.193  1.00  0.00     0.167 HD
ATOM    106  C   UNL A   1      42.553  29.187  33.978  1.00  0.00     0.074 A 
ATOM    107  C   UNL A   1      43.005  28.200  33.021  1.00  0.00    -0.034 C 
ATOM    108  H   UNL A   1      42.328  27.620  31.084  1.00  0.00     0.065 H 
ATOM    109  H   UNL A   1      44.203  30.379  37.701  1.00  0.00     0.065 H 
ATOM    110  C   UNL A   1      43.183  29.462  35.147  1.00  0.00     0.037 A 
ATOM    111  H   UNL A   1      43.825  27.588  33.160  1.00  0.00     0.065 H 
BRANCH  92 112
ATOM    112  C   UNL A   1      40.483  33.895  38.495  1.00  0.00     0.064 A 
ATOM    113  C   UNL A   1      39.781  33.513  39.648  1.00  0.00     0.173 A 
ATOM    114  C   UNL A   1      41.251  35.069  38.552  1.00  0.00     0.173 A 
ATOM    115  F   UNL A   1      39.024  32.406  39.642  1.00  0.00    -0.203 F 
ATOM    116  C   UNL A   1      39.826  34.289  40.805  1.00  0.00     0.198 A 
ATOM    117  C   UNL A   1      41.317  35.824  39.720  1.00  0.00     0.198 A 
ATOM    118  F   UNL A   1      41.946  35.476  37.480  1.00  0.00    -0.203 F 
ATOM    119  F   UNL A   1      39.113  33.926  41.880  1.00  0.00    -0.200 F 
ATOM    120  C   UNL A   1      40.601  35.439  40.842  1.00  0.00     0.200 A 
ATOM    121  F   UNL A   1      42.077  36.928  39.759  1.00  0.00    -0.200 F 
ATOM    122  F   UNL A   1      40.652  36.176  41.959  1.00  0.00    -0.200 F 
ENDBRANCH  92 112
BRANCH  95 123
ATOM    123  C   UNL A   1      40.059  28.614  30.030  1.00  0.00     0.064 A 
ATOM    124  C   UNL A   1      39.448  27.353  29.950  1.00  0.00     0.173 A 
ATOM    125  C   UNL A   1      40.653  29.125  28.867  1.00  0.00     0.173 A 
ATOM    126  F   UNL A   1      38.884  26.813  31.040  1.00  0.00    -0.203 F 
ATOM    127  C   UNL A   1      39.456  26.624  28.763  1.00  0.00     0.198 A 
ATOM    128  C   UNL A   1      40.632  28.407  27.672  1.00  0.00     0.198 A 
ATOM    129  F   UNL A   1      41.244  30.329  28.887  1.00  0.00    -0.203 F 
ATOM    130  F   UNL A   1      38.911  25.401  28.729  1.00  0.00    -0.200 F 
ATOM    131  C   UNL A   1      40.043  27.153  27.624  1.00  0.00     0.200 A 
ATOM    132  F   UNL A   1      41.188  28.930  26.570  1.00  0.00    -0.200 F 
ATOM    133  F   UNL A   1      40.050  26.451  26.482  1.00  0.00    -0.200 F 
ENDBRANCH  95 123
BRANCH 110 134
ATOM    134  C   UNL A   1      44.410  28.661  35.471  1.00  0.00     0.064 A 
ATOM    135  C   UNL A   1      44.334  27.452  36.178  1.00  0.00     0.173 A 
ATOM    136  C   UNL A   1      45.674  29.091  35.037  1.00  0.00     0.173 A 
ATOM    137  F   UNL A   1      43.152  27.006  36.629  1.00  0.00    -0.203 F 
ATOM    138  C   UNL A   1      45.481  26.715  36.459  1.00  0.00     0.198 A 
ATOM    139  C   UNL A   1      46.814  28.336  35.293  1.00  0.00     0.198 A 
ATOM    140  F   UNL A   1      45.799  30.237  34.352  1.00  0.00    -0.203 F 
ATOM    141  F   UNL A   1      45.391  25.587  37.177  1.00  0.00    -0.200 F 
ATOM    142  C   UNL A   1      46.718  27.153  36.010  1.00  0.00     0.200 A 
ATOM    143  F   UNL A   1      48.007  28.754  34.848  1.00  0.00    -0.200 F 
ATOM    144  F   UNL A   1      47.820  26.438  36.276  1.00  0.00    -0.200 F 
ENDBRANCH 110 134
ENDBRANCH  75  78
ENDBRANCH  65  68
ENDBRANCH  61  64
ENDBRANCH  58  61
ENDBRANCH  55  58
ENDBRANCH  52  55
ENDBRANCH   1  52
TORSDOF 22
ENDMDL
MODEL 2
REMARK VINA RESULT:     -10.4      4.690     11.496
REMARK SMILES CCOc1cccc(OCC)c1-c1ccc([C@@H](C)C(=O)NCCCCCCNC(=O)c2ccc(-c3c4nc(c(-c5c(F)c(F)c(F)c(F)c5F)c5ccc([nH]5)c(-c5c(F)c(F)c(F)c(F)c5F)c5nc(c(-c6c(F)c(F)c(F)c(F)c6F)c6ccc3[nH]6)C=C5)C=C4)cc2)cc1F
REMARK SMILES IDX 23 1 22 4 21 7 19 8 20 9 17 11 16 13 13 14 14 15 95 16 15 17
REMARK SMILES IDX 94 19 96 20 12 23 4 24 5 25 6 26 8 28 7 29 3 32 2 33 1 36
REMARK SMILES IDX 9 40 10 41 11 44 18 48 24 52 25 55 26 58 27 61 28 64 29 65
REMARK SMILES IDX 30 67 31 68 32 69 93 70 33 71 92 73 34 75 35 78 36 79 86 80
REMARK SMILES IDX 37 81 91 82 85 83 87 84 38 85 90 86 84 88 83 90 39 92 71 95
REMARK SMILES IDX 51 96 70 97 52 98 55 99 69 100 88 101 53 102 54 104 68 106
REMARK SMILES IDX 89 107 56 110 40 112 41 113 49 114 42 115 43 116 47 117
REMARK SMILES IDX 50 118 44 119 45 120 48 121 46 122 72 123 73 124 81 125
REMARK SMILES IDX 74 126 75 127 79 128 82 129 76 130 77 131 80 132 78 133
REMARK SMILES IDX 57 134 58 135 66 136 59 137 60 138 64 139 67 140 61 141
REMARK SMILES IDX 62 142 65 143 63 144
REMARK H PARENT 23 2 23 3 22 5 22 6 21 10 17 12 14 18 15 21 94 22 5 27 6 30
REMARK H PARENT 7 31 2 34 2 35 1 37 1 38 1 39 10 42 10 43 11 45 11 46 11 47
REMARK H PARENT 18 49 18 50 18 51 24 53 24 54 25 56 25 57 26 59 26 60 27 62
REMARK H PARENT 27 63 28 66 32 72 93 74 33 76 92 77 91 87 85 89 87 91 90 93
REMARK H PARENT 84 94 52 103 55 105 88 108 53 109 89 111
REMARK Flexibility Score: inf
ROOT
ATOM      1  C   UNL A   1      44.096  23.046  29.957  1.00  0.00    -0.036 C 
ATOM      2  H   UNL A   1      44.131  22.062  30.374  1.00  0.00     0.028 H 
ATOM      3  H   UNL A   1      44.886  23.253  29.266  1.00  0.00     0.028 H 
ENDROOT
BRANCH   1   4
ATOM      4  C   UNL A   1      44.270  24.056  31.110  1.00  0.00     0.017 C 
ATOM      5  H   UNL A   1      45.308  24.295  31.209  1.00  0.00     0.049 H 
ATOM      6  H   UNL A   1      43.699  24.931  30.880  1.00  0.00     0.049 H 
BRANCH   4   7
ATOM      7  N   UNL A   1      43.786  23.512  32.372  1.00  0.00    -0.356 N 
ATOM      8  C   UNL A   1      43.868  23.892  33.677  1.00  0.00     0.227 C 
ATOM      9  O   UNL A   1      43.391  23.085  34.487  1.00  0.00    -0.274 OA
ATOM     10  H   UNL A   1      43.281  22.676  32.253  1.00  0.00     0.163 HD
BRANCH   8  11
ATOM     11  C   UNL A   1      44.486  25.207  34.207  1.00  0.00     0.060 C 
ATOM     12  H   UNL A   1      45.199  25.463  33.451  1.00  0.00     0.045 H 
BRANCH  11  13
ATOM     13  C   UNL A   1      43.523  26.381  34.256  1.00  0.00    -0.033 A 
ATOM     14  C   UNL A   1      41.820  28.662  34.252  1.00  0.00     0.025 A 
ATOM     15  C   UNL A   1      42.523  28.276  33.116  1.00  0.00    -0.051 A 
ATOM     16  C   UNL A   1      42.007  27.900  35.412  1.00  0.00     0.131 A 
ATOM     17  C   UNL A   1      43.259  27.106  33.104  1.00  0.00    -0.057 A 
ATOM     18  H   UNL A   1      42.494  28.869  32.271  1.00  0.00     0.063 H 
ATOM     19  C   UNL A   1      42.869  26.789  35.428  1.00  0.00    -0.022 A 
ATOM     20  F   UNL A   1      41.376  28.231  36.548  1.00  0.00    -0.206 F 
ATOM     21  H   UNL A   1      43.625  26.759  32.204  1.00  0.00     0.063 H 
ATOM     22  H   UNL A   1      43.023  26.272  36.307  1.00  0.00     0.066 H 
BRANCH  14  23
ATOM     23  C   UNL A   1      41.015  29.884  34.157  1.00  0.00     0.069 A 
ATOM     24  C   UNL A   1      39.626  29.724  33.906  1.00  0.00     0.130 A 
ATOM     25  C   UNL A   1      38.733  30.796  33.943  1.00  0.00    -0.019 A 
ATOM     26  C   UNL A   1      39.202  32.062  34.256  1.00  0.00    -0.055 A 
ATOM     27  H   UNL A   1      37.732  30.648  33.739  1.00  0.00     0.066 H 
ATOM     28  C   UNL A   1      41.485  31.184  34.460  1.00  0.00     0.130 A 
ATOM     29  C   UNL A   1      40.562  32.249  34.497  1.00  0.00    -0.019 A 
ATOM     30  H   UNL A   1      38.551  32.859  34.311  1.00  0.00     0.063 H 
ATOM     31  H   UNL A   1      40.905  33.199  34.710  1.00  0.00     0.066 H 
BRANCH  24  32
ATOM     32  O   UNL A   1      39.145  28.487  33.541  1.00  0.00    -0.493 OA
BRANCH  32  33
ATOM     33  C   UNL A   1      38.155  28.544  32.510  1.00  0.00     0.085 C 
ATOM     34  H   UNL A   1      37.180  28.589  32.949  1.00  0.00     0.070 H 
ATOM     35  H   UNL A   1      38.308  29.416  31.908  1.00  0.00     0.070 H 
BRANCH  33  36
ATOM     36  C   UNL A   1      38.269  27.297  31.647  1.00  0.00    -0.031 C 
ATOM     37  H   UNL A   1      38.255  26.428  32.272  1.00  0.00     0.027 H 
ATOM     38  H   UNL A   1      39.188  27.326  31.098  1.00  0.00     0.027 H 
ATOM     39  H   UNL A   1      37.447  27.259  30.964  1.00  0.00     0.027 H 
ENDBRANCH  33  36
ENDBRANCH  32  33
ENDBRANCH  24  32
BRANCH  28  40
ATOM     40  O   UNL A   1      42.742  31.658  34.725  1.00  0.00    -0.493 OA
BRANCH  40  41
ATOM     41  C   UNL A   1      43.683  31.037  35.588  1.00  0.00     0.085 C 
ATOM     42  H   UNL A   1      43.209  30.225  36.099  1.00  0.00     0.070 H 
ATOM     43  H   UNL A   1      44.037  31.761  36.292  1.00  0.00     0.070 H 
BRANCH  41  44
ATOM     44  C   UNL A   1      44.869  30.504  34.794  1.00  0.00    -0.031 C 
ATOM     45  H   UNL A   1      45.700  31.171  34.904  1.00  0.00     0.027 H 
ATOM     46  H   UNL A   1      44.604  30.432  33.761  1.00  0.00     0.027 H 
ATOM     47  H   UNL A   1      45.139  29.536  35.163  1.00  0.00     0.027 H 
ENDBRANCH  41  44
ENDBRANCH  40  41
ENDBRANCH  28  40
ENDBRANCH  14  23
ENDBRANCH  11  13
BRANCH  11  48
ATOM     48  C   UNL A   1      45.304  25.053  35.485  1.00  0.00    -0.049 C 
ATOM     49  H   UNL A   1      44.671  24.711  36.276  1.00  0.00     0.024 H 
ATOM     50  H   UNL A   1      45.729  25.999  35.753  1.00  0.00     0.024 H 
ATOM     51  H   UNL A   1      46.088  24.343  35.323  1.00  0.00     0.024 H 
ENDBRANCH  11  48
ENDBRANCH   8  11
ENDBRANCH   4   7
ENDBRANCH   1   4
BRANCH   1  52
ATOM     52  C   UNL A   1      42.800  23.172  29.159  1.00  0.00    -0.052 C 
ATOM     53  H   UNL A   1      42.719  24.181  28.812  1.00  0.00     0.027 H 
ATOM     54  H   UNL A   1      42.010  22.887  29.822  1.00  0.00     0.027 H 
BRANCH  52  55
ATOM     55  C   UNL A   1      42.697  22.242  27.947  1.00  0.00    -0.052 C 
ATOM     56  H   UNL A   1      43.248  21.352  28.170  1.00  0.00     0.027 H 
ATOM     57  H   UNL A   1      43.087  22.799  27.120  1.00  0.00     0.027 H 
BRANCH  55  58
ATOM     58  C   UNL A   1      41.279  21.828  27.538  1.00  0.00    -0.036 C 
ATOM     59  H   UNL A   1      40.589  22.477  28.036  1.00  0.00     0.028 H 
ATOM     60  H   UNL A   1      41.179  20.800  27.818  1.00  0.00     0.028 H 
BRANCH  58  61
ATOM     61  C   UNL A   1      40.987  21.887  26.039  1.00  0.00     0.018 C 
ATOM     62  H   UNL A   1      41.304  20.969  25.589  1.00  0.00     0.049 H 
ATOM     63  H   UNL A   1      41.518  22.722  25.633  1.00  0.00     0.049 H 
BRANCH  61  64
ATOM     64  N   UNL A   1      39.571  22.080  25.766  1.00  0.00    -0.352 N 
ATOM     65  C   UNL A   1      38.718  23.067  26.187  1.00  0.00     0.251 C 
ATOM     66  H   UNL A   1      39.162  21.395  25.189  1.00  0.00     0.163 HD
ATOM     67  O   UNL A   1      37.502  22.930  26.044  1.00  0.00    -0.269 OA
BRANCH  65  68
ATOM     68  C   UNL A   1      39.242  24.295  26.821  1.00  0.00     0.039 A 
ATOM     69  C   UNL A   1      39.969  25.202  26.044  1.00  0.00    -0.049 A 
ATOM     70  C   UNL A   1      39.059  24.534  28.187  1.00  0.00    -0.049 A 
ATOM     71  C   UNL A   1      40.462  26.374  26.621  1.00  0.00    -0.053 A 
ATOM     72  H   UNL A   1      40.142  25.004  25.046  1.00  0.00     0.063 H 
ATOM     73  C   UNL A   1      39.496  25.733  28.746  1.00  0.00    -0.053 A 
ATOM     74  H   UNL A   1      38.603  23.823  28.779  1.00  0.00     0.063 H 
ATOM     75  C   UNL A   1      40.202  26.665  27.970  1.00  0.00    -0.014 A 
ATOM     76  H   UNL A   1      41.020  27.030  26.053  1.00  0.00     0.063 H 
ATOM     77  H   UNL A   1      39.297  25.938  29.738  1.00  0.00     0.063 H 
BRANCH  75  78
ATOM     78  C   UNL A   1      40.660  27.938  28.586  1.00  0.00     0.031 A 
ATOM     79  C   UNL A   1      42.091  28.099  29.019  1.00  0.00     0.074 A 
ATOM     80  C   UNL A   1      39.771  28.925  28.811  1.00  0.00     0.049 A 
ATOM     81  N   UNL A   1      42.659  29.097  29.647  1.00  0.00    -0.248 NA
ATOM     82  C   UNL A   1      42.999  26.978  28.728  1.00  0.00    -0.034 C 
ATOM     83  C   UNL A   1      38.347  28.871  28.476  1.00  0.00    -0.036 A 
ATOM     84  N   UNL A   1      39.930  30.158  29.390  1.00  0.00    -0.354 N 
ATOM     85  C   UNL A   1      43.983  28.723  29.834  1.00  0.00     0.074 A 
ATOM     86  C   UNL A   1      44.123  27.385  29.301  1.00  0.00    -0.034 C 
ATOM     87  H   UNL A   1      42.811  26.104  28.213  1.00  0.00     0.065 H 
ATOM     88  C   UNL A   1      37.766  30.023  28.845  1.00  0.00    -0.036 A 
ATOM     89  H   UNL A   1      37.868  28.075  28.027  1.00  0.00     0.065 H 
ATOM     90  C   UNL A   1      38.765  30.881  29.475  1.00  0.00     0.049 A 
ATOM     91  H   UNL A   1      40.797  30.495  29.714  1.00  0.00     0.167 HD
ATOM     92  C   UNL A   1      44.995  29.440  30.377  1.00  0.00     0.037 A 
ATOM     93  H   UNL A   1      44.985  26.822  29.359  1.00  0.00     0.065 H 
ATOM     94  H   UNL A   1      36.772  30.264  28.706  1.00  0.00     0.065 H 
ATOM     95  C   UNL A   1      38.526  32.092  30.014  1.00  0.00     0.037 A 
ATOM     96  C   UNL A   1      44.858  30.779  30.891  1.00  0.00     0.049 A 
ATOM     97  C   UNL A   1      39.667  32.864  30.620  1.00  0.00     0.074 A 
ATOM     98  C   UNL A   1      45.832  31.603  31.425  1.00  0.00    -0.036 A 
ATOM     99  N   UNL A   1      43.666  31.488  30.935  1.00  0.00    -0.354 N 
ATOM    100  N   UNL A   1      40.927  32.522  30.737  1.00  0.00    -0.248 NA
ATOM    101  C   UNL A   1      39.354  34.194  31.162  1.00  0.00    -0.034 C 
ATOM    102  C   UNL A   1      45.223  32.797  31.829  1.00  0.00    -0.036 A 
ATOM    103  H   UNL A   1      46.836  31.378  31.510  1.00  0.00     0.065 H 
ATOM    104  C   UNL A   1      43.878  32.734  31.501  1.00  0.00     0.049 A 
ATOM    105  H   UNL A   1      42.798  31.154  30.612  1.00  0.00     0.167 HD
ATOM    106  C   UNL A   1      41.561  33.601  31.340  1.00  0.00     0.074 A 
ATOM    107  C   UNL A   1      40.549  34.616  31.547  1.00  0.00    -0.034 C 
ATOM    108  H   UNL A   1      38.442  34.673  31.225  1.00  0.00     0.065 H 
ATOM    109  H   UNL A   1      45.696  33.589  32.291  1.00  0.00     0.065 H 
ATOM    110  C   UNL A   1      42.863  33.737  31.691  1.00  0.00     0.037 A 
ATOM    111  H   UNL A   1      40.737  35.551  31.944  1.00  0.00     0.065 H 
BRANCH  92 112
ATOM    112  C   UNL A   1      46.351  28.797  30.436  1.00  0.00     0.064 A 
ATOM    113  C   UNL A   1      47.245  28.875  29.357  1.00  0.00     0.173 A 
ATOM    114  C   UNL A   1      46.781  28.137  31.598  1.00  0.00     0.173 A 
ATOM    115  F   UNL A   1      46.879  29.486  28.220  1.00  0.00    -0.203 F 
ATOM    116  C   UNL A   1      48.510  28.295  29.430  1.00  0.00     0.198 A 
ATOM    117  C   UNL A   1      48.057  27.585  31.677  1.00  0.00     0.198 A 
ATOM    118  F   UNL A   1      45.969  28.039  32.660  1.00  0.00    -0.203 F 
ATOM    119  F   UNL A   1      49.329  28.346  28.371  1.00  0.00    -0.200 F 
ATOM    120  C   UNL A   1      48.917  27.658  30.592  1.00  0.00     0.200 A 
ATOM    121  F   UNL A   1      48.455  26.982  32.806  1.00  0.00    -0.200 F 
ATOM    122  F   UNL A   1      50.138  27.111  30.664  1.00  0.00    -0.200 F 
ENDBRANCH  92 112
BRANCH  95 123
ATOM    123  C   UNL A   1      37.151  32.656  29.996  1.00  0.00     0.064 A 
ATOM    124  C   UNL A   1      36.242  32.379  31.028  1.00  0.00     0.173 A 
ATOM    125  C   UNL A   1      36.712  33.471  28.942  1.00  0.00     0.173 A 
ATOM    126  F   UNL A   1      36.609  31.588  32.048  1.00  0.00    -0.203 F 
ATOM    127  C   UNL A   1      34.940  32.874  30.993  1.00  0.00     0.198 A 
ATOM    128  C   UNL A   1      35.419  33.990  28.925  1.00  0.00     0.198 A 
ATOM    129  F   UNL A   1      37.543  33.773  27.935  1.00  0.00    -0.203 F 
ATOM    130  F   UNL A   1      34.078  32.550  31.966  1.00  0.00    -0.200 F 
ATOM    131  C   UNL A   1      34.531  33.683  29.945  1.00  0.00     0.200 A 
ATOM    132  F   UNL A   1      35.033  34.785  27.917  1.00  0.00    -0.200 F 
ATOM    133  F   UNL A   1      33.279  34.159  29.912  1.00  0.00    -0.200 F 
ENDBRANCH  95 123
BRANCH 110 134
ATOM    134  C   UNL A   1      43.276  35.043  32.305  1.00  0.00     0.064 A 
ATOM    135  C   UNL A   1      43.173  35.274  33.684  1.00  0.00     0.173 A 
ATOM    136  C   UNL A   1      43.816  36.063  31.507  1.00  0.00     0.173 A 
ATOM    137  F   UNL A   1      42.648  34.336  34.489  1.00  0.00    -0.203 F 
ATOM    138  C   UNL A   1      43.574  36.486  34.239  1.00  0.00     0.198 A 
ATOM    139  C   UNL A   1      44.244  37.262  32.069  1.00  0.00     0.198 A 
ATOM    140  F   UNL A   1      43.942  35.890  30.182  1.00  0.00    -0.203 F 
ATOM    141  F   UNL A   1      43.421  36.703  35.553  1.00  0.00    -0.200 F 
ATOM    142  C   UNL A   1      44.115  37.476  33.432  1.00  0.00     0.200 A 
ATOM    143  F   UNL A   1      44.779  38.212  31.290  1.00  0.00    -0.200 F 
ATOM    144  F   UNL A   1      44.506  38.640  33.969  1.00  0.00    -0.200 F 
ENDBRANCH 110 134
ENDBRANCH  75  78
ENDBRANCH  65  68
ENDBRANCH  61  64
ENDBRANCH  58  61
ENDBRANCH  55  58
ENDBRANCH  52  55
ENDBRANCH   1  52
TORSDOF 22
ENDMDL
MODEL 3
REMARK VINA RESULT:     -10.4      0.991      2.537
REMARK SMILES CCOc1cccc(OCC)c1-c1ccc([C@@H](C)C(=O)NCCCCCCNC(=O)c2ccc(-c3c4nc(c(-c5c(F)c(F)c(F)c(F)c5F)c5ccc([nH]5)c(-c5c(F)c(F)c(F)c(F)c5F)c5nc(c(-c6c(F)c(F)c(F)c(F)c6F)c6ccc3[nH]6)C=C5)C=C4)cc2)cc1F
REMARK SMILES IDX 23 1 22 4 21 7 19 8 20 9 17 11 16 13 13 14 14 15 95 16 15 17
REMARK SMILES IDX 94 19 96 20 12 23 4 24 5 25 6 26 8 28 7 29 3 32 2 33 1 36
REMARK SMILES IDX 9 40 10 41 11 44 18 48 24 52 25 55 26 58 27 61 28 64 29 65
REMARK SMILES IDX 30 67 31 68 32 69 93 70 33 71 92 73 34 75 35 78 36 79 86 80
REMARK SMILES IDX 37 81 91 82 85 83 87 84 38 85 90 86 84 88 83 90 39 92 71 95
REMARK SMILES IDX 51 96 70 97 52 98 55 99 69 100 88 101 53 102 54 104 68 106
REMARK SMILES IDX 89 107 56 110 40 112 41 113 49 114 42 115 43 116 47 117
REMARK SMILES IDX 50 118 44 119 45 120 48 121 46 122 72 123 73 124 81 125
REMARK SMILES IDX 74 126 75 127 79 128 82 129 76 130 77 131 80 132 78 133
REMARK SMILES IDX 57 134 58 135 66 136 59 137 60 138 64 139 67 140 61 141
REMARK SMILES IDX 62 142 65 143 63 144
REMARK H PARENT 23 2 23 3 22 5 22 6 21 10 17 12 14 18 15 21 94 22 5 27 6 30
REMARK H PARENT 7 31 2 34 2 35 1 37 1 38 1 39 10 42 10 43 11 45 11 46 11 47
REMARK H PARENT 18 49 18 50 18 51 24 53 24 54 25 56 25 57 26 59 26 60 27 62
REMARK H PARENT 27 63 28 66 32 72 93 74 33 76 92 77 91 87 85 89 87 91 90 93
REMARK H PARENT 84 94 52 103 55 105 88 108 53 109 89 111
REMARK Flexibility Score: inf
ROOT
ATOM      1  C   UNL A   1      33.810  31.990  27.658  1.00  0.00    -0.036 C 
ATOM      2  H   UNL A   1      33.060  32.024  28.419  1.00  0.00     0.028 H 
ATOM      3  H   UNL A   1      33.535  32.493  26.755  1.00  0.00     0.028 H 
ENDROOT
BRANCH   1   4
ATOM      4  C   UNL A   1      34.024  30.513  27.269  1.00  0.00     0.017 C 
ATOM      5  H   UNL A   1      34.181  30.451  26.212  1.00  0.00     0.049 H 
ATOM      6  H   UNL A   1      34.875  30.144  27.802  1.00  0.00     0.049 H 
BRANCH   4   7
ATOM      7  N   UNL A   1      32.871  29.696  27.626  1.00  0.00    -0.356 N 
ATOM      8  C   UNL A   1      32.109  28.773  26.977  1.00  0.00     0.227 C 
ATOM      9  O   UNL A   1      31.130  28.361  27.616  1.00  0.00    -0.274 OA
ATOM     10  H   UNL A   1      32.576  29.846  28.553  1.00  0.00     0.163 HD
BRANCH   8  11
ATOM     11  C   UNL A   1      32.362  28.218  25.556  1.00  0.00     0.060 C 
ATOM     12  H   UNL A   1      33.143  28.847  25.184  1.00  0.00     0.045 H 
BRANCH  11  13
ATOM     13  C   UNL A   1      32.936  26.812  25.522  1.00  0.00    -0.033 A 
ATOM     14  C   UNL A   1      34.003  24.183  25.295  1.00  0.00     0.025 A 
ATOM     15  C   UNL A   1      34.319  25.178  24.377  1.00  0.00    -0.051 A 
ATOM     16  C   UNL A   1      33.112  24.517  26.323  1.00  0.00     0.131 A 
ATOM     17  C   UNL A   1      33.880  26.475  24.562  1.00  0.00    -0.057 A 
ATOM     18  H   UNL A   1      34.888  24.946  23.548  1.00  0.00     0.063 H 
ATOM     19  C   UNL A   1      32.559  25.806  26.423  1.00  0.00    -0.022 A 
ATOM     20  F   UNL A   1      32.749  23.598  27.229  1.00  0.00    -0.206 F 
ATOM     21  H   UNL A   1      34.268  27.222  23.965  1.00  0.00     0.063 H 
ATOM     22  H   UNL A   1      31.871  26.013  27.163  1.00  0.00     0.066 H 
BRANCH  14  23
ATOM     23  C   UNL A   1      34.562  22.849  25.054  1.00  0.00     0.069 A 
ATOM     24  C   UNL A   1      35.926  22.648  25.399  1.00  0.00     0.130 A 
ATOM     25  C   UNL A   1      36.529  21.391  25.357  1.00  0.00    -0.019 A 
ATOM     26  C   UNL A   1      35.775  20.287  24.991  1.00  0.00    -0.055 A 
ATOM     27  H   UNL A   1      37.526  21.283  25.598  1.00  0.00     0.066 H 
ATOM     28  C   UNL A   1      33.807  21.716  24.666  1.00  0.00     0.130 A 
ATOM     29  C   UNL A   1      34.437  20.456  24.638  1.00  0.00    -0.019 A 
ATOM     30  H   UNL A   1      36.201  19.347  24.979  1.00  0.00     0.063 H 
ATOM     31  H   UNL A   1      33.890  19.631  24.348  1.00  0.00     0.066 H 
BRANCH  24  32
ATOM     32  O   UNL A   1      36.708  23.736  25.715  1.00  0.00    -0.493 OA
BRANCH  32  33
ATOM     33  C   UNL A   1      37.668  23.467  26.741  1.00  0.00     0.085 C 
ATOM     34  H   UNL A   1      37.486  24.105  27.581  1.00  0.00     0.070 H 
ATOM     35  H   UNL A   1      37.588  22.446  27.054  1.00  0.00     0.070 H 
BRANCH  33  36
ATOM     36  C   UNL A   1      39.062  23.729  26.194  1.00  0.00    -0.031 C 
ATOM     37  H   UNL A   1      39.780  23.636  26.983  1.00  0.00     0.027 H 
ATOM     38  H   UNL A   1      39.106  24.719  25.789  1.00  0.00     0.027 H 
ATOM     39  H   UNL A   1      39.283  23.019  25.425  1.00  0.00     0.027 H 
ENDBRANCH  33  36
ENDBRANCH  32  33
ENDBRANCH  24  32
BRANCH  28  40
ATOM     40  O   UNL A   1      32.504  21.586  24.266  1.00  0.00    -0.493 OA
BRANCH  40  41
ATOM     41  C   UNL A   1      31.941  22.188  23.110  1.00  0.00     0.085 C 
ATOM     42  H   UNL A   1      31.367  21.458  22.578  1.00  0.00     0.070 H 
ATOM     43  H   UNL A   1      32.734  22.557  22.492  1.00  0.00     0.070 H 
BRANCH  41  44
ATOM     44  C   UNL A   1      31.037  23.351  23.496  1.00  0.00    -0.031 C 
ATOM     45  H   UNL A   1      30.727  23.871  22.613  1.00  0.00     0.027 H 
ATOM     46  H   UNL A   1      31.572  24.022  24.135  1.00  0.00     0.027 H 
ATOM     47  H   UNL A   1      30.176  22.978  24.011  1.00  0.00     0.027 H 
ENDBRANCH  41  44
ENDBRANCH  40  41
ENDBRANCH  28  40
ENDBRANCH  14  23
ENDBRANCH  11  13
BRANCH  11  48
ATOM     48  C   UNL A   1      31.202  28.412  24.583  1.00  0.00    -0.049 C 
ATOM     49  H   UNL A   1      30.667  29.302  24.838  1.00  0.00     0.024 H 
ATOM     50  H   UNL A   1      30.543  27.571  24.643  1.00  0.00     0.024 H 
ATOM     51  H   UNL A   1      31.583  28.497  23.587  1.00  0.00     0.024 H 
ENDBRANCH  11  48
ENDBRANCH   8  11
ENDBRANCH   4   7
ENDBRANCH   1   4
BRANCH   1  52
ATOM     52  C   UNL A   1      35.044  32.720  28.183  1.00  0.00    -0.052 C 
ATOM     53  H   UNL A   1      35.553  33.156  27.348  1.00  0.00     0.027 H 
ATOM     54  H   UNL A   1      35.629  31.988  28.700  1.00  0.00     0.027 H 
BRANCH  52  55
ATOM     55  C   UNL A   1      34.753  33.830  29.196  1.00  0.00    -0.052 C 
ATOM     56  H   UNL A   1      35.485  34.599  29.059  1.00  0.00     0.027 H 
ATOM     57  H   UNL A   1      34.790  33.362  30.158  1.00  0.00     0.027 H 
BRANCH  55  58
ATOM     58  C   UNL A   1      33.367  34.478  29.101  1.00  0.00    -0.036 C 
ATOM     59  H   UNL A   1      32.719  33.974  29.788  1.00  0.00     0.028 H 
ATOM     60  H   UNL A   1      33.066  34.383  28.079  1.00  0.00     0.028 H 
BRANCH  58  61
ATOM     61  C   UNL A   1      33.320  35.973  29.418  1.00  0.00     0.018 C 
ATOM     62  H   UNL A   1      32.927  36.493  28.569  1.00  0.00     0.049 H 
ATOM     63  H   UNL A   1      34.316  36.293  29.642  1.00  0.00     0.049 H 
BRANCH  61  64
ATOM     64  N   UNL A   1      32.485  36.261  30.574  1.00  0.00    -0.352 N 
ATOM     65  C   UNL A   1      32.571  35.796  31.861  1.00  0.00     0.251 C 
ATOM     66  H   UNL A   1      31.744  36.885  30.405  1.00  0.00     0.163 HD
ATOM     67  O   UNL A   1      31.633  35.970  32.640  1.00  0.00    -0.269 OA
BRANCH  65  68
ATOM     68  C   UNL A   1      33.778  35.079  32.324  1.00  0.00     0.039 A 
ATOM     69  C   UNL A   1      33.645  33.776  32.815  1.00  0.00    -0.049 A 
ATOM     70  C   UNL A   1      35.030  35.702  32.322  1.00  0.00    -0.049 A 
ATOM     71  C   UNL A   1      34.775  33.078  33.246  1.00  0.00    -0.053 A 
ATOM     72  H   UNL A   1      32.715  33.333  32.858  1.00  0.00     0.063 H 
ATOM     73  C   UNL A   1      36.164  34.981  32.692  1.00  0.00    -0.053 A 
ATOM     74  H   UNL A   1      35.113  36.692  32.046  1.00  0.00     0.063 H 
ATOM     75  C   UNL A   1      36.048  33.664  33.160  1.00  0.00    -0.014 A 
ATOM     76  H   UNL A   1      34.673  32.126  33.632  1.00  0.00     0.063 H 
ATOM     77  H   UNL A   1      37.095  35.421  32.622  1.00  0.00     0.063 H 
BRANCH  75  78
ATOM     78  C   UNL A   1      37.270  32.912  33.551  1.00  0.00     0.031 A 
ATOM     79  C   UNL A   1      37.960  33.212  34.853  1.00  0.00     0.074 A 
ATOM     80  C   UNL A   1      37.791  32.004  32.703  1.00  0.00     0.049 A 
ATOM     81  N   UNL A   1      39.078  32.725  35.329  1.00  0.00    -0.248 NA
ATOM     82  C   UNL A   1      37.320  34.210  35.725  1.00  0.00    -0.034 C 
ATOM     83  C   UNL A   1      37.239  31.657  31.393  1.00  0.00    -0.036 A 
ATOM     84  N   UNL A   1      38.913  31.221  32.810  1.00  0.00    -0.354 N 
ATOM     85  C   UNL A   1      39.279  33.361  36.547  1.00  0.00     0.074 A 
ATOM     86  C   UNL A   1      38.198  34.308  36.714  1.00  0.00    -0.034 C 
ATOM     87  H   UNL A   1      36.423  34.704  35.600  1.00  0.00     0.065 H 
ATOM     88  C   UNL A   1      38.016  30.723  30.823  1.00  0.00    -0.036 A 
ATOM     89  H   UNL A   1      36.388  32.065  30.975  1.00  0.00     0.065 H 
ATOM     90  C   UNL A   1      39.140  30.432  31.708  1.00  0.00     0.049 A 
ATOM     91  H   UNL A   1      39.499  31.222  33.601  1.00  0.00     0.167 HD
ATOM     92  C   UNL A   1      40.262  33.155  37.455  1.00  0.00     0.037 A 
ATOM     93  H   UNL A   1      38.119  34.971  37.499  1.00  0.00     0.065 H 
ATOM     94  H   UNL A   1      37.847  30.281  29.906  1.00  0.00     0.065 H 
ATOM     95  C   UNL A   1      40.149  29.582  31.435  1.00  0.00     0.037 A 
ATOM     96  C   UNL A   1      41.329  32.200  37.296  1.00  0.00     0.049 A 
ATOM     97  C   UNL A   1      41.234  29.380  32.458  1.00  0.00     0.074 A 
ATOM     98  C   UNL A   1      42.349  31.889  38.176  1.00  0.00    -0.036 A 
ATOM     99  N   UNL A   1      41.510  31.400  36.177  1.00  0.00    -0.354 N 
ATOM    100  N   UNL A   1      41.381  29.944  33.632  1.00  0.00    -0.248 NA
ATOM    101  C   UNL A   1      42.291  28.414  32.122  1.00  0.00    -0.034 C 
ATOM    102  C   UNL A   1      43.171  30.931  37.575  1.00  0.00    -0.036 A 
ATOM    103  H   UNL A   1      42.482  32.295  39.117  1.00  0.00     0.065 H 
ATOM    104  C   UNL A   1      42.634  30.608  36.339  1.00  0.00     0.049 A 
ATOM    105  H   UNL A   1      40.925  31.396  35.385  1.00  0.00     0.167 HD
ATOM    106  C   UNL A   1      42.526  29.386  34.184  1.00  0.00     0.074 A 
ATOM    107  C   UNL A   1      43.026  28.424  33.224  1.00  0.00    -0.034 C 
ATOM    108  H   UNL A   1      42.424  27.871  31.254  1.00  0.00     0.065 H 
ATOM    109  H   UNL A   1      44.031  30.531  37.982  1.00  0.00     0.065 H 
ATOM    110  C   UNL A   1      43.113  29.648  35.378  1.00  0.00     0.037 A 
ATOM    111  H   UNL A   1      43.851  27.823  33.379  1.00  0.00     0.065 H 
BRANCH  92 112
ATOM    112  C   UNL A   1      40.229  33.972  38.715  1.00  0.00     0.064 A 
ATOM    113  C   UNL A   1      39.532  33.535  39.852  1.00  0.00     0.173 A 
ATOM    114  C   UNL A   1      40.938  35.180  38.805  1.00  0.00     0.173 A 
ATOM    115  F   UNL A   1      38.829  32.393  39.815  1.00  0.00    -0.203 F 
ATOM    116  C   UNL A   1      39.526  34.289  41.024  1.00  0.00     0.198 A 
ATOM    117  C   UNL A   1      40.955  35.915  39.987  1.00  0.00     0.198 A 
ATOM    118  F   UNL A   1      41.627  35.640  37.749  1.00  0.00    -0.203 F 
ATOM    119  F   UNL A   1      38.817  33.872  42.082  1.00  0.00    -0.200 F 
ATOM    120  C   UNL A   1      40.244  35.474  41.092  1.00  0.00     0.200 A 
ATOM    121  F   UNL A   1      41.660  37.053  40.057  1.00  0.00    -0.200 F 
ATOM    122  F   UNL A   1      40.246  36.191  42.223  1.00  0.00    -0.200 F 
ENDBRANCH  92 112
BRANCH  95 123
ATOM    123  C   UNL A   1      40.176  28.849  30.143  1.00  0.00     0.064 A 
ATOM    124  C   UNL A   1      40.859  29.368  29.032  1.00  0.00     0.173 A 
ATOM    125  C   UNL A   1      39.509  27.626  29.985  1.00  0.00     0.173 A 
ATOM    126  F   UNL A   1      41.495  30.545  29.128  1.00  0.00    -0.203 F 
ATOM    127  C   UNL A   1      40.852  28.702  27.808  1.00  0.00     0.198 A 
ATOM    128  C   UNL A   1      39.529  26.946  28.768  1.00  0.00     0.198 A 
ATOM    129  F   UNL A   1      38.847  27.083  31.017  1.00  0.00    -0.203 F 
ATOM    130  F   UNL A   1      41.469  29.246  26.751  1.00  0.00    -0.200 F 
ATOM    131  C   UNL A   1      40.192  27.490  27.679  1.00  0.00     0.200 A 
ATOM    132  F   UNL A   1      38.902  25.768  28.652  1.00  0.00    -0.200 F 
ATOM    133  F   UNL A   1      40.186  26.851  26.501  1.00  0.00    -0.200 F 
ENDBRANCH  95 123
BRANCH 110 134
ATOM    134  C   UNL A   1      44.341  28.860  35.728  1.00  0.00     0.064 A 
ATOM    135  C   UNL A   1      45.625  29.310  35.390  1.00  0.00     0.173 A 
ATOM    136  C   UNL A   1      44.232  27.658  36.444  1.00  0.00     0.173 A 
ATOM    137  F   UNL A   1      45.782  30.445  34.692  1.00  0.00    -0.203 F 
ATOM    138  C   UNL A   1      46.755  28.573  35.735  1.00  0.00     0.198 A 
ATOM    139  C   UNL A   1      45.366  26.939  36.813  1.00  0.00     0.198 A 
ATOM    140  F   UNL A   1      43.026  27.188  36.796  1.00  0.00    -0.203 F 
ATOM    141  F   UNL A   1      47.970  28.997  35.359  1.00  0.00    -0.200 F 
ATOM    142  C   UNL A   1      46.625  27.393  36.452  1.00  0.00     0.200 A 
ATOM    143  F   UNL A   1      45.238  25.807  37.517  1.00  0.00    -0.200 F 
ATOM    144  F   UNL A   1      47.714  26.688  36.789  1.00  0.00    -0.200 F 
ENDBRANCH 110 134
ENDBRANCH  75  78
ENDBRANCH  65  68
ENDBRANCH  61  64
ENDBRANCH  58  61
ENDBRANCH  55  58
ENDBRANCH  52  55
ENDBRANCH   1  52
TORSDOF 22
ENDMDL
MODEL 4
REMARK VINA RESULT:     -10.4      4.484      8.276
REMARK SMILES CCOc1cccc(OCC)c1-c1ccc([C@@H](C)C(=O)NCCCCCCNC(=O)c2ccc(-c3c4nc(c(-c5c(F)c(F)c(F)c(F)c5F)c5ccc([nH]5)c(-c5c(F)c(F)c(F)c(F)c5F)c5nc(c(-c6c(F)c(F)c(F)c(F)c6F)c6ccc3[nH]6)C=C5)C=C4)cc2)cc1F
REMARK SMILES IDX 23 1 22 4 21 7 19 8 20 9 17 11 16 13 13 14 14 15 95 16 15 17
REMARK SMILES IDX 94 19 96 20 12 23 4 24 5 25 6 26 8 28 7 29 3 32 2 33 1 36
REMARK SMILES IDX 9 40 10 41 11 44 18 48 24 52 25 55 26 58 27 61 28 64 29 65
REMARK SMILES IDX 30 67 31 68 32 69 93 70 33 71 92 73 34 75 35 78 36 79 86 80
REMARK SMILES IDX 37 81 91 82 85 83 87 84 38 85 90 86 84 88 83 90 39 92 71 95
REMARK SMILES IDX 51 96 70 97 52 98 55 99 69 100 88 101 53 102 54 104 68 106
REMARK SMILES IDX 89 107 56 110 40 112 41 113 49 114 42 115 43 116 47 117
REMARK SMILES IDX 50 118 44 119 45 120 48 121 46 122 72 123 73 124 81 125
REMARK SMILES IDX 74 126 75 127 79 128 82 129 76 130 77 131 80 132 78 133
REMARK SMILES IDX 57 134 58 135 66 136 59 137 60 138 64 139 67 140 61 141
REMARK SMILES IDX 62 142 65 143 63 144
REMARK H PARENT 23 2 23 3 22 5 22 6 21 10 17 12 14 18 15 21 94 22 5 27 6 30
REMARK H PARENT 7 31 2 34 2 35 1 37 1 38 1 39 10 42 10 43 11 45 11 46 11 47
REMARK H PARENT 18 49 18 50 18 51 24 53 24 54 25 56 25 57 26 59 26 60 27 62
REMARK H PARENT 27 63 28 66 32 72 93 74 33 76 92 77 91 87 85 89 87 91 90 93
REMARK H PARENT 84 94 52 103 55 105 88 108 53 109 89 111
REMARK Flexibility Score: inf
ROOT
ATOM      1  C   UNL A   1      38.050  34.348  31.253  1.00  0.00    -0.036 C 
ATOM      2  H   UNL A   1      37.589  35.310  31.324  1.00  0.00     0.028 H 
ATOM      3  H   UNL A   1      37.959  33.757  32.140  1.00  0.00     0.028 H 
ENDROOT
BRANCH   1   4
ATOM      4  C   UNL A   1      39.563  34.561  31.043  1.00  0.00     0.017 C 
ATOM      5  H   UNL A   1      39.906  35.311  31.724  1.00  0.00     0.049 H 
ATOM      6  H   UNL A   1      40.062  33.631  31.218  1.00  0.00     0.049 H 
BRANCH   4   7
ATOM      7  N   UNL A   1      39.856  34.987  29.680  1.00  0.00    -0.356 N 
ATOM      8  C   UNL A   1      40.993  35.271  28.985  1.00  0.00     0.227 C 
ATOM      9  O   UNL A   1      40.809  35.705  27.839  1.00  0.00    -0.274 OA
ATOM     10  H   UNL A   1      39.044  35.094  29.135  1.00  0.00     0.163 HD
BRANCH   8  11
ATOM     11  C   UNL A   1      42.442  35.099  29.497  1.00  0.00     0.060 C 
ATOM     12  H   UNL A   1      42.320  35.047  30.559  1.00  0.00     0.045 H 
BRANCH  11  13
ATOM     13  C   UNL A   1      43.095  33.783  29.109  1.00  0.00    -0.033 A 
ATOM     14  C   UNL A   1      44.299  31.269  28.535  1.00  0.00     0.025 A 
ATOM     15  C   UNL A   1      43.234  31.380  29.421  1.00  0.00    -0.051 A 
ATOM     16  C   UNL A   1      44.778  32.451  27.956  1.00  0.00     0.131 A 
ATOM     17  C   UNL A   1      42.592  32.590  29.605  1.00  0.00    -0.057 A 
ATOM     18  H   UNL A   1      42.919  30.550  29.947  1.00  0.00     0.063 H 
ATOM     19  C   UNL A   1      44.206  33.699  28.258  1.00  0.00    -0.022 A 
ATOM     20  F   UNL A   1      45.817  32.416  27.108  1.00  0.00    -0.206 F 
ATOM     21  H   UNL A   1      41.705  32.606  30.133  1.00  0.00     0.063 H 
ATOM     22  H   UNL A   1      44.606  34.559  27.852  1.00  0.00     0.066 H 
BRANCH  14  23
ATOM     23  C   UNL A   1      44.882  29.936  28.353  1.00  0.00     0.069 A 
ATOM     24  C   UNL A   1      44.593  29.265  27.134  1.00  0.00     0.130 A 
ATOM     25  C   UNL A   1      45.206  28.063  26.781  1.00  0.00    -0.019 A 
ATOM     26  C   UNL A   1      46.148  27.504  27.630  1.00  0.00    -0.055 A 
ATOM     27  H   UNL A   1      44.961  27.593  25.895  1.00  0.00     0.066 H 
ATOM     28  C   UNL A   1      45.834  29.347  29.219  1.00  0.00     0.130 A 
ATOM     29  C   UNL A   1      46.444  28.136  28.837  1.00  0.00    -0.019 A 
ATOM     30  H   UNL A   1      46.628  26.628  27.371  1.00  0.00     0.063 H 
ATOM     31  H   UNL A   1      47.132  27.702  29.472  1.00  0.00     0.066 H 
BRANCH  24  32
ATOM     32  O   UNL A   1      43.623  29.772  26.300  1.00  0.00    -0.493 OA
BRANCH  32  33
ATOM     33  C   UNL A   1      42.318  29.244  26.559  1.00  0.00     0.085 C 
ATOM     34  H   UNL A   1      42.337  28.662  27.456  1.00  0.00     0.070 H 
ATOM     35  H   UNL A   1      41.619  30.047  26.678  1.00  0.00     0.070 H 
BRANCH  33  36
ATOM     36  C   UNL A   1      41.900  28.367  25.389  1.00  0.00    -0.031 C 
ATOM     37  H   UNL A   1      42.203  27.357  25.574  1.00  0.00     0.027 H 
ATOM     38  H   UNL A   1      42.368  28.720  24.493  1.00  0.00     0.027 H 
ATOM     39  H   UNL A   1      40.837  28.405  25.276  1.00  0.00     0.027 H 
ENDBRANCH  33  36
ENDBRANCH  32  33
ENDBRANCH  24  32
BRANCH  28  40
ATOM     40  O   UNL A   1      46.305  29.730  30.447  1.00  0.00    -0.493 OA
BRANCH  40  41
ATOM     41  C   UNL A   1      47.108  30.874  30.693  1.00  0.00     0.085 C 
ATOM     42  H   UNL A   1      47.382  31.318  29.760  1.00  0.00     0.070 H 
ATOM     43  H   UNL A   1      47.983  30.572  31.231  1.00  0.00     0.070 H 
BRANCH  41  44
ATOM     44  C   UNL A   1      46.347  31.894  31.529  1.00  0.00    -0.031 C 
ATOM     45  H   UNL A   1      47.033  32.424  32.158  1.00  0.00     0.027 H 
ATOM     46  H   UNL A   1      45.623  31.392  32.136  1.00  0.00     0.027 H 
ATOM     47  H   UNL A   1      45.850  32.587  30.881  1.00  0.00     0.027 H 
ENDBRANCH  41  44
ENDBRANCH  40  41
ENDBRANCH  28  40
ENDBRANCH  14  23
ENDBRANCH  11  13
BRANCH  11  48
ATOM     48  C   UNL A   1      43.345  36.305  29.261  1.00  0.00    -0.049 C 
ATOM     49  H   UNL A   1      43.914  36.503  30.145  1.00  0.00     0.024 H 
ATOM     50  H   UNL A   1      42.745  37.159  29.025  1.00  0.00     0.024 H 
ATOM     51  H   UNL A   1      44.009  36.100  28.448  1.00  0.00     0.024 H 
ENDBRANCH  11  48
ENDBRANCH   8  11
ENDBRANCH   4   7
ENDBRANCH   1   4
BRANCH   1  52
ATOM     52  C   UNL A   1      37.334  33.565  30.155  1.00  0.00    -0.052 C 
ATOM     53  H   UNL A   1      37.907  32.685  29.946  1.00  0.00     0.027 H 
ATOM     54  H   UNL A   1      37.255  34.227  29.318  1.00  0.00     0.027 H 
BRANCH  52  55
ATOM     55  C   UNL A   1      35.906  33.133  30.497  1.00  0.00    -0.052 C 
ATOM     56  H   UNL A   1      35.666  33.532  31.461  1.00  0.00     0.027 H 
ATOM     57  H   UNL A   1      35.909  32.064  30.457  1.00  0.00     0.027 H 
BRANCH  55  58
ATOM     58  C   UNL A   1      34.817  33.583  29.517  1.00  0.00    -0.036 C 
ATOM     59  H   UNL A   1      34.734  34.648  29.581  1.00  0.00     0.028 H 
ATOM     60  H   UNL A   1      33.926  33.066  29.807  1.00  0.00     0.028 H 
BRANCH  58  61
ATOM     61  C   UNL A   1      35.061  33.215  28.054  1.00  0.00     0.018 C 
ATOM     62  H   UNL A   1      36.090  32.949  27.932  1.00  0.00     0.049 H 
ATOM     63  H   UNL A   1      34.806  34.064  27.454  1.00  0.00     0.049 H 
BRANCH  61  64
ATOM     64  N   UNL A   1      34.233  32.098  27.626  1.00  0.00    -0.352 N 
ATOM     65  C   UNL A   1      34.545  30.770  27.493  1.00  0.00     0.251 C 
ATOM     66  H   UNL A   1      33.305  32.333  27.397  1.00  0.00     0.163 HD
ATOM     67  O   UNL A   1      33.777  30.017  26.892  1.00  0.00    -0.269 OA
BRANCH  65  68
ATOM     68  C   UNL A   1      35.800  30.230  28.056  1.00  0.00     0.039 A 
ATOM     69  C   UNL A   1      36.947  30.206  27.256  1.00  0.00    -0.049 A 
ATOM     70  C   UNL A   1      35.840  29.705  29.351  1.00  0.00    -0.049 A 
ATOM     71  C   UNL A   1      38.146  29.712  27.774  1.00  0.00    -0.053 A 
ATOM     72  H   UNL A   1      36.907  30.554  26.285  1.00  0.00     0.063 H 
ATOM     73  C   UNL A   1      37.051  29.271  29.887  1.00  0.00    -0.053 A 
ATOM     74  H   UNL A   1      34.974  29.638  29.908  1.00  0.00     0.063 H 
ATOM     75  C   UNL A   1      38.215  29.268  29.104  1.00  0.00    -0.014 A 
ATOM     76  H   UNL A   1      38.985  29.671  27.174  1.00  0.00     0.063 H 
ATOM     77  H   UNL A   1      37.091  28.950  30.867  1.00  0.00     0.063 H 
BRANCH  75  78
ATOM     78  C   UNL A   1      39.497  28.801  29.694  1.00  0.00     0.031 A 
ATOM     79  C   UNL A   1      40.148  29.577  30.805  1.00  0.00     0.074 A 
ATOM     80  C   UNL A   1      40.105  27.712  29.184  1.00  0.00     0.049 A 
ATOM     81  N   UNL A   1      41.302  29.377  31.389  1.00  0.00    -0.248 NA
ATOM     82  C   UNL A   1      39.414  30.748  31.311  1.00  0.00    -0.034 C 
ATOM     83  C   UNL A   1      39.596  26.901  28.077  1.00  0.00    -0.036 A 
ATOM     84  N   UNL A   1      41.292  27.111  29.518  1.00  0.00    -0.354 N 
ATOM     85  C   UNL A   1      41.436  30.397  32.322  1.00  0.00     0.074 A 
ATOM     86  C   UNL A   1      40.272  31.246  32.190  1.00  0.00    -0.034 C 
ATOM     87  H   UNL A   1      38.477  31.091  31.050  1.00  0.00     0.065 H 
ATOM     88  C   UNL A   1      40.459  25.902  27.831  1.00  0.00    -0.036 A 
ATOM     89  H   UNL A   1      38.714  27.069  27.568  1.00  0.00     0.065 H 
ATOM     90  C   UNL A   1      41.598  26.023  28.735  1.00  0.00     0.049 A 
ATOM     91  H   UNL A   1      41.871  27.427  30.249  1.00  0.00     0.167 HD
ATOM     92  C   UNL A   1      42.429  30.594  33.222  1.00  0.00     0.037 A 
ATOM     93  H   UNL A   1      40.129  32.124  32.712  1.00  0.00     0.065 H 
ATOM     94  H   UNL A   1      40.336  25.167  27.117  1.00  0.00     0.065 H 
ATOM     95  C   UNL A   1      42.682  25.224  28.737  1.00  0.00     0.037 A 
ATOM     96  C   UNL A   1      43.578  29.738  33.364  1.00  0.00     0.049 A 
ATOM     97  C   UNL A   1      43.774  25.470  29.743  1.00  0.00     0.074 A 
ATOM     98  C   UNL A   1      44.617  29.830  34.273  1.00  0.00    -0.036 A 
ATOM     99  N   UNL A   1      43.839  28.630  32.570  1.00  0.00    -0.354 N 
ATOM    100  N   UNL A   1      43.861  26.404  30.659  1.00  0.00    -0.248 NA
ATOM    101  C   UNL A   1      44.917  24.545  29.721  1.00  0.00    -0.034 C 
ATOM    102  C   UNL A   1      45.527  28.802  34.005  1.00  0.00    -0.036 A 
ATOM    103  H   UNL A   1      44.705  30.535  35.022  1.00  0.00     0.065 H 
ATOM    104  C   UNL A   1      45.030  28.039  32.960  1.00  0.00     0.049 A 
ATOM    105  H   UNL A   1      43.263  28.311  31.839  1.00  0.00     0.167 HD
ATOM    106  C   UNL A   1      45.049  26.165  31.336  1.00  0.00     0.074 A 
ATOM    107  C   UNL A   1      45.640  24.986  30.739  1.00  0.00    -0.034 C 
ATOM    108  H   UNL A   1      45.105  23.758  29.080  1.00  0.00     0.065 H 
ATOM    109  H   UNL A   1      46.416  28.638  34.501  1.00  0.00     0.065 H 
ATOM    110  C   UNL A   1      45.600  26.860  32.361  1.00  0.00     0.037 A 
ATOM    111  H   UNL A   1      46.515  24.546  31.065  1.00  0.00     0.065 H 
BRANCH  92 112
ATOM    112  C   UNL A   1      42.312  31.777  34.139  1.00  0.00     0.064 A 
ATOM    113  C   UNL A   1      41.668  31.679  35.383  1.00  0.00     0.173 A 
ATOM    114  C   UNL A   1      42.890  33.009  33.796  1.00  0.00     0.173 A 
ATOM    115  F   UNL A   1      41.090  30.527  35.754  1.00  0.00    -0.203 F 
ATOM    116  C   UNL A   1      41.586  32.777  36.236  1.00  0.00     0.198 A 
ATOM    117  C   UNL A   1      42.832  34.095  34.665  1.00  0.00     0.198 A 
ATOM    118  F   UNL A   1      43.523  33.156  32.622  1.00  0.00    -0.203 F 
ATOM    119  F   UNL A   1      40.928  32.671  37.399  1.00  0.00    -0.200 F 
ATOM    120  C   UNL A   1      42.174  33.981  35.880  1.00  0.00     0.200 A 
ATOM    121  F   UNL A   1      43.413  35.254  34.326  1.00  0.00    -0.200 F 
ATOM    122  F   UNL A   1      42.104  35.032  36.708  1.00  0.00    -0.200 F 
ENDBRANCH  92 112
BRANCH  95 123
ATOM    123  C   UNL A   1      42.785  24.108  27.761  1.00  0.00     0.064 A 
ATOM    124  C   UNL A   1      43.255  24.328  26.458  1.00  0.00     0.173 A 
ATOM    125  C   UNL A   1      42.402  22.803  28.104  1.00  0.00     0.173 A 
ATOM    126  F   UNL A   1      43.615  25.563  26.076  1.00  0.00    -0.203 F 
ATOM    127  C   UNL A   1      43.314  23.291  25.529  1.00  0.00     0.198 A 
ATOM    128  C   UNL A   1      42.490  21.761  27.183  1.00  0.00     0.198 A 
ATOM    129  F   UNL A   1      41.952  22.537  29.339  1.00  0.00    -0.203 F 
ATOM    130  F   UNL A   1      43.719  23.540  24.277  1.00  0.00    -0.200 F 
ATOM    131  C   UNL A   1      42.937  22.008  25.894  1.00  0.00     0.200 A 
ATOM    132  F   UNL A   1      42.139  20.519  27.544  1.00  0.00    -0.200 F 
ATOM    133  F   UNL A   1      42.994  21.011  25.000  1.00  0.00    -0.200 F 
ENDBRANCH  95 123
BRANCH 110 134
ATOM    134  C   UNL A   1      46.893  26.346  32.924  1.00  0.00     0.064 A 
ATOM    135  C   UNL A   1      48.133  26.816  32.469  1.00  0.00     0.173 A 
ATOM    136  C   UNL A   1      46.889  25.397  33.958  1.00  0.00     0.173 A 
ATOM    137  F   UNL A   1      48.192  27.711  31.471  1.00  0.00    -0.203 F 
ATOM    138  C   UNL A   1      49.323  26.337  33.011  1.00  0.00     0.198 A 
ATOM    139  C   UNL A   1      48.079  24.943  34.519  1.00  0.00     0.198 A 
ATOM    140  F   UNL A   1      45.728  24.920  34.433  1.00  0.00    -0.203 F 
ATOM    141  F   UNL A   1      50.498  26.765  32.528  1.00  0.00    -0.200 F 
ATOM    142  C   UNL A   1      49.295  25.408  34.040  1.00  0.00     0.200 A 
ATOM    143  F   UNL A   1      48.049  24.055  35.521  1.00  0.00    -0.200 F 
ATOM    144  F   UNL A   1      50.440  24.953  34.566  1.00  0.00    -0.200 F 
ENDBRANCH 110 134
ENDBRANCH  75  78
ENDBRANCH  65  68
ENDBRANCH  61  64
ENDBRANCH  58  61
ENDBRANCH  55  58
ENDBRANCH  52  55
ENDBRANCH   1  52
TORSDOF 22
ENDMDL
MODEL 5
REMARK VINA RESULT:     -10.2      4.789      9.487
REMARK SMILES CCOc1cccc(OCC)c1-c1ccc([C@@H](C)C(=O)NCCCCCCNC(=O)c2ccc(-c3c4nc(c(-c5c(F)c(F)c(F)c(F)c5F)c5ccc([nH]5)c(-c5c(F)c(F)c(F)c(F)c5F)c5nc(c(-c6c(F)c(F)c(F)c(F)c6F)c6ccc3[nH]6)C=C5)C=C4)cc2)cc1F
REMARK SMILES IDX 23 1 22 4 21 7 19 8 20 9 17 11 16 13 13 14 14 15 95 16 15 17
REMARK SMILES IDX 94 19 96 20 12 23 4 24 5 25 6 26 8 28 7 29 3 32 2 33 1 36
REMARK SMILES IDX 9 40 10 41 11 44 18 48 24 52 25 55 26 58 27 61 28 64 29 65
REMARK SMILES IDX 30 67 31 68 32 69 93 70 33 71 92 73 34 75 35 78 36 79 86 80
REMARK SMILES IDX 37 81 91 82 85 83 87 84 38 85 90 86 84 88 83 90 39 92 71 95
REMARK SMILES IDX 51 96 70 97 52 98 55 99 69 100 88 101 53 102 54 104 68 106
REMARK SMILES IDX 89 107 56 110 40 112 41 113 49 114 42 115 43 116 47 117
REMARK SMILES IDX 50 118 44 119 45 120 48 121 46 122 72 123 73 124 81 125
REMARK SMILES IDX 74 126 75 127 79 128 82 129 76 130 77 131 80 132 78 133
REMARK SMILES IDX 57 134 58 135 66 136 59 137 60 138 64 139 67 140 61 141
REMARK SMILES IDX 62 142 65 143 63 144
REMARK H PARENT 23 2 23 3 22 5 22 6 21 10 17 12 14 18 15 21 94 22 5 27 6 30
REMARK H PARENT 7 31 2 34 2 35 1 37 1 38 1 39 10 42 10 43 11 45 11 46 11 47
REMARK H PARENT 18 49 18 50 18 51 24 53 24 54 25 56 25 57 26 59 26 60 27 62
REMARK H PARENT 27 63 28 66 32 72 93 74 33 76 92 77 91 87 85 89 87 91 90 93
REMARK H PARENT 84 94 52 103 55 105 88 108 53 109 89 111
REMARK Flexibility Score: inf
ROOT
ATOM      1  C   UNL A   1      37.589  31.497  33.107  1.00  0.00    -0.036 C 
ATOM      2  H   UNL A   1      36.994  31.734  33.963  1.00  0.00     0.028 H 
ATOM      3  H   UNL A   1      37.593  30.457  32.856  1.00  0.00     0.028 H 
ENDROOT
BRANCH   1   4
ATOM      4  C   UNL A   1      39.053  31.857  33.431  1.00  0.00     0.017 C 
ATOM      5  H   UNL A   1      39.663  31.632  32.581  1.00  0.00     0.049 H 
ATOM      6  H   UNL A   1      39.098  32.900  33.667  1.00  0.00     0.049 H 
BRANCH   4   7
ATOM      7  N   UNL A   1      39.544  31.107  34.579  1.00  0.00    -0.356 N 
ATOM      8  C   UNL A   1      40.183  29.916  34.747  1.00  0.00     0.227 C 
ATOM      9  O   UNL A   1      40.349  29.574  35.927  1.00  0.00    -0.274 OA
ATOM     10  H   UNL A   1      39.375  31.568  35.432  1.00  0.00     0.163 HD
BRANCH   8  11
ATOM     11  C   UNL A   1      40.700  28.991  33.621  1.00  0.00     0.060 C 
ATOM     12  H   UNL A   1      41.168  29.673  32.942  1.00  0.00     0.045 H 
BRANCH  11  13
ATOM     13  C   UNL A   1      41.802  28.036  34.045  1.00  0.00    -0.033 A 
ATOM     14  C   UNL A   1      43.798  26.238  34.988  1.00  0.00     0.025 A 
ATOM     15  C   UNL A   1      42.470  26.122  35.382  1.00  0.00    -0.051 A 
ATOM     16  C   UNL A   1      44.123  27.297  34.130  1.00  0.00     0.131 A 
ATOM     17  C   UNL A   1      41.496  26.934  34.830  1.00  0.00    -0.057 A 
ATOM     18  H   UNL A   1      42.207  25.421  36.092  1.00  0.00     0.063 H 
ATOM     19  C   UNL A   1      43.146  28.205  33.685  1.00  0.00    -0.022 A 
ATOM     20  F   UNL A   1      45.390  27.478  33.730  1.00  0.00    -0.206 F 
ATOM     21  H   UNL A   1      40.504  26.713  35.010  1.00  0.00     0.063 H 
ATOM     22  H   UNL A   1      43.421  29.002  33.089  1.00  0.00     0.066 H 
BRANCH  14  23
ATOM     23  C   UNL A   1      44.754  25.295  35.576  1.00  0.00     0.069 A 
ATOM     24  C   UNL A   1      44.707  23.953  35.111  1.00  0.00     0.130 A 
ATOM     25  C   UNL A   1      45.658  23.001  35.481  1.00  0.00    -0.019 A 
ATOM     26  C   UNL A   1      46.703  23.372  36.313  1.00  0.00    -0.055 A 
ATOM     27  H   UNL A   1      45.585  22.031  35.138  1.00  0.00     0.066 H 
ATOM     28  C   UNL A   1      45.817  25.657  36.438  1.00  0.00     0.130 A 
ATOM     29  C   UNL A   1      46.768  24.679  36.792  1.00  0.00    -0.019 A 
ATOM     30  H   UNL A   1      47.427  22.686  36.576  1.00  0.00     0.063 H 
ATOM     31  H   UNL A   1      47.539  24.940  37.427  1.00  0.00     0.066 H 
BRANCH  24  32
ATOM     32  O   UNL A   1      43.651  23.549  34.327  1.00  0.00    -0.493 OA
BRANCH  32  33
ATOM     33  C   UNL A   1      44.054  22.822  33.161  1.00  0.00     0.085 C 
ATOM     34  H   UNL A   1      45.008  22.368  33.333  1.00  0.00     0.070 H 
ATOM     35  H   UNL A   1      43.336  22.058  32.944  1.00  0.00     0.070 H 
BRANCH  33  36
ATOM     36  C   UNL A   1      44.151  23.786  31.989  1.00  0.00    -0.031 C 
ATOM     37  H   UNL A   1      44.635  23.300  31.167  1.00  0.00     0.027 H 
ATOM     38  H   UNL A   1      44.719  24.645  32.279  1.00  0.00     0.027 H 
ATOM     39  H   UNL A   1      43.169  24.090  31.694  1.00  0.00     0.027 H 
ENDBRANCH  33  36
ENDBRANCH  32  33
ENDBRANCH  24  32
BRANCH  28  40
ATOM     40  O   UNL A   1      46.123  26.839  37.057  1.00  0.00    -0.493 OA
BRANCH  40  41
ATOM     41  C   UNL A   1      45.462  27.355  38.203  1.00  0.00     0.085 C 
ATOM     42  H   UNL A   1      44.914  28.231  37.929  1.00  0.00     0.070 H 
ATOM     43  H   UNL A   1      46.195  27.595  38.945  1.00  0.00     0.070 H 
BRANCH  41  44
ATOM     44  C   UNL A   1      44.501  26.323  38.779  1.00  0.00    -0.031 C 
ATOM     45  H   UNL A   1      44.550  25.426  38.195  1.00  0.00     0.027 H 
ATOM     46  H   UNL A   1      43.505  26.710  38.756  1.00  0.00     0.027 H 
ATOM     47  H   UNL A   1      44.777  26.104  39.790  1.00  0.00     0.027 H 
ENDBRANCH  41  44
ENDBRANCH  40  41
ENDBRANCH  28  40
ENDBRANCH  14  23
ENDBRANCH  11  13
BRANCH  11  48
ATOM     48  C   UNL A   1      39.605  28.312  32.804  1.00  0.00    -0.049 C 
ATOM     49  H   UNL A   1      39.177  29.017  32.124  1.00  0.00     0.024 H 
ATOM     50  H   UNL A   1      38.844  27.946  33.463  1.00  0.00     0.024 H 
ATOM     51  H   UNL A   1      40.024  27.495  32.256  1.00  0.00     0.024 H 
ENDBRANCH  11  48
ENDBRANCH   8  11
ENDBRANCH   4   7
ENDBRANCH   1   4
BRANCH   1  52
ATOM     52  C   UNL A   1      36.983  32.213  31.901  1.00  0.00    -0.052 C 
ATOM     53  H   UNL A   1      37.530  31.919  31.030  1.00  0.00     0.027 H 
ATOM     54  H   UNL A   1      37.050  33.260  32.110  1.00  0.00     0.027 H 
BRANCH  52  55
ATOM     55  C   UNL A   1      35.501  31.919  31.655  1.00  0.00    -0.052 C 
ATOM     56  H   UNL A   1      35.002  31.939  32.601  1.00  0.00     0.027 H 
ATOM     57  H   UNL A   1      35.472  30.967  31.167  1.00  0.00     0.027 H 
BRANCH  55  58
ATOM     58  C   UNL A   1      34.772  32.890  30.719  1.00  0.00    -0.036 C 
ATOM     59  H   UNL A   1      35.037  33.886  31.004  1.00  0.00     0.028 H 
ATOM     60  H   UNL A   1      33.729  32.675  30.824  1.00  0.00     0.028 H 
BRANCH  58  61
ATOM     61  C   UNL A   1      35.087  32.725  29.232  1.00  0.00     0.018 C 
ATOM     62  H   UNL A   1      36.134  32.533  29.120  1.00  0.00     0.049 H 
ATOM     63  H   UNL A   1      34.804  33.629  28.733  1.00  0.00     0.049 H 
BRANCH  61  64
ATOM     64  N   UNL A   1      34.342  31.629  28.633  1.00  0.00    -0.352 N 
ATOM     65  C   UNL A   1      34.783  30.430  28.137  1.00  0.00     0.251 C 
ATOM     66  H   UNL A   1      33.369  31.771  28.575  1.00  0.00     0.163 HD
ATOM     67  O   UNL A   1      34.030  29.733  27.456  1.00  0.00    -0.269 OA
BRANCH  65  68
ATOM     68  C   UNL A   1      36.160  29.965  28.404  1.00  0.00     0.039 A 
ATOM     69  C   UNL A   1      37.133  30.123  27.411  1.00  0.00    -0.049 A 
ATOM     70  C   UNL A   1      36.486  29.333  29.608  1.00  0.00    -0.049 A 
ATOM     71  C   UNL A   1      38.443  29.701  27.649  1.00  0.00    -0.053 A 
ATOM     72  H   UNL A   1      36.883  30.549  26.506  1.00  0.00     0.063 H 
ATOM     73  C   UNL A   1      37.807  28.971  29.867  1.00  0.00    -0.053 A 
ATOM     74  H   UNL A   1      35.749  29.134  30.302  1.00  0.00     0.063 H 
ATOM     75  C   UNL A   1      38.798  29.150  28.890  1.00  0.00    -0.014 A 
ATOM     76  H   UNL A   1      39.154  29.795  26.906  1.00  0.00     0.063 H 
ATOM     77  H   UNL A   1      38.057  28.570  30.784  1.00  0.00     0.063 H 
BRANCH  75  78
ATOM     78  C   UNL A   1      40.201  28.757  29.186  1.00  0.00     0.031 A 
ATOM     79  C   UNL A   1      41.122  29.710  29.895  1.00  0.00     0.074 A 
ATOM     80  C   UNL A   1      40.661  27.565  28.758  1.00  0.00     0.049 A 
ATOM     81  N   UNL A   1      42.396  29.584  30.167  1.00  0.00    -0.248 NA
ATOM     82  C   UNL A   1      40.538  30.987  30.337  1.00  0.00    -0.034 C 
ATOM     83  C   UNL A   1      39.878  26.572  28.021  1.00  0.00    -0.036 A 
ATOM     84  N   UNL A   1      41.905  26.995  28.866  1.00  0.00    -0.354 N 
ATOM     85  C   UNL A   1      42.767  30.762  30.801  1.00  0.00     0.074 A 
ATOM     86  C   UNL A   1      41.598  31.615  30.827  1.00  0.00    -0.034 C 
ATOM     87  H   UNL A   1      39.560  31.310  30.281  1.00  0.00     0.065 H 
ATOM     88  C   UNL A   1      40.655  25.511  27.753  1.00  0.00    -0.036 A 
ATOM     89  H   UNL A   1      38.887  26.673  27.751  1.00  0.00     0.065 H 
ATOM     90  C   UNL A   1      41.999  25.763  28.265  1.00  0.00     0.049 A 
ATOM     91  H   UNL A   1      42.658  27.426  29.330  1.00  0.00     0.167 HD
ATOM     92  C   UNL A   1      43.967  31.093  31.335  1.00  0.00     0.037 A 
ATOM     93  H   UNL A   1      41.591  32.583  31.181  1.00  0.00     0.065 H 
ATOM     94  H   UNL A   1      40.351  24.655  27.264  1.00  0.00     0.065 H 
ATOM     95  C   UNL A   1      43.053  24.936  28.129  1.00  0.00     0.037 A 
ATOM     96  C   UNL A   1      45.125  30.236  31.324  1.00  0.00     0.049 A 
ATOM     97  C   UNL A   1      44.378  25.332  28.724  1.00  0.00     0.074 A 
ATOM     98  C   UNL A   1      46.374  30.464  31.874  1.00  0.00    -0.036 A 
ATOM     99  N   UNL A   1      45.173  28.984  30.729  1.00  0.00    -0.354 N 
ATOM    100  N   UNL A   1      44.700  26.424  29.373  1.00  0.00    -0.248 NA
ATOM    101  C   UNL A   1      45.484  24.376  28.575  1.00  0.00    -0.034 C 
ATOM    102  C   UNL A   1      47.190  29.367  31.578  1.00  0.00    -0.036 A 
ATOM    103  H   UNL A   1      46.655  31.299  32.412  1.00  0.00     0.065 H 
ATOM    104  C   UNL A   1      46.435  28.434  30.886  1.00  0.00     0.049 A 
ATOM    105  H   UNL A   1      44.422  28.550  30.264  1.00  0.00     0.167 HD
ATOM    106  C   UNL A   1      46.033  26.277  29.731  1.00  0.00     0.074 A 
ATOM    107  C   UNL A   1      46.455  24.980  29.244  1.00  0.00    -0.034 C 
ATOM    108  H   UNL A   1      45.500  23.471  28.079  1.00  0.00     0.065 H 
ATOM    109  H   UNL A   1      48.185  29.270  31.832  1.00  0.00     0.065 H 
ATOM    110  C   UNL A   1      46.836  27.138  30.403  1.00  0.00     0.037 A 
ATOM    111  H   UNL A   1      47.394  24.579  29.398  1.00  0.00     0.065 H 
BRANCH  92 112
ATOM    112  C   UNL A   1      44.090  32.438  31.991  1.00  0.00     0.064 A 
ATOM    113  C   UNL A   1      43.734  32.632  33.335  1.00  0.00     0.173 A 
ATOM    114  C   UNL A   1      44.614  33.533  31.287  1.00  0.00     0.173 A 
ATOM    115  F   UNL A   1      43.218  31.621  34.049  1.00  0.00    -0.203 F 
ATOM    116  C   UNL A   1      43.873  33.879  33.941  1.00  0.00     0.198 A 
ATOM    117  C   UNL A   1      44.781  34.769  31.906  1.00  0.00     0.198 A 
ATOM    118  F   UNL A   1      44.977  33.401  30.002  1.00  0.00    -0.203 F 
ATOM    119  F   UNL A   1      43.485  34.050  35.212  1.00  0.00    -0.200 F 
ATOM    120  C   UNL A   1      44.404  34.944  33.228  1.00  0.00     0.200 A 
ATOM    121  F   UNL A   1      45.307  35.794  31.220  1.00  0.00    -0.200 F 
ATOM    122  F   UNL A   1      44.548  36.138  33.816  1.00  0.00    -0.200 F 
ENDBRANCH  92 112
BRANCH  95 123
ATOM    123  C   UNL A   1      42.899  23.646  27.408  1.00  0.00     0.064 A 
ATOM    124  C   UNL A   1      43.268  23.523  26.060  1.00  0.00     0.173 A 
ATOM    125  C   UNL A   1      42.368  22.515  28.044  1.00  0.00     0.173 A 
ATOM    126  F   UNL A   1      43.763  24.582  25.402  1.00  0.00    -0.203 F 
ATOM    127  C   UNL A   1      43.088  22.325  25.371  1.00  0.00     0.198 A 
ATOM    128  C   UNL A   1      42.216  21.309  27.361  1.00  0.00     0.198 A 
ATOM    129  F   UNL A   1      42.006  22.576  29.333  1.00  0.00    -0.203 F 
ATOM    130  F   UNL A   1      43.400  22.251  24.070  1.00  0.00    -0.200 F 
ATOM    131  C   UNL A   1      42.566  21.219  26.023  1.00  0.00     0.200 A 
ATOM    132  F   UNL A   1      41.726  20.238  28.000  1.00  0.00    -0.200 F 
ATOM    133  F   UNL A   1      42.393  20.067  25.359  1.00  0.00    -0.200 F 
ENDBRANCH  95 123
BRANCH 110 134
ATOM    134  C   UNL A   1      48.243  26.693  30.680  1.00  0.00     0.064 A 
ATOM    135  C   UNL A   1      48.562  25.919  31.804  1.00  0.00     0.173 A 
ATOM    136  C   UNL A   1      49.277  27.016  29.788  1.00  0.00     0.173 A 
ATOM    137  F   UNL A   1      47.611  25.597  32.695  1.00  0.00    -0.203 F 
ATOM    138  C   UNL A   1      49.870  25.503  32.039  1.00  0.00     0.198 A 
ATOM    139  C   UNL A   1      50.578  26.574  30.010  1.00  0.00     0.198 A 
ATOM    140  F   UNL A   1      49.023  27.750  28.695  1.00  0.00    -0.203 F 
ATOM    141  F   UNL A   1      50.161  24.804  33.145  1.00  0.00    -0.200 F 
ATOM    142  C   UNL A   1      50.875  25.825  31.138  1.00  0.00     0.200 A 
ATOM    143  F   UNL A   1      51.545  26.874  29.133  1.00  0.00    -0.200 F 
ATOM    144  F   UNL A   1      52.132  25.418  31.363  1.00  0.00    -0.200 F 
ENDBRANCH 110 134
ENDBRANCH  75  78
ENDBRANCH  65  68
ENDBRANCH  61  64
ENDBRANCH  58  61
ENDBRANCH  55  58
ENDBRANCH  52  55
ENDBRANCH   1  52
TORSDOF 22
ENDMDL
MODEL 6
REMARK VINA RESULT:     -10.2      4.748      9.539
REMARK SMILES CCOc1cccc(OCC)c1-c1ccc([C@@H](C)C(=O)NCCCCCCNC(=O)c2ccc(-c3c4nc(c(-c5c(F)c(F)c(F)c(F)c5F)c5ccc([nH]5)c(-c5c(F)c(F)c(F)c(F)c5F)c5nc(c(-c6c(F)c(F)c(F)c(F)c6F)c6ccc3[nH]6)C=C5)C=C4)cc2)cc1F
REMARK SMILES IDX 23 1 22 4 21 7 19 8 20 9 17 11 16 13 13 14 14 15 95 16 15 17
REMARK SMILES IDX 94 19 96 20 12 23 4 24 5 25 6 26 8 28 7 29 3 32 2 33 1 36
REMARK SMILES IDX 9 40 10 41 11 44 18 48 24 52 25 55 26 58 27 61 28 64 29 65
REMARK SMILES IDX 30 67 31 68 32 69 93 70 33 71 92 73 34 75 35 78 36 79 86 80
REMARK SMILES IDX 37 81 91 82 85 83 87 84 38 85 90 86 84 88 83 90 39 92 71 95
REMARK SMILES IDX 51 96 70 97 52 98 55 99 69 100 88 101 53 102 54 104 68 106
REMARK SMILES IDX 89 107 56 110 40 112 41 113 49 114 42 115 43 116 47 117
REMARK SMILES IDX 50 118 44 119 45 120 48 121 46 122 72 123 73 124 81 125
REMARK SMILES IDX 74 126 75 127 79 128 82 129 76 130 77 131 80 132 78 133
REMARK SMILES IDX 57 134 58 135 66 136 59 137 60 138 64 139 67 140 61 141
REMARK SMILES IDX 62 142 65 143 63 144
REMARK H PARENT 23 2 23 3 22 5 22 6 21 10 17 12 14 18 15 21 94 22 5 27 6 30
REMARK H PARENT 7 31 2 34 2 35 1 37 1 38 1 39 10 42 10 43 11 45 11 46 11 47
REMARK H PARENT 18 49 18 50 18 51 24 53 24 54 25 56 25 57 26 59 26 60 27 62
REMARK H PARENT 27 63 28 66 32 72 93 74 33 76 92 77 91 87 85 89 87 91 90 93
REMARK H PARENT 84 94 52 103 55 105 88 108 53 109 89 111
REMARK Flexibility Score: inf
ROOT
ATOM      1  C   UNL A   1      37.575  31.453  33.271  1.00  0.00    -0.036 C 
ATOM      2  H   UNL A   1      37.062  31.642  34.190  1.00  0.00     0.028 H 
ATOM      3  H   UNL A   1      37.502  30.440  32.935  1.00  0.00     0.028 H 
ENDROOT
BRANCH   1   4
ATOM      4  C   UNL A   1      39.077  31.714  33.502  1.00  0.00     0.017 C 
ATOM      5  H   UNL A   1      39.623  31.387  32.642  1.00  0.00     0.049 H 
ATOM      6  H   UNL A   1      39.215  32.762  33.666  1.00  0.00     0.049 H 
BRANCH   4   7
ATOM      7  N   UNL A   1      39.566  30.999  34.674  1.00  0.00    -0.356 N 
ATOM      8  C   UNL A   1      40.219  29.821  34.879  1.00  0.00     0.227 C 
ATOM      9  O   UNL A   1      40.378  29.512  36.069  1.00  0.00    -0.274 OA
ATOM     10  H   UNL A   1      39.383  31.480  35.513  1.00  0.00     0.163 HD
BRANCH   8  11
ATOM     11  C   UNL A   1      40.758  28.875  33.782  1.00  0.00     0.060 C 
ATOM     12  H   UNL A   1      41.318  29.531  33.148  1.00  0.00     0.045 H 
BRANCH  11  13
ATOM     13  C   UNL A   1      41.763  27.847  34.274  1.00  0.00    -0.033 A 
ATOM     14  C   UNL A   1      43.558  25.908  35.332  1.00  0.00     0.025 A 
ATOM     15  C   UNL A   1      42.187  25.824  35.547  1.00  0.00    -0.051 A 
ATOM     16  C   UNL A   1      44.027  27.005  34.598  1.00  0.00     0.131 A 
ATOM     17  C   UNL A   1      41.321  26.712  34.936  1.00  0.00    -0.057 A 
ATOM     18  H   UNL A   1      41.812  25.091  36.168  1.00  0.00     0.063 H 
ATOM     19  C   UNL A   1      43.148  27.982  34.097  1.00  0.00    -0.022 A 
ATOM     20  F   UNL A   1      45.341  27.157  34.373  1.00  0.00    -0.206 F 
ATOM     21  H   UNL A   1      40.307  26.522  34.974  1.00  0.00     0.063 H 
ATOM     22  H   UNL A   1      43.524  28.803  33.598  1.00  0.00     0.066 H 
BRANCH  14  23
ATOM     23  C   UNL A   1      44.399  24.889  35.969  1.00  0.00     0.069 A 
ATOM     24  C   UNL A   1      44.921  25.194  37.254  1.00  0.00     0.130 A 
ATOM     25  C   UNL A   1      45.607  24.253  38.023  1.00  0.00    -0.019 A 
ATOM     26  C   UNL A   1      45.771  22.966  37.536  1.00  0.00    -0.055 A 
ATOM     27  H   UNL A   1      45.988  24.512  38.946  1.00  0.00     0.066 H 
ATOM     28  C   UNL A   1      44.586  23.576  35.476  1.00  0.00     0.130 A 
ATOM     29  C   UNL A   1      45.276  22.642  36.274  1.00  0.00    -0.019 A 
ATOM     30  H   UNL A   1      46.254  22.252  38.103  1.00  0.00     0.063 H 
ATOM     31  H   UNL A   1      45.420  21.686  35.911  1.00  0.00     0.066 H 
BRANCH  24  32
ATOM     32  O   UNL A   1      44.818  26.479  37.736  1.00  0.00    -0.493 OA
BRANCH  32  33
ATOM     33  C   UNL A   1      46.082  27.132  37.890  1.00  0.00     0.085 C 
ATOM     34  H   UNL A   1      46.507  26.876  38.838  1.00  0.00     0.070 H 
ATOM     35  H   UNL A   1      46.748  26.819  37.112  1.00  0.00     0.070 H 
BRANCH  33  36
ATOM     36  C   UNL A   1      45.873  28.636  37.814  1.00  0.00    -0.031 C 
ATOM     37  H   UNL A   1      46.806  29.136  37.972  1.00  0.00     0.027 H 
ATOM     38  H   UNL A   1      45.175  28.938  38.568  1.00  0.00     0.027 H 
ATOM     39  H   UNL A   1      45.489  28.895  36.849  1.00  0.00     0.027 H 
ENDBRANCH  33  36
ENDBRANCH  32  33
ENDBRANCH  24  32
BRANCH  28  40
ATOM     40  O   UNL A   1      44.225  22.990  34.292  1.00  0.00    -0.493 OA
BRANCH  40  41
ATOM     41  C   UNL A   1      44.906  23.158  33.057  1.00  0.00     0.085 C 
ATOM     42  H   UNL A   1      45.455  22.267  32.834  1.00  0.00     0.070 H 
ATOM     43  H   UNL A   1      45.572  23.992  33.140  1.00  0.00     0.070 H 
BRANCH  41  44
ATOM     44  C   UNL A   1      43.916  23.430  31.932  1.00  0.00    -0.031 C 
ATOM     45  H   UNL A   1      43.273  24.239  32.211  1.00  0.00     0.027 H 
ATOM     46  H   UNL A   1      43.329  22.554  31.752  1.00  0.00     0.027 H 
ATOM     47  H   UNL A   1      44.451  23.691  31.042  1.00  0.00     0.027 H 
ENDBRANCH  41  44
ENDBRANCH  40  41
ENDBRANCH  28  40
ENDBRANCH  14  23
ENDBRANCH  11  13
BRANCH  11  48
ATOM     48  C   UNL A   1      39.685  28.274  32.879  1.00  0.00    -0.049 C 
ATOM     49  H   UNL A   1      39.040  29.050  32.525  1.00  0.00     0.024 H 
ATOM     50  H   UNL A   1      39.113  27.559  33.433  1.00  0.00     0.024 H 
ATOM     51  H   UNL A   1      40.151  27.790  32.046  1.00  0.00     0.024 H 
ENDBRANCH  11  48
ENDBRANCH   8  11
ENDBRANCH   4   7
ENDBRANCH   1   4
BRANCH   1  52
ATOM     52  C   UNL A   1      36.917  32.301  32.184  1.00  0.00    -0.052 C 
ATOM     53  H   UNL A   1      37.555  32.294  31.325  1.00  0.00     0.027 H 
ATOM     54  H   UNL A   1      36.782  33.275  32.604  1.00  0.00     0.027 H 
BRANCH  52  55
ATOM     55  C   UNL A   1      35.528  31.825  31.748  1.00  0.00    -0.052 C 
ATOM     56  H   UNL A   1      34.945  31.665  32.631  1.00  0.00     0.027 H 
ATOM     57  H   UNL A   1      35.693  30.941  31.169  1.00  0.00     0.027 H 
BRANCH  55  58
ATOM     58  C   UNL A   1      34.748  32.781  30.838  1.00  0.00    -0.036 C 
ATOM     59  H   UNL A   1      34.923  33.780  31.179  1.00  0.00     0.028 H 
ATOM     60  H   UNL A   1      33.724  32.478  30.900  1.00  0.00     0.028 H 
BRANCH  58  61
ATOM     61  C   UNL A   1      35.117  32.717  29.355  1.00  0.00     0.018 C 
ATOM     62  H   UNL A   1      36.166  32.529  29.268  1.00  0.00     0.049 H 
ATOM     63  H   UNL A   1      34.853  33.654  28.910  1.00  0.00     0.049 H 
BRANCH  61  64
ATOM     64  N   UNL A   1      34.391  31.669  28.656  1.00  0.00    -0.352 N 
ATOM     65  C   UNL A   1      34.845  30.498  28.106  1.00  0.00     0.251 C 
ATOM     66  H   UNL A   1      33.423  31.824  28.563  1.00  0.00     0.163 HD
ATOM     67  O   UNL A   1      34.118  29.852  27.350  1.00  0.00    -0.269 OA
BRANCH  65  68
ATOM     68  C   UNL A   1      36.205  30.004  28.404  1.00  0.00     0.039 A 
ATOM     69  C   UNL A   1      37.213  30.172  27.449  1.00  0.00    -0.049 A 
ATOM     70  C   UNL A   1      36.481  29.333  29.600  1.00  0.00    -0.049 A 
ATOM     71  C   UNL A   1      38.508  29.723  27.717  1.00  0.00    -0.053 A 
ATOM     72  H   UNL A   1      36.999  30.628  26.548  1.00  0.00     0.063 H 
ATOM     73  C   UNL A   1      37.787  28.943  29.892  1.00  0.00    -0.053 A 
ATOM     74  H   UNL A   1      35.719  29.128  30.264  1.00  0.00     0.063 H 
ATOM     75  C   UNL A   1      38.813  29.132  28.954  1.00  0.00    -0.014 A 
ATOM     76  H   UNL A   1      39.244  29.826  27.001  1.00  0.00     0.063 H 
ATOM     77  H   UNL A   1      38.000  28.512  30.805  1.00  0.00     0.063 H 
BRANCH  75  78
ATOM     78  C   UNL A   1      40.198  28.708  29.283  1.00  0.00     0.031 A 
ATOM     79  C   UNL A   1      41.115  29.632  30.037  1.00  0.00     0.074 A 
ATOM     80  C   UNL A   1      40.650  27.516  28.848  1.00  0.00     0.049 A 
ATOM     81  N   UNL A   1      42.378  29.477  30.344  1.00  0.00    -0.248 NA
ATOM     82  C   UNL A   1      40.541  30.911  30.484  1.00  0.00    -0.034 C 
ATOM     83  C   UNL A   1      39.872  26.550  28.071  1.00  0.00    -0.036 A 
ATOM     84  N   UNL A   1      41.879  26.920  28.983  1.00  0.00    -0.354 N 
ATOM     85  C   UNL A   1      42.751  30.637  31.010  1.00  0.00     0.074 A 
ATOM     86  C   UNL A   1      41.597  31.510  31.016  1.00  0.00    -0.034 C 
ATOM     87  H   UNL A   1      39.571  31.253  30.404  1.00  0.00     0.065 H 
ATOM     88  C   UNL A   1      40.637  25.480  27.807  1.00  0.00    -0.036 A 
ATOM     89  H   UNL A   1      38.891  26.674  27.773  1.00  0.00     0.065 H 
ATOM     90  C   UNL A   1      41.969  25.697  28.363  1.00  0.00     0.049 A 
ATOM     91  H   UNL A   1      42.626  27.329  29.477  1.00  0.00     0.167 HD
ATOM     92  C   UNL A   1      43.940  30.936  31.585  1.00  0.00     0.037 A 
ATOM     93  H   UNL A   1      41.597  32.472  31.387  1.00  0.00     0.065 H 
ATOM     94  H   UNL A   1      40.333  24.638  27.293  1.00  0.00     0.065 H 
ATOM     95  C   UNL A   1      43.012  24.854  28.243  1.00  0.00     0.037 A 
ATOM     96  C   UNL A   1      45.082  30.058  31.593  1.00  0.00     0.049 A 
ATOM     97  C   UNL A   1      44.325  25.215  28.884  1.00  0.00     0.074 A 
ATOM     98  C   UNL A   1      46.318  30.253  32.184  1.00  0.00    -0.036 A 
ATOM     99  N   UNL A   1      45.126  28.816  30.977  1.00  0.00    -0.354 N 
ATOM    100  N   UNL A   1      44.647  26.289  29.563  1.00  0.00    -0.248 NA
ATOM    101  C   UNL A   1      45.418  24.241  28.752  1.00  0.00    -0.034 C 
ATOM    102  C   UNL A   1      47.123  29.147  31.892  1.00  0.00    -0.036 A 
ATOM    103  H   UNL A   1      46.598  31.074  32.745  1.00  0.00     0.065 H 
ATOM    104  C   UNL A   1      46.372  28.240  31.162  1.00  0.00     0.049 A 
ATOM    105  H   UNL A   1      44.381  28.404  30.482  1.00  0.00     0.167 HD
ATOM    106  C   UNL A   1      45.966  26.110  29.957  1.00  0.00     0.074 A 
ATOM    107  C   UNL A   1      46.379  24.815  29.459  1.00  0.00    -0.034 C 
ATOM    108  H   UNL A   1      45.433  23.344  28.240  1.00  0.00     0.065 H 
ATOM    109  H   UNL A   1      48.107  29.026  32.175  1.00  0.00     0.065 H 
ATOM    110  C   UNL A   1      46.764  26.945  30.668  1.00  0.00     0.037 A 
ATOM    111  H   UNL A   1      47.305  24.394  29.634  1.00  0.00     0.065 H 
BRANCH  92 112
ATOM    112  C   UNL A   1      44.068  32.267  32.269  1.00  0.00     0.064 A 
ATOM    113  C   UNL A   1      44.552  33.395  31.589  1.00  0.00     0.173 A 
ATOM    114  C   UNL A   1      43.658  32.430  33.601  1.00  0.00     0.173 A 
ATOM    115  F   UNL A   1      44.967  33.290  30.318  1.00  0.00    -0.203 F 
ATOM    116  C   UNL A   1      44.645  34.631  32.226  1.00  0.00     0.198 A 
ATOM    117  C   UNL A   1      43.724  33.673  34.224  1.00  0.00     0.198 A 
ATOM    118  F   UNL A   1      43.181  31.385  34.295  1.00  0.00    -0.203 F 
ATOM    119  F   UNL A   1      45.152  35.683  31.569  1.00  0.00    -0.200 F 
ATOM    120  C   UNL A   1      44.223  34.770  33.539  1.00  0.00     0.200 A 
ATOM    121  F   UNL A   1      43.303  33.810  35.489  1.00  0.00    -0.200 F 
ATOM    122  F   UNL A   1      44.303  35.962  34.146  1.00  0.00    -0.200 F 
ENDBRANCH  92 112
BRANCH  95 123
ATOM    123  C   UNL A   1      42.857  23.579  27.495  1.00  0.00     0.064 A 
ATOM    124  C   UNL A   1      43.247  23.478  26.151  1.00  0.00     0.173 A 
ATOM    125  C   UNL A   1      42.302  22.442  28.100  1.00  0.00     0.173 A 
ATOM    126  F   UNL A   1      43.765  24.544  25.523  1.00  0.00    -0.203 F 
ATOM    127  C   UNL A   1      43.066  22.296  25.436  1.00  0.00     0.198 A 
ATOM    128  C   UNL A   1      42.149  21.252  27.392  1.00  0.00     0.198 A 
ATOM    129  F   UNL A   1      41.918  22.483  29.384  1.00  0.00    -0.203 F 
ATOM    130  F   UNL A   1      43.400  22.243  24.140  1.00  0.00    -0.200 F 
ATOM    131  C   UNL A   1      42.521  21.183  26.058  1.00  0.00     0.200 A 
ATOM    132  F   UNL A   1      41.636  20.174  28.002  1.00  0.00    -0.200 F 
ATOM    133  F   UNL A   1      42.347  20.046  25.370  1.00  0.00    -0.200 F 
ENDBRANCH  95 123
BRANCH 110 134
ATOM    134  C   UNL A   1      48.153  26.470  30.978  1.00  0.00     0.064 A 
ATOM    135  C   UNL A   1      48.427  25.683  32.106  1.00  0.00     0.173 A 
ATOM    136  C   UNL A   1      49.217  26.775  30.116  1.00  0.00     0.173 A 
ATOM    137  F   UNL A   1      47.448  25.377  32.971  1.00  0.00    -0.203 F 
ATOM    138  C   UNL A   1      49.720  25.239  32.372  1.00  0.00     0.198 A 
ATOM    139  C   UNL A   1      50.502  26.305  30.368  1.00  0.00     0.198 A 
ATOM    140  F   UNL A   1      49.006  27.520  29.020  1.00  0.00    -0.203 F 
ATOM    141  F   UNL A   1      49.967  24.529  33.481  1.00  0.00    -0.200 F 
ATOM    142  C   UNL A   1      50.754  25.544  31.500  1.00  0.00     0.200 A 
ATOM    143  F   UNL A   1      51.497  26.589  29.518  1.00  0.00    -0.200 F 
ATOM    144  F   UNL A   1      51.996  25.110  31.754  1.00  0.00    -0.200 F 
ENDBRANCH 110 134
ENDBRANCH  75  78
ENDBRANCH  65  68
ENDBRANCH  61  64
ENDBRANCH  58  61
ENDBRANCH  55  58
ENDBRANCH  52  55
ENDBRANCH   1  52
TORSDOF 22
ENDMDL
MODEL 7
REMARK VINA RESULT:     -10.2      4.787      9.532
REMARK SMILES CCOc1cccc(OCC)c1-c1ccc([C@@H](C)C(=O)NCCCCCCNC(=O)c2ccc(-c3c4nc(c(-c5c(F)c(F)c(F)c(F)c5F)c5ccc([nH]5)c(-c5c(F)c(F)c(F)c(F)c5F)c5nc(c(-c6c(F)c(F)c(F)c(F)c6F)c6ccc3[nH]6)C=C5)C=C4)cc2)cc1F
REMARK SMILES IDX 23 1 22 4 21 7 19 8 20 9 17 11 16 13 13 14 14 15 95 16 15 17
REMARK SMILES IDX 94 19 96 20 12 23 4 24 5 25 6 26 8 28 7 29 3 32 2 33 1 36
REMARK SMILES IDX 9 40 10 41 11 44 18 48 24 52 25 55 26 58 27 61 28 64 29 65
REMARK SMILES IDX 30 67 31 68 32 69 93 70 33 71 92 73 34 75 35 78 36 79 86 80
REMARK SMILES IDX 37 81 91 82 85 83 87 84 38 85 90 86 84 88 83 90 39 92 71 95
REMARK SMILES IDX 51 96 70 97 52 98 55 99 69 100 88 101 53 102 54 104 68 106
REMARK SMILES IDX 89 107 56 110 40 112 41 113 49 114 42 115 43 116 47 117
REMARK SMILES IDX 50 118 44 119 45 120 48 121 46 122 72 123 73 124 81 125
REMARK SMILES IDX 74 126 75 127 79 128 82 129 76 130 77 131 80 132 78 133
REMARK SMILES IDX 57 134 58 135 66 136 59 137 60 138 64 139 67 140 61 141
REMARK SMILES IDX 62 142 65 143 63 144
REMARK H PARENT 23 2 23 3 22 5 22 6 21 10 17 12 14 18 15 21 94 22 5 27 6 30
REMARK H PARENT 7 31 2 34 2 35 1 37 1 38 1 39 10 42 10 43 11 45 11 46 11 47
REMARK H PARENT 18 49 18 50 18 51 24 53 24 54 25 56 25 57 26 59 26 60 27 62
REMARK H PARENT 27 63 28 66 32 72 93 74 33 76 92 77 91 87 85 89 87 91 90 93
REMARK H PARENT 84 94 52 103 55 105 88 108 53 109 89 111
REMARK Flexibility Score: inf
ROOT
ATOM      1  C   UNL A   1      37.560  31.383  33.560  1.00  0.00    -0.036 C 
ATOM      2  H   UNL A   1      37.172  31.615  34.529  1.00  0.00     0.028 H 
ATOM      3  H   UNL A   1      37.370  30.377  33.247  1.00  0.00     0.028 H 
ENDROOT
BRANCH   1   4
ATOM      4  C   UNL A   1      39.094  31.525  33.615  1.00  0.00     0.017 C 
ATOM      5  H   UNL A   1      39.514  31.117  32.720  1.00  0.00     0.049 H 
ATOM      6  H   UNL A   1      39.333  32.564  33.709  1.00  0.00     0.049 H 
BRANCH   4   7
ATOM      7  N   UNL A   1      39.653  30.822  34.764  1.00  0.00    -0.356 N 
ATOM      8  C   UNL A   1      40.361  29.672  34.935  1.00  0.00     0.227 C 
ATOM      9  O   UNL A   1      40.573  29.359  36.116  1.00  0.00    -0.274 OA
ATOM     10  H   UNL A   1      39.477  31.287  35.613  1.00  0.00     0.163 HD
BRANCH   8  11
ATOM     11  C   UNL A   1      40.905  28.759  33.811  1.00  0.00     0.060 C 
ATOM     12  H   UNL A   1      41.386  29.448  33.150  1.00  0.00     0.045 H 
BRANCH  11  13
ATOM     13  C   UNL A   1      41.999  27.802  34.251  1.00  0.00    -0.033 A 
ATOM     14  C   UNL A   1      44.094  25.993  34.918  1.00  0.00     0.025 A 
ATOM     15  C   UNL A   1      44.240  26.934  33.905  1.00  0.00    -0.051 A 
ATOM     16  C   UNL A   1      42.860  25.949  35.580  1.00  0.00     0.131 A 
ATOM     17  C   UNL A   1      43.255  27.875  33.667  1.00  0.00    -0.057 A 
ATOM     18  H   UNL A   1      45.094  26.932  33.325  1.00  0.00     0.063 H 
ATOM     19  C   UNL A   1      41.812  26.821  35.234  1.00  0.00    -0.022 A 
ATOM     20  F   UNL A   1      42.646  25.051  36.552  1.00  0.00    -0.206 F 
ATOM     21  H   UNL A   1      43.462  28.661  33.031  1.00  0.00     0.063 H 
ATOM     22  H   UNL A   1      40.899  26.737  35.708  1.00  0.00     0.066 H 
BRANCH  14  23
ATOM     23  C   UNL A   1      45.213  25.074  35.143  1.00  0.00     0.069 A 
ATOM     24  C   UNL A   1      46.382  25.614  35.744  1.00  0.00     0.130 A 
ATOM     25  C   UNL A   1      47.453  24.814  36.145  1.00  0.00    -0.019 A 
ATOM     26  C   UNL A   1      47.376  23.440  35.976  1.00  0.00    -0.055 A 
ATOM     27  H   UNL A   1      48.294  25.240  36.564  1.00  0.00     0.066 H 
ATOM     28  C   UNL A   1      45.154  23.672  34.961  1.00  0.00     0.130 A 
ATOM     29  C   UNL A   1      46.246  22.885  35.379  1.00  0.00    -0.019 A 
ATOM     30  H   UNL A   1      48.149  22.833  36.289  1.00  0.00     0.063 H 
ATOM     31  H   UNL A   1      46.206  21.863  35.239  1.00  0.00     0.066 H 
BRANCH  24  32
ATOM     32  O   UNL A   1      46.503  26.978  35.875  1.00  0.00    -0.493 OA
BRANCH  32  33
ATOM     33  C   UNL A   1      46.542  27.418  37.236  1.00  0.00     0.085 C 
ATOM     34  H   UNL A   1      46.576  26.570  37.887  1.00  0.00     0.070 H 
ATOM     35  H   UNL A   1      47.413  28.019  37.399  1.00  0.00     0.070 H 
BRANCH  33  36
ATOM     36  C   UNL A   1      45.292  28.234  37.527  1.00  0.00    -0.031 C 
ATOM     37  H   UNL A   1      44.577  28.084  36.743  1.00  0.00     0.027 H 
ATOM     38  H   UNL A   1      45.547  29.272  37.581  1.00  0.00     0.027 H 
ATOM     39  H   UNL A   1      44.870  27.921  38.458  1.00  0.00     0.027 H 
ENDBRANCH  33  36
ENDBRANCH  32  33
ENDBRANCH  24  32
BRANCH  28  40
ATOM     40  O   UNL A   1      44.195  22.867  34.406  1.00  0.00    -0.493 OA
BRANCH  40  41
ATOM     41  C   UNL A   1      43.481  23.152  33.213  1.00  0.00     0.085 C 
ATOM     42  H   UNL A   1      42.775  23.933  33.403  1.00  0.00     0.070 H 
ATOM     43  H   UNL A   1      42.974  22.265  32.893  1.00  0.00     0.070 H 
BRANCH  41  44
ATOM     44  C   UNL A   1      44.433  23.597  32.110  1.00  0.00    -0.031 C 
ATOM     45  H   UNL A   1      45.057  22.775  31.825  1.00  0.00     0.027 H 
ATOM     46  H   UNL A   1      45.043  24.400  32.468  1.00  0.00     0.027 H 
ATOM     47  H   UNL A   1      43.869  23.927  31.263  1.00  0.00     0.027 H 
ENDBRANCH  41  44
ENDBRANCH  40  41
ENDBRANCH  28  40
ENDBRANCH  14  23
ENDBRANCH  11  13
BRANCH  11  48
ATOM     48  C   UNL A   1      39.828  28.086  32.965  1.00  0.00    -0.049 C 
ATOM     49  H   UNL A   1      39.079  28.803  32.704  1.00  0.00     0.024 H 
ATOM     50  H   UNL A   1      39.381  27.290  33.524  1.00  0.00     0.024 H 
ATOM     51  H   UNL A   1      40.271  27.691  32.074  1.00  0.00     0.024 H 
ENDBRANCH  11  48
ENDBRANCH   8  11
ENDBRANCH   4   7
ENDBRANCH   1   4
BRANCH   1  52
ATOM     52  C   UNL A   1      36.850  32.275  32.544  1.00  0.00    -0.052 C 
ATOM     53  H   UNL A   1      37.518  32.445  31.725  1.00  0.00     0.027 H 
ATOM     54  H   UNL A   1      36.584  33.171  33.066  1.00  0.00     0.027 H 
BRANCH  52  55
ATOM     55  C   UNL A   1      35.545  31.703  31.984  1.00  0.00    -0.052 C 
ATOM     56  H   UNL A   1      34.930  31.418  32.812  1.00  0.00     0.027 H 
ATOM     57  H   UNL A   1      35.834  30.887  31.354  1.00  0.00     0.027 H 
BRANCH  55  58
ATOM     58  C   UNL A   1      34.728  32.646  31.094  1.00  0.00    -0.036 C 
ATOM     59  H   UNL A   1      34.852  33.642  31.465  1.00  0.00     0.028 H 
ATOM     60  H   UNL A   1      33.718  32.294  31.138  1.00  0.00     0.028 H 
BRANCH  58  61
ATOM     61  C   UNL A   1      35.109  32.643  29.613  1.00  0.00     0.018 C 
ATOM     62  H   UNL A   1      36.161  32.466  29.528  1.00  0.00     0.049 H 
ATOM     63  H   UNL A   1      34.841  33.594  29.202  1.00  0.00     0.049 H 
BRANCH  61  64
ATOM     64  N   UNL A   1      34.399  31.615  28.868  1.00  0.00    -0.352 N 
ATOM     65  C   UNL A   1      34.872  30.482  28.258  1.00  0.00     0.251 C 
ATOM     66  H   UNL A   1      33.428  31.755  28.789  1.00  0.00     0.163 HD
ATOM     67  O   UNL A   1      34.152  29.860  27.476  1.00  0.00    -0.269 OA
BRANCH  65  68
ATOM     68  C   UNL A   1      36.244  30.001  28.522  1.00  0.00     0.039 A 
ATOM     69  C   UNL A   1      37.225  30.177  27.541  1.00  0.00    -0.049 A 
ATOM     70  C   UNL A   1      36.556  29.336  29.712  1.00  0.00    -0.049 A 
ATOM     71  C   UNL A   1      38.531  29.740  27.777  1.00  0.00    -0.053 A 
ATOM     72  H   UNL A   1      36.985  30.628  26.645  1.00  0.00     0.063 H 
ATOM     73  C   UNL A   1      37.873  28.959  29.971  1.00  0.00    -0.053 A 
ATOM     74  H   UNL A   1      35.814  29.125  30.396  1.00  0.00     0.063 H 
ATOM     75  C   UNL A   1      38.873  29.155  29.007  1.00  0.00    -0.014 A 
ATOM     76  H   UNL A   1      39.248  29.848  27.043  1.00  0.00     0.063 H 
ATOM     77  H   UNL A   1      38.114  28.533  30.880  1.00  0.00     0.063 H 
BRANCH  75  78
ATOM     78  C   UNL A   1      40.270  28.745  29.302  1.00  0.00     0.031 A 
ATOM     79  C   UNL A   1      41.187  29.666  30.058  1.00  0.00     0.074 A 
ATOM     80  C   UNL A   1      40.731  27.568  28.834  1.00  0.00     0.049 A 
ATOM     81  N   UNL A   1      42.458  29.523  30.339  1.00  0.00    -0.248 NA
ATOM     82  C   UNL A   1      40.604  30.927  30.543  1.00  0.00    -0.034 C 
ATOM     83  C   UNL A   1      39.952  26.608  28.051  1.00  0.00    -0.036 A 
ATOM     84  N   UNL A   1      41.970  26.988  28.933  1.00  0.00    -0.354 N 
ATOM     85  C   UNL A   1      42.827  30.674  31.022  1.00  0.00     0.074 A 
ATOM     86  C   UNL A   1      41.661  31.531  31.067  1.00  0.00    -0.034 C 
ATOM     87  H   UNL A   1      39.627  31.256  30.488  1.00  0.00     0.065 H 
ATOM     88  C   UNL A   1      40.727  25.554  27.750  1.00  0.00    -0.036 A 
ATOM     89  H   UNL A   1      38.964  26.723  27.774  1.00  0.00     0.065 H 
ATOM     90  C   UNL A   1      42.066  25.780  28.286  1.00  0.00     0.049 A 
ATOM     91  H   UNL A   1      42.720  27.398  29.422  1.00  0.00     0.167 HD
ATOM     92  C   UNL A   1      44.022  30.979  31.581  1.00  0.00     0.037 A 
ATOM     93  H   UNL A   1      41.654  32.485  31.458  1.00  0.00     0.065 H 
ATOM     94  H   UNL A   1      40.425  24.719  27.225  1.00  0.00     0.065 H 
ATOM     95  C   UNL A   1      43.119  24.954  28.130  1.00  0.00     0.037 A 
ATOM     96  C   UNL A   1      45.176  30.118  31.550  1.00  0.00     0.049 A 
ATOM     97  C   UNL A   1      44.438  25.321  28.754  1.00  0.00     0.074 A 
ATOM     98  C   UNL A   1      46.420  30.319  32.122  1.00  0.00    -0.036 A 
ATOM     99  N   UNL A   1      45.226  28.889  30.907  1.00  0.00    -0.354 N 
ATOM    100  N   UNL A   1      44.758  26.386  29.449  1.00  0.00    -0.248 NA
ATOM    101  C   UNL A   1      45.542  24.367  28.581  1.00  0.00    -0.034 C 
ATOM    102  C   UNL A   1      47.235  29.231  31.793  1.00  0.00    -0.036 A 
ATOM    103  H   UNL A   1      46.698  31.132  32.694  1.00  0.00     0.065 H 
ATOM    104  C   UNL A   1      46.484  28.329  31.057  1.00  0.00     0.049 A 
ATOM    105  H   UNL A   1      44.478  28.477  30.418  1.00  0.00     0.167 HD
ATOM    106  C   UNL A   1      46.086  26.219  29.816  1.00  0.00     0.074 A 
ATOM    107  C   UNL A   1      46.508  24.940  29.283  1.00  0.00    -0.034 C 
ATOM    108  H   UNL A   1      45.560  23.481  28.050  1.00  0.00     0.065 H 
ATOM    109  H   UNL A   1      48.227  29.119  32.054  1.00  0.00     0.065 H 
ATOM    110  C   UNL A   1      46.885  27.050  30.529  1.00  0.00     0.037 A 
ATOM    111  H   UNL A   1      47.443  24.529  29.432  1.00  0.00     0.065 H 
BRANCH  92 112
ATOM    112  C   UNL A   1      44.143  32.297  32.290  1.00  0.00     0.064 A 
ATOM    113  C   UNL A   1      43.805  32.433  33.645  1.00  0.00     0.173 A 
ATOM    114  C   UNL A   1      44.648  33.425  31.624  1.00  0.00     0.173 A 
ATOM    115  F   UNL A   1      43.308  31.389  34.325  1.00  0.00    -0.203 F 
ATOM    116  C   UNL A   1      43.943  33.655  34.300  1.00  0.00     0.198 A 
ATOM    117  C   UNL A   1      44.813  34.636  32.290  1.00  0.00     0.198 A 
ATOM    118  F   UNL A   1      44.993  33.348  30.330  1.00  0.00    -0.203 F 
ATOM    119  F   UNL A   1      43.572  33.771  35.583  1.00  0.00    -0.200 F 
ATOM    120  C   UNL A   1      44.454  34.753  33.624  1.00  0.00     0.200 A 
ATOM    121  F   UNL A   1      45.320  35.693  31.640  1.00  0.00    -0.200 F 
ATOM    122  F   UNL A   1      44.597  35.924  34.259  1.00  0.00    -0.200 F 
ENDBRANCH  92 112
BRANCH  95 123
ATOM    123  C   UNL A   1      42.967  23.694  27.358  1.00  0.00     0.064 A 
ATOM    124  C   UNL A   1      42.458  22.534  27.961  1.00  0.00     0.173 A 
ATOM    125  C   UNL A   1      43.342  23.616  26.009  1.00  0.00     0.173 A 
ATOM    126  F   UNL A   1      42.104  22.553  29.255  1.00  0.00    -0.203 F 
ATOM    127  C   UNL A   1      42.352  21.340  27.250  1.00  0.00     0.198 A 
ATOM    128  C   UNL A   1      43.207  22.429  25.291  1.00  0.00     0.198 A 
ATOM    129  F   UNL A   1      43.828  24.698  25.382  1.00  0.00    -0.203 F 
ATOM    130  F   UNL A   1      41.911  20.235  27.865  1.00  0.00    -0.200 F 
ATOM    131  C   UNL A   1      42.722  21.290  25.915  1.00  0.00     0.200 A 
ATOM    132  F   UNL A   1      43.552  22.390  23.996  1.00  0.00    -0.200 F 
ATOM    133  F   UNL A   1      42.621  20.141  25.232  1.00  0.00    -0.200 F 
ENDBRANCH  95 123
BRANCH 110 134
ATOM    134  C   UNL A   1      48.287  26.589  30.803  1.00  0.00     0.064 A 
ATOM    135  C   UNL A   1      49.359  26.961  29.980  1.00  0.00     0.173 A 
ATOM    136  C   UNL A   1      48.564  25.794  31.926  1.00  0.00     0.173 A 
ATOM    137  F   UNL A   1      49.143  27.706  28.885  1.00  0.00    -0.203 F 
ATOM    138  C   UNL A   1      50.655  26.535  30.257  1.00  0.00     0.198 A 
ATOM    139  C   UNL A   1      49.866  25.395  32.217  1.00  0.00     0.198 A 
ATOM    140  F   UNL A   1      47.574  25.416  32.748  1.00  0.00    -0.203 F 
ATOM    141  F   UNL A   1      51.658  26.862  29.430  1.00  0.00    -0.200 F 
ATOM    142  C   UNL A   1      50.908  25.759  31.379  1.00  0.00     0.200 A 
ATOM    143  F   UNL A   1      50.110  24.657  33.308  1.00  0.00    -0.200 F 
ATOM    144  F   UNL A   1      52.157  25.355  31.647  1.00  0.00    -0.200 F 
ENDBRANCH 110 134
ENDBRANCH  75  78
ENDBRANCH  65  68
ENDBRANCH  61  64
ENDBRANCH  58  61
ENDBRANCH  55  58
ENDBRANCH  52  55
ENDBRANCH   1  52
TORSDOF 22
ENDMDL
MODEL 8
REMARK VINA RESULT:     -10.1      5.009     11.640
REMARK SMILES CCOc1cccc(OCC)c1-c1ccc([C@@H](C)C(=O)NCCCCCCNC(=O)c2ccc(-c3c4nc(c(-c5c(F)c(F)c(F)c(F)c5F)c5ccc([nH]5)c(-c5c(F)c(F)c(F)c(F)c5F)c5nc(c(-c6c(F)c(F)c(F)c(F)c6F)c6ccc3[nH]6)C=C5)C=C4)cc2)cc1F
REMARK SMILES IDX 23 1 22 4 21 7 19 8 20 9 17 11 16 13 13 14 14 15 95 16 15 17
REMARK SMILES IDX 94 19 96 20 12 23 4 24 5 25 6 26 8 28 7 29 3 32 2 33 1 36
REMARK SMILES IDX 9 40 10 41 11 44 18 48 24 52 25 55 26 58 27 61 28 64 29 65
REMARK SMILES IDX 30 67 31 68 32 69 93 70 33 71 92 73 34 75 35 78 36 79 86 80
REMARK SMILES IDX 37 81 91 82 85 83 87 84 38 85 90 86 84 88 83 90 39 92 71 95
REMARK SMILES IDX 51 96 70 97 52 98 55 99 69 100 88 101 53 102 54 104 68 106
REMARK SMILES IDX 89 107 56 110 40 112 41 113 49 114 42 115 43 116 47 117
REMARK SMILES IDX 50 118 44 119 45 120 48 121 46 122 72 123 73 124 81 125
REMARK SMILES IDX 74 126 75 127 79 128 82 129 76 130 77 131 80 132 78 133
REMARK SMILES IDX 57 134 58 135 66 136 59 137 60 138 64 139 67 140 61 141
REMARK SMILES IDX 62 142 65 143 63 144
REMARK H PARENT 23 2 23 3 22 5 22 6 21 10 17 12 14 18 15 21 94 22 5 27 6 30
REMARK H PARENT 7 31 2 34 2 35 1 37 1 38 1 39 10 42 10 43 11 45 11 46 11 47
REMARK H PARENT 18 49 18 50 18 51 24 53 24 54 25 56 25 57 26 59 26 60 27 62
REMARK H PARENT 27 63 28 66 32 72 93 74 33 76 92 77 91 87 85 89 87 91 90 93
REMARK H PARENT 84 94 52 103 55 105 88 108 53 109 89 111
REMARK Flexibility Score: inf
ROOT
ATOM      1  C   UNL A   1      44.248  23.202  29.668  1.00  0.00    -0.036 C 
ATOM      2  H   UNL A   1      43.249  23.189  29.284  1.00  0.00     0.028 H 
ATOM      3  H   UNL A   1      44.612  22.239  29.960  1.00  0.00     0.028 H 
ENDROOT
BRANCH   1   4
ATOM      4  C   UNL A   1      44.255  24.061  30.948  1.00  0.00     0.017 C 
ATOM      5  H   UNL A   1      45.205  24.544  31.037  1.00  0.00     0.049 H 
ATOM      6  H   UNL A   1      43.467  24.781  30.874  1.00  0.00     0.049 H 
BRANCH   4   7
ATOM      7  N   UNL A   1      44.022  23.249  32.135  1.00  0.00    -0.356 N 
ATOM      8  C   UNL A   1      44.270  23.399  33.466  1.00  0.00     0.227 C 
ATOM      9  O   UNL A   1      43.999  22.410  34.163  1.00  0.00    -0.274 OA
ATOM     10  H   UNL A   1      43.584  22.393  31.927  1.00  0.00     0.163 HD
BRANCH   8  11
ATOM     11  C   UNL A   1      44.840  24.663  34.151  1.00  0.00     0.060 C 
ATOM     12  H   UNL A   1      45.534  25.038  33.429  1.00  0.00     0.045 H 
BRANCH  11  13
ATOM     13  C   UNL A   1      43.831  25.781  34.350  1.00  0.00    -0.033 A 
ATOM     14  C   UNL A   1      42.058  27.983  34.682  1.00  0.00     0.025 A 
ATOM     15  C   UNL A   1      43.019  27.968  33.678  1.00  0.00    -0.051 A 
ATOM     16  C   UNL A   1      42.016  26.881  35.547  1.00  0.00     0.131 A 
ATOM     17  C   UNL A   1      43.799  26.846  33.462  1.00  0.00    -0.057 A 
ATOM     18  H   UNL A   1      43.152  28.803  33.086  1.00  0.00     0.063 H 
ATOM     19  C   UNL A   1      42.909  25.805  35.405  1.00  0.00    -0.022 A 
ATOM     20  F   UNL A   1      41.127  26.843  36.550  1.00  0.00    -0.206 F 
ATOM     21  H   UNL A   1      44.378  26.800  32.610  1.00  0.00     0.063 H 
ATOM     22  H   UNL A   1      42.885  25.027  36.083  1.00  0.00     0.066 H 
BRANCH  14  23
ATOM     23  C   UNL A   1      41.234  29.190  34.801  1.00  0.00     0.069 A 
ATOM     24  C   UNL A   1      41.538  30.078  35.868  1.00  0.00     0.130 A 
ATOM     25  C   UNL A   1      40.927  31.325  35.997  1.00  0.00    -0.019 A 
ATOM     26  C   UNL A   1      40.006  31.734  35.046  1.00  0.00    -0.055 A 
ATOM     27  H   UNL A   1      41.159  31.939  36.794  1.00  0.00     0.066 H 
ATOM     28  C   UNL A   1      40.280  29.612  33.844  1.00  0.00     0.130 A 
ATOM     29  C   UNL A   1      39.682  30.879  33.994  1.00  0.00    -0.019 A 
ATOM     30  H   UNL A   1      39.565  32.664  35.114  1.00  0.00     0.063 H 
ATOM     31  H   UNL A   1      38.981  31.184  33.301  1.00  0.00     0.066 H 
BRANCH  24  32
ATOM     32  O   UNL A   1      42.410  29.673  36.853  1.00  0.00    -0.493 OA
BRANCH  32  33
ATOM     33  C   UNL A   1      43.522  30.557  37.026  1.00  0.00     0.085 C 
ATOM     34  H   UNL A   1      43.346  31.465  36.489  1.00  0.00     0.070 H 
ATOM     35  H   UNL A   1      43.647  30.783  38.065  1.00  0.00     0.070 H 
BRANCH  33  36
ATOM     36  C   UNL A   1      44.776  29.882  36.492  1.00  0.00    -0.031 C 
ATOM     37  H   UNL A   1      45.048  29.072  37.137  1.00  0.00     0.027 H 
ATOM     38  H   UNL A   1      45.576  30.592  36.456  1.00  0.00     0.027 H 
ATOM     39  H   UNL A   1      44.587  29.507  35.508  1.00  0.00     0.027 H 
ENDBRANCH  33  36
ENDBRANCH  32  33
ENDBRANCH  24  32
BRANCH  28  40
ATOM     40  O   UNL A   1      39.769  28.991  32.736  1.00  0.00    -0.493 OA
BRANCH  40  41
ATOM     41  C   UNL A   1      38.433  28.532  32.600  1.00  0.00     0.085 C 
ATOM     42  H   UNL A   1      37.827  29.322  32.209  1.00  0.00     0.070 H 
ATOM     43  H   UNL A   1      38.072  28.231  33.562  1.00  0.00     0.070 H 
BRANCH  41  44
ATOM     44  C   UNL A   1      38.368  27.338  31.657  1.00  0.00    -0.031 C 
ATOM     45  H   UNL A   1      38.220  26.442  32.225  1.00  0.00     0.027 H 
ATOM     46  H   UNL A   1      39.284  27.265  31.110  1.00  0.00     0.027 H 
ATOM     47  H   UNL A   1      37.554  27.466  30.975  1.00  0.00     0.027 H 
ENDBRANCH  41  44
ENDBRANCH  40  41
ENDBRANCH  28  40
ENDBRANCH  14  23
ENDBRANCH  11  13
BRANCH  11  48
ATOM     48  C   UNL A   1      45.677  24.386  35.397  1.00  0.00    -0.049 C 
ATOM     49  H   UNL A   1      45.122  23.768  36.070  1.00  0.00     0.024 H 
ATOM     50  H   UNL A   1      45.916  25.312  35.878  1.00  0.00     0.024 H 
ATOM     51  H   UNL A   1      46.580  23.887  35.115  1.00  0.00     0.024 H 
ENDBRANCH  11  48
ENDBRANCH   8  11
ENDBRANCH   4   7
ENDBRANCH   1   4
BRANCH   1  52
ATOM     52  C   UNL A   1      45.174  23.675  28.549  1.00  0.00    -0.052 C 
ATOM     53  H   UNL A   1      45.963  22.960  28.445  1.00  0.00     0.027 H 
ATOM     54  H   UNL A   1      45.517  24.647  28.835  1.00  0.00     0.027 H 
BRANCH  52  55
ATOM     55  C   UNL A   1      44.501  23.844  27.184  1.00  0.00    -0.052 C 
ATOM     56  H   UNL A   1      45.269  24.021  26.460  1.00  0.00     0.027 H 
ATOM     57  H   UNL A   1      43.814  24.657  27.298  1.00  0.00     0.027 H 
BRANCH  55  58
ATOM     58  C   UNL A   1      43.662  22.656  26.699  1.00  0.00    -0.036 C 
ATOM     59  H   UNL A   1      42.931  22.439  27.450  1.00  0.00     0.028 H 
ATOM     60  H   UNL A   1      44.353  21.857  26.529  1.00  0.00     0.028 H 
BRANCH  58  61
ATOM     61  C   UNL A   1      42.930  22.869  25.374  1.00  0.00     0.018 C 
ATOM     62  H   UNL A   1      43.333  22.197  24.645  1.00  0.00     0.049 H 
ATOM     63  H   UNL A   1      43.070  23.889  25.081  1.00  0.00     0.049 H 
BRANCH  61  64
ATOM     64  N   UNL A   1      41.500  22.629  25.495  1.00  0.00    -0.352 N 
ATOM     65  C   UNL A   1      40.569  23.240  26.295  1.00  0.00     0.251 C 
ATOM     66  H   UNL A   1      41.148  21.919  24.913  1.00  0.00     0.163 HD
ATOM     67  O   UNL A   1      39.451  22.739  26.427  1.00  0.00    -0.269 OA
BRANCH  65  68
ATOM     68  C   UNL A   1      40.893  24.492  27.009  1.00  0.00     0.039 A 
ATOM     69  C   UNL A   1      41.129  25.654  26.267  1.00  0.00    -0.049 A 
ATOM     70  C   UNL A   1      41.011  24.516  28.402  1.00  0.00    -0.049 A 
ATOM     71  C   UNL A   1      41.425  26.850  26.924  1.00  0.00    -0.053 A 
ATOM     72  H   UNL A   1      41.086  25.626  25.236  1.00  0.00     0.063 H 
ATOM     73  C   UNL A   1      41.243  25.724  29.058  1.00  0.00    -0.053 A 
ATOM     74  H   UNL A   1      40.927  23.642  28.942  1.00  0.00     0.063 H 
ATOM     75  C   UNL A   1      41.454  26.902  28.327  1.00  0.00    -0.014 A 
ATOM     76  H   UNL A   1      41.624  27.701  26.374  1.00  0.00     0.063 H 
ATOM     77  H   UNL A   1      41.259  25.751  30.090  1.00  0.00     0.063 H 
BRANCH  75  78
ATOM     78  C   UNL A   1      41.700  28.180  29.045  1.00  0.00     0.031 A 
ATOM     79  C   UNL A   1      43.046  28.459  29.655  1.00  0.00     0.074 A 
ATOM     80  C   UNL A   1      40.692  29.060  29.201  1.00  0.00     0.049 A 
ATOM     81  N   UNL A   1      43.428  29.473  30.389  1.00  0.00    -0.248 NA
ATOM     82  C   UNL A   1      44.095  27.451  29.432  1.00  0.00    -0.034 C 
ATOM     83  C   UNL A   1      39.331  28.884  28.693  1.00  0.00    -0.036 A 
ATOM     84  N   UNL A   1      40.652  30.270  29.846  1.00  0.00    -0.354 N 
ATOM     85  C   UNL A   1      44.754  29.223  30.720  1.00  0.00     0.074 A 
ATOM     86  C   UNL A   1      45.095  27.936  30.154  1.00  0.00    -0.034 C 
ATOM     87  H   UNL A   1      44.061  26.591  28.862  1.00  0.00     0.065 H 
ATOM     88  C   UNL A   1      38.592  29.950  29.036  1.00  0.00    -0.036 A 
ATOM     89  H   UNL A   1      38.994  28.069  28.157  1.00  0.00     0.065 H 
ATOM     90  C   UNL A   1      39.415  30.869  29.818  1.00  0.00     0.049 A 
ATOM     91  H   UNL A   1      41.435  30.674  30.286  1.00  0.00     0.167 HD
ATOM     92  C   UNL A   1      45.614  30.007  31.412  1.00  0.00     0.037 A 
ATOM     93  H   UNL A   1      45.998  27.459  30.293  1.00  0.00     0.065 H 
ATOM     94  H   UNL A   1      37.602  30.099  28.786  1.00  0.00     0.065 H 
ATOM     95  C   UNL A   1      38.989  32.019  30.373  1.00  0.00     0.037 A 
ATOM     96  C   UNL A   1      45.278  31.296  31.960  1.00  0.00     0.049 A 
ATOM     97  C   UNL A   1      39.964  32.867  31.145  1.00  0.00     0.074 A 
ATOM     98  C   UNL A   1      46.091  32.183  32.642  1.00  0.00    -0.036 A 
ATOM     99  N   UNL A   1      44.021  31.880  31.888  1.00  0.00    -0.354 N 
ATOM    100  N   UNL A   1      41.231  32.646  31.400  1.00  0.00    -0.248 NA
ATOM    101  C   UNL A   1      39.453  34.129  31.699  1.00  0.00    -0.034 C 
ATOM    102  C   UNL A   1      45.317  33.287  33.018  1.00  0.00    -0.036 A 
ATOM    103  H   UNL A   1      47.096  32.055  32.840  1.00  0.00     0.065 H 
ATOM    104  C   UNL A   1      44.034  33.109  32.526  1.00  0.00     0.049 A 
ATOM    105  H   UNL A   1      43.237  31.480  31.448  1.00  0.00     0.167 HD
ATOM    106  C   UNL A   1      41.673  33.749  32.119  1.00  0.00     0.074 A 
ATOM    107  C   UNL A   1      40.543  34.646  32.243  1.00  0.00    -0.034 C 
ATOM    108  H   UNL A   1      38.494  34.511  31.670  1.00  0.00     0.065 H 
ATOM    109  H   UNL A   1      45.646  34.096  33.566  1.00  0.00     0.065 H 
ATOM    110  C   UNL A   1      42.903  33.995  32.632  1.00  0.00     0.037 A 
ATOM    111  H   UNL A   1      40.584  35.572  32.699  1.00  0.00     0.065 H 
BRANCH  92 112
ATOM    112  C   UNL A   1      47.014  29.500  31.609  1.00  0.00     0.064 A 
ATOM    113  C   UNL A   1      47.375  28.774  32.754  1.00  0.00     0.173 A 
ATOM    114  C   UNL A   1      47.993  29.698  30.622  1.00  0.00     0.173 A 
ATOM    115  F   UNL A   1      46.480  28.566  33.731  1.00  0.00    -0.203 F 
ATOM    116  C   UNL A   1      48.671  28.288  32.916  1.00  0.00     0.198 A 
ATOM    117  C   UNL A   1      49.278  29.184  30.775  1.00  0.00     0.198 A 
ATOM    118  F   UNL A   1      47.699  30.379  29.505  1.00  0.00    -0.203 F 
ATOM    119  F   UNL A   1      49.003  27.635  34.039  1.00  0.00    -0.200 F 
ATOM    120  C   UNL A   1      49.618  28.486  31.923  1.00  0.00     0.200 A 
ATOM    121  F   UNL A   1      50.188  29.365  29.808  1.00  0.00    -0.200 F 
ATOM    122  F   UNL A   1      50.860  28.008  32.076  1.00  0.00    -0.200 F 
ENDBRANCH  92 112
BRANCH  95 123
ATOM    123  C   UNL A   1      37.575  32.444  30.211  1.00  0.00     0.064 A 
ATOM    124  C   UNL A   1      37.172  33.210  29.107  1.00  0.00     0.173 A 
ATOM    125  C   UNL A   1      36.599  32.108  31.161  1.00  0.00     0.173 A 
ATOM    126  F   UNL A   1      38.072  33.574  28.181  1.00  0.00    -0.203 F 
ATOM    127  C   UNL A   1      35.855  33.644  28.973  1.00  0.00     0.198 A 
ATOM    128  C   UNL A   1      35.275  32.516  31.009  1.00  0.00     0.198 A 
ATOM    129  F   UNL A   1      36.929  31.370  32.231  1.00  0.00    -0.203 F 
ATOM    130  F   UNL A   1      35.510  34.418  27.935  1.00  0.00    -0.200 F 
ATOM    131  C   UNL A   1      34.907  33.293  29.922  1.00  0.00     0.200 A 
ATOM    132  F   UNL A   1      34.359  32.161  31.921  1.00  0.00    -0.200 F 
ATOM    133  F   UNL A   1      33.640  33.710  29.792  1.00  0.00    -0.200 F 
ENDBRANCH  95 123
BRANCH 110 134
ATOM    134  C   UNL A   1      43.103  35.301  33.345  1.00  0.00     0.064 A 
ATOM    135  C   UNL A   1      43.510  36.457  32.664  1.00  0.00     0.173 A 
ATOM    136  C   UNL A   1      42.848  35.404  34.721  1.00  0.00     0.173 A 
ATOM    137  F   UNL A   1      43.782  36.407  31.351  1.00  0.00    -0.203 F 
ATOM    138  C   UNL A   1      43.677  37.663  33.338  1.00  0.00     0.198 A 
ATOM    139  C   UNL A   1      42.986  36.618  35.387  1.00  0.00     0.198 A 
ATOM    140  F   UNL A   1      42.450  34.328  35.417  1.00  0.00    -0.203 F 
ATOM    141  F   UNL A   1      44.113  38.744  32.677  1.00  0.00    -0.200 F 
ATOM    142  C   UNL A   1      43.408  37.744  34.697  1.00  0.00     0.200 A 
ATOM    143  F   UNL A   1      42.714  36.698  36.696  1.00  0.00    -0.200 F 
ATOM    144  F   UNL A   1      43.563  38.908  35.343  1.00  0.00    -0.200 F 
ENDBRANCH 110 134
ENDBRANCH  75  78
ENDBRANCH  65  68
ENDBRANCH  61  64
ENDBRANCH  58  61
ENDBRANCH  55  58
ENDBRANCH  52  55
ENDBRANCH   1  52
TORSDOF 22
ENDMDL
MODEL 9
REMARK VINA RESULT:      -9.9      5.317      7.550
REMARK SMILES CCOc1cccc(OCC)c1-c1ccc([C@@H](C)C(=O)NCCCCCCNC(=O)c2ccc(-c3c4nc(c(-c5c(F)c(F)c(F)c(F)c5F)c5ccc([nH]5)c(-c5c(F)c(F)c(F)c(F)c5F)c5nc(c(-c6c(F)c(F)c(F)c(F)c6F)c6ccc3[nH]6)C=C5)C=C4)cc2)cc1F
REMARK SMILES IDX 23 1 22 4 21 7 19 8 20 9 17 11 16 13 13 14 14 15 95 16 15 17
REMARK SMILES IDX 94 19 96 20 12 23 4 24 5 25 6 26 8 28 7 29 3 32 2 33 1 36
REMARK SMILES IDX 9 40 10 41 11 44 18 48 24 52 25 55 26 58 27 61 28 64 29 65
REMARK SMILES IDX 30 67 31 68 32 69 93 70 33 71 92 73 34 75 35 78 36 79 86 80
REMARK SMILES IDX 37 81 91 82 85 83 87 84 38 85 90 86 84 88 83 90 39 92 71 95
REMARK SMILES IDX 51 96 70 97 52 98 55 99 69 100 88 101 53 102 54 104 68 106
REMARK SMILES IDX 89 107 56 110 40 112 41 113 49 114 42 115 43 116 47 117
REMARK SMILES IDX 50 118 44 119 45 120 48 121 46 122 72 123 73 124 81 125
REMARK SMILES IDX 74 126 75 127 79 128 82 129 76 130 77 131 80 132 78 133
REMARK SMILES IDX 57 134 58 135 66 136 59 137 60 138 64 139 67 140 61 141
REMARK SMILES IDX 62 142 65 143 63 144
REMARK H PARENT 23 2 23 3 22 5 22 6 21 10 17 12 14 18 15 21 94 22 5 27 6 30
REMARK H PARENT 7 31 2 34 2 35 1 37 1 38 1 39 10 42 10 43 11 45 11 46 11 47
REMARK H PARENT 18 49 18 50 18 51 24 53 24 54 25 56 25 57 26 59 26 60 27 62
REMARK H PARENT 27 63 28 66 32 72 93 74 33 76 92 77 91 87 85 89 87 91 90 93
REMARK H PARENT 84 94 52 103 55 105 88 108 53 109 89 111
REMARK Flexibility Score: inf
ROOT
ATOM      1  C   UNL A   1      35.836  30.900  27.971  1.00  0.00    -0.036 C 
ATOM      2  H   UNL A   1      35.009  31.576  28.019  1.00  0.00     0.028 H 
ATOM      3  H   UNL A   1      36.402  30.971  27.066  1.00  0.00     0.028 H 
ENDROOT
BRANCH   1   4
ATOM      4  C   UNL A   1      35.277  29.463  28.007  1.00  0.00     0.017 C 
ATOM      5  H   UNL A   1      35.795  28.870  27.282  1.00  0.00     0.049 H 
ATOM      6  H   UNL A   1      35.421  29.070  28.992  1.00  0.00     0.049 H 
BRANCH   4   7
ATOM      7  N   UNL A   1      33.851  29.439  27.710  1.00  0.00    -0.356 N 
ATOM      8  C   UNL A   1      33.097  29.032  26.651  1.00  0.00     0.227 C 
ATOM      9  O   UNL A   1      31.885  29.275  26.749  1.00  0.00    -0.274 OA
ATOM     10  H   UNL A   1      33.306  29.801  28.445  1.00  0.00     0.163 HD
BRANCH   8  11
ATOM     11  C   UNL A   1      33.616  28.315  25.384  1.00  0.00     0.060 C 
ATOM     12  H   UNL A   1      34.659  28.551  25.380  1.00  0.00     0.045 H 
BRANCH  11  13
ATOM     13  C   UNL A   1      33.554  26.798  25.447  1.00  0.00    -0.033 A 
ATOM     14  C   UNL A   1      33.439  23.954  25.404  1.00  0.00     0.025 A 
ATOM     15  C   UNL A   1      34.184  24.667  24.472  1.00  0.00    -0.051 A 
ATOM     16  C   UNL A   1      32.719  24.695  26.351  1.00  0.00     0.131 A 
ATOM     17  C   UNL A   1      34.317  26.039  24.573  1.00  0.00    -0.057 A 
ATOM     18  H   UNL A   1      34.645  24.166  23.696  1.00  0.00     0.063 H 
ATOM     19  C   UNL A   1      32.749  26.100  26.359  1.00  0.00    -0.022 A 
ATOM     20  F   UNL A   1      31.963  24.069  27.266  1.00  0.00    -0.206 F 
ATOM     21  H   UNL A   1      35.009  26.517  23.975  1.00  0.00     0.063 H 
ATOM     22  H   UNL A   1      32.175  26.621  27.040  1.00  0.00     0.066 H 
BRANCH  14  23
ATOM     23  C   UNL A   1      33.403  22.496  25.258  1.00  0.00     0.069 A 
ATOM     24  C   UNL A   1      32.241  21.935  24.661  1.00  0.00     0.130 A 
ATOM     25  C   UNL A   1      32.151  20.582  24.332  1.00  0.00    -0.019 A 
ATOM     26  C   UNL A   1      33.233  19.750  24.571  1.00  0.00    -0.055 A 
ATOM     27  H   UNL A   1      31.286  20.204  23.914  1.00  0.00     0.066 H 
ATOM     28  C   UNL A   1      34.495  21.633  25.511  1.00  0.00     0.130 A 
ATOM     29  C   UNL A   1      34.381  20.272  25.165  1.00  0.00    -0.019 A 
ATOM     30  H   UNL A   1      33.190  18.753  24.310  1.00  0.00     0.063 H 
ATOM     31  H   UNL A   1      35.175  19.640  25.357  1.00  0.00     0.066 H 
BRANCH  24  32
ATOM     32  O   UNL A   1      31.135  22.730  24.462  1.00  0.00    -0.493 OA
BRANCH  32  33
ATOM     33  C   UNL A   1      31.035  23.242  23.129  1.00  0.00     0.085 C 
ATOM     34  H   UNL A   1      31.960  23.088  22.614  1.00  0.00     0.070 H 
ATOM     35  H   UNL A   1      30.253  22.733  22.604  1.00  0.00     0.070 H 
BRANCH  33  36
ATOM     36  C   UNL A   1      30.728  24.730  23.194  1.00  0.00    -0.031 C 
ATOM     37  H   UNL A   1      31.027  25.197  22.279  1.00  0.00     0.027 H 
ATOM     38  H   UNL A   1      31.264  25.170  24.010  1.00  0.00     0.027 H 
ATOM     39  H   UNL A   1      29.678  24.871  23.340  1.00  0.00     0.027 H 
ENDBRANCH  33  36
ENDBRANCH  32  33
ENDBRANCH  24  32
BRANCH  28  40
ATOM     40  O   UNL A   1      35.719  21.860  26.082  1.00  0.00    -0.493 OA
BRANCH  40  41
ATOM     41  C   UNL A   1      36.825  22.464  25.428  1.00  0.00     0.085 C 
ATOM     42  H   UNL A   1      37.297  23.152  26.098  1.00  0.00     0.070 H 
ATOM     43  H   UNL A   1      36.473  22.978  24.557  1.00  0.00     0.070 H 
BRANCH  41  44
ATOM     44  C   UNL A   1      37.837  21.409  24.999  1.00  0.00    -0.031 C 
ATOM     45  H   UNL A   1      37.992  21.473  23.941  1.00  0.00     0.027 H 
ATOM     46  H   UNL A   1      37.466  20.437  25.246  1.00  0.00     0.027 H 
ATOM     47  H   UNL A   1      38.764  21.578  25.506  1.00  0.00     0.027 H 
ENDBRANCH  41  44
ENDBRANCH  40  41
ENDBRANCH  28  40
ENDBRANCH  14  23
ENDBRANCH  11  13
BRANCH  11  48
ATOM     48  C   UNL A   1      33.079  28.878  24.071  1.00  0.00    -0.049 C 
ATOM     49  H   UNL A   1      33.267  28.183  23.280  1.00  0.00     0.024 H 
ATOM     50  H   UNL A   1      33.569  29.806  23.855  1.00  0.00     0.024 H 
ATOM     51  H   UNL A   1      32.026  29.043  24.158  1.00  0.00     0.024 H 
ENDBRANCH  11  48
ENDBRANCH   8  11
ENDBRANCH   4   7
ENDBRANCH   1   4
BRANCH   1  52
ATOM     52  C   UNL A   1      36.804  31.261  29.097  1.00  0.00    -0.052 C 
ATOM     53  H   UNL A   1      36.825  32.327  29.187  1.00  0.00     0.027 H 
ATOM     54  H   UNL A   1      37.749  30.840  28.826  1.00  0.00     0.027 H 
BRANCH  52  55
ATOM     55  C   UNL A   1      36.448  30.675  30.465  1.00  0.00    -0.052 C 
ATOM     56  H   UNL A   1      37.362  30.472  30.982  1.00  0.00     0.027 H 
ATOM     57  H   UNL A   1      35.859  29.804  30.263  1.00  0.00     0.027 H 
BRANCH  55  58
ATOM     58  C   UNL A   1      35.583  31.560  31.369  1.00  0.00    -0.036 C 
ATOM     59  H   UNL A   1      36.053  31.612  32.329  1.00  0.00     0.028 H 
ATOM     60  H   UNL A   1      34.615  31.105  31.390  1.00  0.00     0.028 H 
BRANCH  58  61
ATOM     61  C   UNL A   1      35.366  32.989  30.871  1.00  0.00     0.018 C 
ATOM     62  H   UNL A   1      34.325  33.131  30.671  1.00  0.00     0.049 H 
ATOM     63  H   UNL A   1      35.953  33.122  29.986  1.00  0.00     0.049 H 
BRANCH  61  64
ATOM     64  N   UNL A   1      35.796  33.979  31.847  1.00  0.00    -0.352 N 
ATOM     65  C   UNL A   1      37.044  34.227  32.360  1.00  0.00     0.251 C 
ATOM     66  H   UNL A   1      35.081  34.560  32.193  1.00  0.00     0.163 HD
ATOM     67  O   UNL A   1      37.167  34.949  33.350  1.00  0.00    -0.269 OA
BRANCH  65  68
ATOM     68  C   UNL A   1      38.246  33.631  31.741  1.00  0.00     0.039 A 
ATOM     69  C   UNL A   1      39.003  32.715  32.477  1.00  0.00    -0.049 A 
ATOM     70  C   UNL A   1      38.655  34.006  30.457  1.00  0.00    -0.049 A 
ATOM     71  C   UNL A   1      40.136  32.131  31.905  1.00  0.00    -0.053 A 
ATOM     72  H   UNL A   1      38.726  32.471  33.440  1.00  0.00     0.063 H 
ATOM     73  C   UNL A   1      39.748  33.375  29.865  1.00  0.00    -0.053 A 
ATOM     74  H   UNL A   1      38.149  34.748  29.950  1.00  0.00     0.063 H 
ATOM     75  C   UNL A   1      40.500  32.433  30.583  1.00  0.00    -0.014 A 
ATOM     76  H   UNL A   1      40.708  31.474  32.458  1.00  0.00     0.063 H 
ATOM     77  H   UNL A   1      40.005  33.602  28.892  1.00  0.00     0.063 H 
BRANCH  75  78
ATOM     78  C   UNL A   1      41.662  31.771  29.934  1.00  0.00     0.031 A 
ATOM     79  C   UNL A   1      42.914  32.552  29.644  1.00  0.00     0.074 A 
ATOM     80  C   UNL A   1      41.565  30.484  29.550  1.00  0.00     0.049 A 
ATOM     81  N   UNL A   1      43.997  32.176  29.013  1.00  0.00    -0.248 NA
ATOM     82  C   UNL A   1      42.943  33.949  30.105  1.00  0.00    -0.034 C 
ATOM     83  C   UNL A   1      40.388  29.633  29.736  1.00  0.00    -0.036 A 
ATOM     84  N   UNL A   1      42.465  29.670  28.908  1.00  0.00    -0.354 N 
ATOM     85  C   UNL A   1      44.829  33.287  28.993  1.00  0.00     0.074 A 
ATOM     86  C   UNL A   1      44.106  34.368  29.627  1.00  0.00    -0.034 C 
ATOM     87  H   UNL A   1      42.241  34.468  30.655  1.00  0.00     0.065 H 
ATOM     88  C   UNL A   1      40.641  28.416  29.230  1.00  0.00    -0.036 A 
ATOM     89  H   UNL A   1      39.505  29.924  30.184  1.00  0.00     0.065 H 
ATOM     90  C   UNL A   1      41.982  28.409  28.652  1.00  0.00     0.049 A 
ATOM     91  H   UNL A   1      43.371  29.961  28.655  1.00  0.00     0.167 HD
ATOM     92  C   UNL A   1      46.091  33.390  28.511  1.00  0.00     0.037 A 
ATOM     93  H   UNL A   1      44.451  35.337  29.698  1.00  0.00     0.065 H 
ATOM     94  H   UNL A   1      39.993  27.613  29.247  1.00  0.00     0.065 H 
ATOM     95  C   UNL A   1      42.550  27.371  28.010  1.00  0.00     0.037 A 
ATOM     96  C   UNL A   1      46.816  32.308  27.896  1.00  0.00     0.049 A 
ATOM     97  C   UNL A   1      43.950  27.515  27.476  1.00  0.00     0.074 A 
ATOM     98  C   UNL A   1      48.112  32.301  27.413  1.00  0.00    -0.036 A 
ATOM     99  N   UNL A   1      46.303  31.038  27.678  1.00  0.00    -0.354 N 
ATOM    100  N   UNL A   1      44.748  28.554  27.516  1.00  0.00    -0.248 NA
ATOM    101  C   UNL A   1      44.532  26.338  26.815  1.00  0.00    -0.034 C 
ATOM    102  C   UNL A   1      48.371  31.040  26.867  1.00  0.00    -0.036 A 
ATOM    103  H   UNL A   1      48.776  33.092  27.450  1.00  0.00     0.065 H 
ATOM    104  C   UNL A   1      47.251  30.245  27.055  1.00  0.00     0.049 A 
ATOM    105  H   UNL A   1      45.397  30.744  27.930  1.00  0.00     0.167 HD
ATOM    106  C   UNL A   1      45.931  28.150  26.912  1.00  0.00     0.074 A 
ATOM    107  C   UNL A   1      45.753  26.765  26.531  1.00  0.00    -0.034 C 
ATOM    108  H   UNL A   1      44.102  25.420  26.624  1.00  0.00     0.065 H 
ATOM    109  H   UNL A   1      49.246  30.750  26.405  1.00  0.00     0.065 H 
ATOM    110  C   UNL A   1      47.062  28.864  26.691  1.00  0.00     0.037 A 
ATOM    111  H   UNL A   1      46.486  26.184  26.093  1.00  0.00     0.065 H 
BRANCH  92 112
ATOM    112  C   UNL A   1      46.779  34.718  28.640  1.00  0.00     0.064 A 
ATOM    113  C   UNL A   1      46.674  35.697  27.640  1.00  0.00     0.173 A 
ATOM    114  C   UNL A   1      47.512  35.036  29.794  1.00  0.00     0.173 A 
ATOM    115  F   UNL A   1      45.994  35.440  26.513  1.00  0.00    -0.203 F 
ATOM    116  C   UNL A   1      47.298  36.935  27.780  1.00  0.00     0.198 A 
ATOM    117  C   UNL A   1      48.108  36.286  29.943  1.00  0.00     0.198 A 
ATOM    118  F   UNL A   1      47.640  34.139  30.784  1.00  0.00    -0.203 F 
ATOM    119  F   UNL A   1      47.219  37.838  26.792  1.00  0.00    -0.200 F 
ATOM    120  C   UNL A   1      48.007  37.231  28.934  1.00  0.00     0.200 A 
ATOM    121  F   UNL A   1      48.782  36.575  31.065  1.00  0.00    -0.200 F 
ATOM    122  F   UNL A   1      48.596  38.426  29.071  1.00  0.00    -0.200 F 
ENDBRANCH  92 112
BRANCH  95 123
ATOM    123  C   UNL A   1      41.800  26.098  27.844  1.00  0.00     0.064 A 
ATOM    124  C   UNL A   1      42.130  24.962  28.598  1.00  0.00     0.173 A 
ATOM    125  C   UNL A   1      40.751  25.986  26.921  1.00  0.00     0.173 A 
ATOM    126  F   UNL A   1      43.139  25.015  29.481  1.00  0.00    -0.203 F 
ATOM    127  C   UNL A   1      41.455  23.757  28.417  1.00  0.00     0.198 A 
ATOM    128  C   UNL A   1      40.057  24.788  26.762  1.00  0.00     0.198 A 
ATOM    129  F   UNL A   1      40.391  27.043  26.180  1.00  0.00    -0.203 F 
ATOM    130  F   UNL A   1      41.825  22.674  29.113  1.00  0.00    -0.200 F 
ATOM    131  C   UNL A   1      40.417  23.672  27.502  1.00  0.00     0.200 A 
ATOM    132  F   UNL A   1      39.043  24.714  25.888  1.00  0.00    -0.200 F 
ATOM    133  F   UNL A   1      39.768  22.512  27.328  1.00  0.00    -0.200 F 
ENDBRANCH  95 123
BRANCH 110 134
ATOM    134  C   UNL A   1      48.209  28.150  26.037  1.00  0.00     0.064 A 
ATOM    135  C   UNL A   1      49.336  27.744  26.766  1.00  0.00     0.173 A 
ATOM    136  C   UNL A   1      48.163  27.836  24.670  1.00  0.00     0.173 A 
ATOM    137  F   UNL A   1      49.436  28.034  28.073  1.00  0.00    -0.203 F 
ATOM    138  C   UNL A   1      50.384  27.070  26.146  1.00  0.00     0.198 A 
ATOM    139  C   UNL A   1      49.199  27.137  24.060  1.00  0.00     0.198 A 
ATOM    140  F   UNL A   1      47.104  28.198  23.929  1.00  0.00    -0.203 F 
ATOM    141  F   UNL A   1      51.473  26.734  26.852  1.00  0.00    -0.200 F 
ATOM    142  C   UNL A   1      50.312  26.761  24.796  1.00  0.00     0.200 A 
ATOM    143  F   UNL A   1      49.122  26.827  22.759  1.00  0.00    -0.200 F 
ATOM    144  F   UNL A   1      51.320  26.107  24.203  1.00  0.00    -0.200 F 
ENDBRANCH 110 134
ENDBRANCH  75  78
ENDBRANCH  65  68
ENDBRANCH  61  64
ENDBRANCH  58  61
ENDBRANCH  55  58
ENDBRANCH  52  55
ENDBRANCH   1  52
TORSDOF 22
ENDMDL
MODEL 10
REMARK VINA RESULT:      -9.9      7.598     13.595
REMARK SMILES CCOc1cccc(OCC)c1-c1ccc([C@@H](C)C(=O)NCCCCCCNC(=O)c2ccc(-c3c4nc(c(-c5c(F)c(F)c(F)c(F)c5F)c5ccc([nH]5)c(-c5c(F)c(F)c(F)c(F)c5F)c5nc(c(-c6c(F)c(F)c(F)c(F)c6F)c6ccc3[nH]6)C=C5)C=C4)cc2)cc1F
REMARK SMILES IDX 23 1 22 4 21 7 19 8 20 9 17 11 16 13 13 14 14 15 95 16 15 17
REMARK SMILES IDX 94 19 96 20 12 23 4 24 5 25 6 26 8 28 7 29 3 32 2 33 1 36
REMARK SMILES IDX 9 40 10 41 11 44 18 48 24 52 25 55 26 58 27 61 28 64 29 65
REMARK SMILES IDX 30 67 31 68 32 69 93 70 33 71 92 73 34 75 35 78 36 79 86 80
REMARK SMILES IDX 37 81 91 82 85 83 87 84 38 85 90 86 84 88 83 90 39 92 71 95
REMARK SMILES IDX 51 96 70 97 52 98 55 99 69 100 88 101 53 102 54 104 68 106
REMARK SMILES IDX 89 107 56 110 40 112 41 113 49 114 42 115 43 116 47 117
REMARK SMILES IDX 50 118 44 119 45 120 48 121 46 122 72 123 73 124 81 125
REMARK SMILES IDX 74 126 75 127 79 128 82 129 76 130 77 131 80 132 78 133
REMARK SMILES IDX 57 134 58 135 66 136 59 137 60 138 64 139 67 140 61 141
REMARK SMILES IDX 62 142 65 143 63 144
REMARK H PARENT 23 2 23 3 22 5 22 6 21 10 17 12 14 18 15 21 94 22 5 27 6 30
REMARK H PARENT 7 31 2 34 2 35 1 37 1 38 1 39 10 42 10 43 11 45 11 46 11 47
REMARK H PARENT 18 49 18 50 18 51 24 53 24 54 25 56 25 57 26 59 26 60 27 62
REMARK H PARENT 27 63 28 66 32 72 93 74 33 76 92 77 91 87 85 89 87 91 90 93
REMARK H PARENT 84 94 52 103 55 105 88 108 53 109 89 111
REMARK Flexibility Score: inf
ROOT
ATOM      1  C   UNL A   1      40.240  28.983  27.286  1.00  0.00    -0.036 C 
ATOM      2  H   UNL A   1      40.709  29.254  28.208  1.00  0.00     0.028 H 
ATOM      3  H   UNL A   1      40.591  29.537  26.441  1.00  0.00     0.028 H 
ENDROOT
BRANCH   1   4
ATOM      4  C   UNL A   1      38.736  29.304  27.405  1.00  0.00     0.017 C 
ATOM      5  H   UNL A   1      38.599  30.361  27.318  1.00  0.00     0.049 H 
ATOM      6  H   UNL A   1      38.219  28.787  26.624  1.00  0.00     0.049 H 
BRANCH   4   7
ATOM      7  N   UNL A   1      38.197  28.859  28.684  1.00  0.00    -0.356 N 
ATOM      8  C   UNL A   1      38.147  29.382  29.940  1.00  0.00     0.227 C 
ATOM      9  O   UNL A   1      37.672  28.627  30.802  1.00  0.00    -0.274 OA
ATOM     10  H   UNL A   1      37.770  27.974  28.626  1.00  0.00     0.163 HD
BRANCH   8  11
ATOM     11  C   UNL A   1      38.618  30.793  30.360  1.00  0.00     0.060 C 
ATOM     12  H   UNL A   1      39.090  31.166  29.475  1.00  0.00     0.045 H 
BRANCH  11  13
ATOM     13  C   UNL A   1      37.493  31.773  30.651  1.00  0.00    -0.033 A 
ATOM     14  C   UNL A   1      35.499  33.723  31.216  1.00  0.00     0.025 A 
ATOM     15  C   UNL A   1      36.645  34.042  30.497  1.00  0.00    -0.051 A 
ATOM     16  C   UNL A   1      35.377  32.406  31.678  1.00  0.00     0.131 A 
ATOM     17  C   UNL A   1      37.550  33.060  30.138  1.00  0.00    -0.057 A 
ATOM     18  H   UNL A   1      36.823  35.022  30.228  1.00  0.00     0.063 H 
ATOM     19  C   UNL A   1      36.373  31.447  31.427  1.00  0.00    -0.022 A 
ATOM     20  F   UNL A   1      34.305  32.039  32.396  1.00  0.00    -0.206 F 
ATOM     21  H   UNL A   1      38.296  33.294  29.465  1.00  0.00     0.063 H 
ATOM     22  H   UNL A   1      36.279  30.496  31.818  1.00  0.00     0.066 H 
BRANCH  14  23
ATOM     23  C   UNL A   1      34.562  34.815  31.499  1.00  0.00     0.069 A 
ATOM     24  C   UNL A   1      34.875  35.666  32.594  1.00  0.00     0.130 A 
ATOM     25  C   UNL A   1      34.146  36.823  32.871  1.00  0.00    -0.019 A 
ATOM     26  C   UNL A   1      33.092  37.178  32.044  1.00  0.00    -0.055 A 
ATOM     27  H   UNL A   1      34.389  37.410  33.684  1.00  0.00     0.066 H 
ATOM     28  C   UNL A   1      33.474  35.180  30.671  1.00  0.00     0.130 A 
ATOM     29  C   UNL A   1      32.758  36.356  30.969  1.00  0.00    -0.019 A 
ATOM     30  H   UNL A   1      32.559  38.043  32.222  1.00  0.00     0.063 H 
ATOM     31  H   UNL A   1      31.959  36.618  30.370  1.00  0.00     0.066 H 
BRANCH  24  32
ATOM     32  O   UNL A   1      35.882  35.307  33.460  1.00  0.00    -0.493 OA
BRANCH  32  33
ATOM     33  C   UNL A   1      35.415  34.599  34.613  1.00  0.00     0.085 C 
ATOM     34  H   UNL A   1      35.190  35.294  35.395  1.00  0.00     0.070 H 
ATOM     35  H   UNL A   1      34.530  34.050  34.367  1.00  0.00     0.070 H 
BRANCH  33  36
ATOM     36  C   UNL A   1      36.502  33.642  35.078  1.00  0.00    -0.031 C 
ATOM     37  H   UNL A   1      37.029  33.259  34.228  1.00  0.00     0.027 H 
ATOM     38  H   UNL A   1      36.057  32.831  35.617  1.00  0.00     0.027 H 
ATOM     39  H   UNL A   1      37.186  34.162  35.716  1.00  0.00     0.027 H 
ENDBRANCH  33  36
ENDBRANCH  32  33
ENDBRANCH  24  32
BRANCH  28  40
ATOM     40  O   UNL A   1      32.923  34.572  29.574  1.00  0.00    -0.493 OA
BRANCH  40  41
ATOM     41  C   UNL A   1      33.565  34.420  28.318  1.00  0.00     0.085 C 
ATOM     42  H   UNL A   1      34.457  35.011  28.304  1.00  0.00     0.070 H 
ATOM     43  H   UNL A   1      32.896  34.741  27.547  1.00  0.00     0.070 H 
BRANCH  41  44
ATOM     44  C   UNL A   1      33.929  32.960  28.075  1.00  0.00    -0.031 C 
ATOM     45  H   UNL A   1      33.151  32.331  28.457  1.00  0.00     0.027 H 
ATOM     46  H   UNL A   1      34.848  32.733  28.572  1.00  0.00     0.027 H 
ATOM     47  H   UNL A   1      34.040  32.791  27.024  1.00  0.00     0.027 H 
ENDBRANCH  41  44
ENDBRANCH  40  41
ENDBRANCH  28  40
ENDBRANCH  14  23
ENDBRANCH  11  13
BRANCH  11  48
ATOM     48  C   UNL A   1      39.710  30.807  31.425  1.00  0.00    -0.049 C 
ATOM     49  H   UNL A   1      39.925  29.805  31.729  1.00  0.00     0.024 H 
ATOM     50  H   UNL A   1      39.376  31.372  32.271  1.00  0.00     0.024 H 
ATOM     51  H   UNL A   1      40.594  31.256  31.023  1.00  0.00     0.024 H 
ENDBRANCH  11  48
ENDBRANCH   8  11
ENDBRANCH   4   7
ENDBRANCH   1   4
BRANCH   1  52
ATOM     52  C   UNL A   1      40.583  27.522  26.998  1.00  0.00    -0.052 C 
ATOM     53  H   UNL A   1      41.570  27.488  26.585  1.00  0.00     0.027 H 
ATOM     54  H   UNL A   1      39.831  27.164  26.326  1.00  0.00     0.027 H 
BRANCH  52  55
ATOM     55  C   UNL A   1      40.544  26.599  28.218  1.00  0.00    -0.052 C 
ATOM     56  H   UNL A   1      40.001  27.101  28.991  1.00  0.00     0.027 H 
ATOM     57  H   UNL A   1      41.567  26.399  28.463  1.00  0.00     0.027 H 
BRANCH  55  58
ATOM     58  C   UNL A   1      39.893  25.228  28.000  1.00  0.00    -0.036 C 
ATOM     59  H   UNL A   1      38.868  25.298  28.299  1.00  0.00     0.028 H 
ATOM     60  H   UNL A   1      40.463  24.534  28.581  1.00  0.00     0.028 H 
BRANCH  58  61
ATOM     61  C   UNL A   1      39.931  24.707  26.563  1.00  0.00     0.018 C 
ATOM     62  H   UNL A   1      40.320  25.475  25.928  1.00  0.00     0.049 H 
ATOM     63  H   UNL A   1      38.934  24.440  26.283  1.00  0.00     0.049 H 
BRANCH  61  64
ATOM     64  N   UNL A   1      40.766  23.523  26.434  1.00  0.00    -0.352 N 
ATOM     65  C   UNL A   1      42.107  23.414  26.170  1.00  0.00     0.251 C 
ATOM     66  H   UNL A   1      40.295  22.667  26.555  1.00  0.00     0.163 HD
ATOM     67  O   UNL A   1      42.585  22.320  25.865  1.00  0.00    -0.269 OA
BRANCH  65  68
ATOM     68  C   UNL A   1      42.987  24.599  26.238  1.00  0.00     0.039 A 
ATOM     69  C   UNL A   1      43.627  24.898  27.445  1.00  0.00    -0.049 A 
ATOM     70  C   UNL A   1      43.147  25.441  25.134  1.00  0.00    -0.049 A 
ATOM     71  C   UNL A   1      44.473  26.007  27.527  1.00  0.00    -0.053 A 
ATOM     72  H   UNL A   1      43.475  24.302  28.273  1.00  0.00     0.063 H 
ATOM     73  C   UNL A   1      44.041  26.509  25.199  1.00  0.00    -0.053 A 
ATOM     74  H   UNL A   1      42.605  25.272  24.273  1.00  0.00     0.063 H 
ATOM     75  C   UNL A   1      44.711  26.804  26.396  1.00  0.00    -0.014 A 
ATOM     76  H   UNL A   1      44.925  26.241  28.425  1.00  0.00     0.063 H 
ATOM     77  H   UNL A   1      44.210  27.086  24.361  1.00  0.00     0.063 H 
BRANCH  75  78
ATOM     78  C   UNL A   1      45.659  27.947  26.445  1.00  0.00     0.031 A 
ATOM     79  C   UNL A   1      47.135  27.716  26.276  1.00  0.00     0.074 A 
ATOM     80  C   UNL A   1      45.195  29.185  26.705  1.00  0.00     0.049 A 
ATOM     81  N   UNL A   1      48.124  28.569  26.371  1.00  0.00    -0.248 NA
ATOM     82  C   UNL A   1      47.559  26.337  25.986  1.00  0.00    -0.034 C 
ATOM     83  C   UNL A   1      43.791  29.530  26.931  1.00  0.00    -0.036 A 
ATOM     84  N   UNL A   1      45.856  30.379  26.841  1.00  0.00    -0.354 N 
ATOM     85  C   UNL A   1      49.282  27.832  26.161  1.00  0.00     0.074 A 
ATOM     86  C   UNL A   1      48.880  26.453  25.988  1.00  0.00    -0.034 C 
ATOM     87  H   UNL A   1      46.980  25.498  25.824  1.00  0.00     0.065 H 
ATOM     88  C   UNL A   1      43.694  30.848  27.166  1.00  0.00    -0.036 A 
ATOM     89  H   UNL A   1      43.001  28.865  26.912  1.00  0.00     0.065 H 
ATOM     90  C   UNL A   1      45.031  31.435  27.144  1.00  0.00     0.049 A 
ATOM     91  H   UNL A   1      46.830  30.473  26.730  1.00  0.00     0.167 HD
ATOM     92  C   UNL A   1      50.562  28.270  26.095  1.00  0.00     0.037 A 
ATOM     93  H   UNL A   1      49.535  25.664  25.879  1.00  0.00     0.065 H 
ATOM     94  H   UNL A   1      42.816  31.363  27.335  1.00  0.00     0.065 H 
ATOM     95  C   UNL A   1      45.320  32.726  27.393  1.00  0.00     0.037 A 
ATOM     96  C   UNL A   1      50.959  29.646  26.251  1.00  0.00     0.049 A 
ATOM     97  C   UNL A   1      46.752  33.185  27.321  1.00  0.00     0.074 A 
ATOM     98  C   UNL A   1      52.225  30.195  26.160  1.00  0.00    -0.036 A 
ATOM     99  N   UNL A   1      50.090  30.690  26.530  1.00  0.00    -0.354 N 
ATOM    100  N   UNL A   1      47.832  32.488  27.063  1.00  0.00    -0.248 NA
ATOM    101  C   UNL A   1      47.004  34.612  27.566  1.00  0.00    -0.034 C 
ATOM    102  C   UNL A   1      52.129  31.566  26.425  1.00  0.00    -0.036 A 
ATOM    103  H   UNL A   1      53.093  29.683  25.935  1.00  0.00     0.065 H 
ATOM    104  C   UNL A   1      50.795  31.878  26.631  1.00  0.00     0.049 A 
ATOM    105  H   UNL A   1      49.115  30.601  26.641  1.00  0.00     0.167 HD
ATOM    106  C   UNL A   1      48.885  33.392  27.090  1.00  0.00     0.074 A 
ATOM    107  C   UNL A   1      48.312  34.692  27.370  1.00  0.00    -0.034 C 
ATOM    108  H   UNL A   1      46.337  35.356  27.825  1.00  0.00     0.065 H 
ATOM    109  H   UNL A   1      52.917  32.230  26.459  1.00  0.00     0.065 H 
ATOM    110  C   UNL A   1      50.208  33.166  26.901  1.00  0.00     0.037 A 
ATOM    111  H   UNL A   1      48.854  35.569  27.412  1.00  0.00     0.065 H 
BRANCH  92 112
ATOM    112  C   UNL A   1      51.633  27.252  25.830  1.00  0.00     0.064 A 
ATOM    113  C   UNL A   1      51.967  26.864  24.523  1.00  0.00     0.173 A 
ATOM    114  C   UNL A   1      52.367  26.693  26.888  1.00  0.00     0.173 A 
ATOM    115  F   UNL A   1      51.289  27.361  23.478  1.00  0.00    -0.203 F 
ATOM    116  C   UNL A   1      52.978  25.936  24.287  1.00  0.00     0.198 A 
ATOM    117  C   UNL A   1      53.397  25.788  26.645  1.00  0.00     0.198 A 
ATOM    118  F   UNL A   1      52.093  27.034  28.156  1.00  0.00    -0.203 F 
ATOM    119  F   UNL A   1      53.250  25.548  23.033  1.00  0.00    -0.200 F 
ATOM    120  C   UNL A   1      53.698  25.405  25.347  1.00  0.00     0.200 A 
ATOM    121  F   UNL A   1      54.101  25.286  27.670  1.00  0.00    -0.200 F 
ATOM    122  F   UNL A   1      54.677  24.521  25.117  1.00  0.00    -0.200 F 
ENDBRANCH  92 112
BRANCH  95 123
ATOM    123  C   UNL A   1      44.231  33.683  27.721  1.00  0.00     0.064 A 
ATOM    124  C   UNL A   1      43.656  33.712  29.000  1.00  0.00     0.173 A 
ATOM    125  C   UNL A   1      43.732  34.576  26.762  1.00  0.00     0.173 A 
ATOM    126  F   UNL A   1      44.086  32.864  29.946  1.00  0.00    -0.203 F 
ATOM    127  C   UNL A   1      42.608  34.580  29.299  1.00  0.00     0.198 A 
ATOM    128  C   UNL A   1      42.704  35.465  27.072  1.00  0.00     0.198 A 
ATOM    129  F   UNL A   1      44.251  34.595  25.526  1.00  0.00    -0.203 F 
ATOM    130  F   UNL A   1      42.044  34.551  30.514  1.00  0.00    -0.200 F 
ATOM    131  C   UNL A   1      42.137  35.459  28.336  1.00  0.00     0.200 A 
ATOM    132  F   UNL A   1      42.262  36.323  26.142  1.00  0.00    -0.200 F 
ATOM    133  F   UNL A   1      41.128  36.294  28.624  1.00  0.00    -0.200 F 
ENDBRANCH  95 123
BRANCH 110 134
ATOM    134  C   UNL A   1      51.124  34.354  26.957  1.00  0.00     0.064 A 
ATOM    135  C   UNL A   1      51.360  35.154  25.830  1.00  0.00     0.173 A 
ATOM    136  C   UNL A   1      51.743  34.716  28.162  1.00  0.00     0.173 A 
ATOM    137  F   UNL A   1      50.804  34.841  24.649  1.00  0.00    -0.203 F 
ATOM    138  C   UNL A   1      52.202  36.261  25.903  1.00  0.00     0.198 A 
ATOM    139  C   UNL A   1      52.561  35.840  28.239  1.00  0.00     0.198 A 
ATOM    140  F   UNL A   1      51.545  33.986  29.270  1.00  0.00    -0.203 F 
ATOM    141  F   UNL A   1      52.452  36.984  24.802  1.00  0.00    -0.200 F 
ATOM    142  C   UNL A   1      52.795  36.607  27.108  1.00  0.00     0.200 A 
ATOM    143  F   UNL A   1      53.122  36.180  29.407  1.00  0.00    -0.200 F 
ATOM    144  F   UNL A   1      53.600  37.676  27.177  1.00  0.00    -0.200 F 
ENDBRANCH 110 134
ENDBRANCH  75  78
ENDBRANCH  65  68
ENDBRANCH  61  64
ENDBRANCH  58  61
ENDBRANCH  55  58
ENDBRANCH  52  55
ENDBRANCH   1  52
TORSDOF 22
ENDMDL
