MODEL 1
REMARK VINA RESULT:     -13.4      0.000      0.000
REMARK SMILES C[C@@H](C(=O)NCCCCCCNC(=O)c1ccc(-c2c3nc(c(-c4c(F)c(F)c(F)c(F)c4F)c4ccc([nH]4)c(-c4c(F)c(F)c(F)c(F)c4F)c4nc(c(-c5c(F)c(F)c(F)c(F)c5F)c5ccc2[nH]5)C=C4)C=C3)cc1)c1ccc2c3cc(Cl)ccc3n(C(=O)c3cocn3)c2c1
REMARK SMILES IDX 8 1 7 4 6 7 5 10 3 11 4 12 2 14 1 16 78 20 79 21 98 22 80 23
REMARK SMILES IDX 97 25 81 27 89 29 82 30 88 31 83 32 87 33 84 34 86 36 85 38
REMARK SMILES IDX 90 40 91 41 92 42 93 43 96 44 94 45 95 47 9 49 10 52 11 55
REMARK SMILES IDX 12 58 13 59 14 61 15 62 16 63 77 64 17 65 76 67 18 69 19 72
REMARK SMILES IDX 20 73 70 74 21 75 75 76 69 77 71 78 22 79 74 80 68 82 67 84
REMARK SMILES IDX 23 86 55 89 35 90 54 91 36 92 39 93 53 94 72 95 37 96 38 98
REMARK SMILES IDX 52 100 73 101 40 104 24 106 25 107 33 108 26 109 27 110
REMARK SMILES IDX 31 111 34 112 28 113 29 114 32 115 30 116 56 117 57 118
REMARK SMILES IDX 65 119 58 120 59 121 63 122 66 123 60 124 61 125 64 126
REMARK SMILES IDX 62 127 41 128 42 129 50 130 43 131 44 132 48 133 51 134
REMARK SMILES IDX 45 135 46 136 49 137 47 138
REMARK H PARENT 8 2 8 3 7 5 7 6 6 8 6 9 5 13 2 15 1 17 1 18 1 19 79 24 98 26
REMARK H PARENT 80 28 83 35 87 37 86 39 93 46 95 48 9 50 9 51 10 53 10 54
REMARK H PARENT 11 56 11 57 12 60 16 66 77 68 17 70 76 71 75 81 69 83 71 85
REMARK H PARENT 74 87 68 88 36 97 39 99 72 102 37 103 73 105
REMARK Flexibility Score: inf
ROOT
ATOM      1  C   UNL A   1      32.357  30.014  26.902  1.00  0.00    -0.052 C 
ATOM      2  H   UNL A   1      33.245  29.819  26.337  1.00  0.00     0.027 H 
ATOM      3  H   UNL A   1      32.541  30.554  27.807  1.00  0.00     0.027 H 
ENDROOT
BRANCH   1   4
ATOM      4  C   UNL A   1      31.754  28.666  27.322  1.00  0.00    -0.036 C 
ATOM      5  H   UNL A   1      32.481  28.137  27.903  1.00  0.00     0.028 H 
ATOM      6  H   UNL A   1      30.864  28.881  27.876  1.00  0.00     0.028 H 
BRANCH   4   7
ATOM      7  C   UNL A   1      31.341  27.778  26.147  1.00  0.00     0.017 C 
ATOM      8  H   UNL A   1      30.616  28.293  25.554  1.00  0.00     0.049 H 
ATOM      9  H   UNL A   1      32.207  27.555  25.558  1.00  0.00     0.049 H 
BRANCH   7  10
ATOM     10  N   UNL A   1      30.772  26.542  26.630  1.00  0.00    -0.356 N 
ATOM     11  C   UNL A   1      30.636  25.341  26.006  1.00  0.00     0.227 C 
ATOM     12  O   UNL A   1      29.991  24.485  26.614  1.00  0.00    -0.274 OA
ATOM     13  H   UNL A   1      30.431  26.574  27.553  1.00  0.00     0.163 HD
BRANCH  11  14
ATOM     14  C   UNL A   1      31.320  25.098  24.645  1.00  0.00     0.060 C 
ATOM     15  H   UNL A   1      31.423  26.068  24.205  1.00  0.00     0.045 H 
BRANCH  14  16
ATOM     16  C   UNL A   1      30.488  24.234  23.687  1.00  0.00    -0.049 C 
ATOM     17  H   UNL A   1      31.131  23.802  22.948  1.00  0.00     0.024 H 
ATOM     18  H   UNL A   1      29.751  24.842  23.208  1.00  0.00     0.024 H 
ATOM     19  H   UNL A   1      30.005  23.455  24.239  1.00  0.00     0.024 H 
ENDBRANCH  14  16
BRANCH  14  20
ATOM     20  C   UNL A   1      32.688  24.452  24.827  1.00  0.00    -0.034 A 
ATOM     21  C   UNL A   1      33.817  25.213  25.124  1.00  0.00    -0.057 A 
ATOM     22  C   UNL A   1      32.807  23.060  24.689  1.00  0.00    -0.033 A 
ATOM     23  C   UNL A   1      35.057  24.595  25.323  1.00  0.00    -0.052 A 
ATOM     24  H   UNL A   1      33.738  26.239  25.200  1.00  0.00     0.063 H 
ATOM     25  C   UNL A   1      34.062  22.451  24.829  1.00  0.00     0.058 A 
ATOM     26  H   UNL A   1      31.973  22.486  24.488  1.00  0.00     0.065 H 
ATOM     27  C   UNL A   1      35.178  23.194  25.188  1.00  0.00     0.008 A 
ATOM     28  H   UNL A   1      35.883  25.163  25.569  1.00  0.00     0.063 H 
ATOM     29  N   UNL A   1      34.431  21.109  24.689  1.00  0.00    -0.274 N 
ATOM     30  C   UNL A   1      36.258  22.281  25.325  1.00  0.00     0.009 A 
ATOM     31  C   UNL A   1      35.803  21.006  24.957  1.00  0.00     0.057 A 
ATOM     32  C   UNL A   1      37.610  22.463  25.688  1.00  0.00    -0.033 A 
ATOM     33  C   UNL A   1      36.708  19.935  24.831  1.00  0.00    -0.036 A 
ATOM     34  C   UNL A   1      38.489  21.388  25.611  1.00  0.00     0.041 A 
ATOM     35  H   UNL A   1      37.943  23.387  26.007  1.00  0.00     0.065 H 
ATOM     36  C   UNL A   1      38.052  20.146  25.168  1.00  0.00    -0.041 A 
ATOM     37  H   UNL A   1      36.389  19.012  24.495  1.00  0.00     0.065 H 
ATOM     38  Cl  UNL A   1      40.143  21.617  26.029  1.00  0.00    -0.084 Cl
ATOM     39  H   UNL A   1      38.726  19.369  25.087  1.00  0.00     0.064 H 
BRANCH  29  40
ATOM     40  C   UNL A   1      33.535  20.094  24.259  1.00  0.00     0.284 C 
ATOM     41  O   UNL A   1      32.710  20.439  23.407  1.00  0.00    -0.266 OA
BRANCH  40  42
ATOM     42  C   UNL A   1      33.496  18.726  24.766  1.00  0.00     0.167 A 
ATOM     43  C   UNL A   1      32.732  18.182  25.777  1.00  0.00     0.124 A 
ATOM     44  N   UNL A   1      34.196  17.694  24.149  1.00  0.00    -0.211 NA
ATOM     45  O   UNL A   1      32.951  16.835  25.810  1.00  0.00    -0.451 OA
ATOM     46  H   UNL A   1      32.101  18.706  26.404  1.00  0.00     0.107 H 
ATOM     47  C   UNL A   1      33.825  16.616  24.793  1.00  0.00     0.181 A 
ATOM     48  H   UNL A   1      34.171  15.674  24.548  1.00  0.00     0.127 H 
ENDBRANCH  40  42
ENDBRANCH  29  40
ENDBRANCH  14  20
ENDBRANCH  11  14
ENDBRANCH   7  10
ENDBRANCH   4   7
ENDBRANCH   1   4
BRANCH   1  49
ATOM     49  C   UNL A   1      31.436  30.895  26.053  1.00  0.00    -0.052 C 
ATOM     50  H   UNL A   1      30.461  30.454  26.053  1.00  0.00     0.027 H 
ATOM     51  H   UNL A   1      31.877  30.942  25.079  1.00  0.00     0.027 H 
BRANCH  49  52
ATOM     52  C   UNL A   1      31.306  32.339  26.539  1.00  0.00    -0.036 C 
ATOM     53  H   UNL A   1      30.486  32.390  27.224  1.00  0.00     0.028 H 
ATOM     54  H   UNL A   1      31.159  32.944  25.669  1.00  0.00     0.028 H 
BRANCH  52  55
ATOM     55  C   UNL A   1      32.546  32.875  27.240  1.00  0.00     0.018 C 
ATOM     56  H   UNL A   1      33.383  32.788  26.577  1.00  0.00     0.049 H 
ATOM     57  H   UNL A   1      32.699  32.301  28.130  1.00  0.00     0.049 H 
BRANCH  55  58
ATOM     58  N   UNL A   1      32.393  34.267  27.622  1.00  0.00    -0.352 N 
ATOM     59  C   UNL A   1      33.004  34.956  28.639  1.00  0.00     0.251 C 
ATOM     60  H   UNL A   1      31.763  34.788  27.075  1.00  0.00     0.163 HD
ATOM     61  O   UNL A   1      32.608  36.070  28.954  1.00  0.00    -0.269 OA
BRANCH  59  62
ATOM     62  C   UNL A   1      34.139  34.343  29.362  1.00  0.00     0.039 A 
ATOM     63  C   UNL A   1      35.431  34.531  28.867  1.00  0.00    -0.049 A 
ATOM     64  C   UNL A   1      33.930  33.559  30.501  1.00  0.00    -0.049 A 
ATOM     65  C   UNL A   1      36.515  33.949  29.526  1.00  0.00    -0.053 A 
ATOM     66  H   UNL A   1      35.584  35.098  28.018  1.00  0.00     0.063 H 
ATOM     67  C   UNL A   1      35.016  33.049  31.203  1.00  0.00    -0.053 A 
ATOM     68  H   UNL A   1      32.969  33.358  30.820  1.00  0.00     0.063 H 
ATOM     69  C   UNL A   1      36.317  33.212  30.705  1.00  0.00    -0.014 A 
ATOM     70  H   UNL A   1      37.468  34.059  29.143  1.00  0.00     0.063 H 
ATOM     71  H   UNL A   1      34.865  32.549  32.093  1.00  0.00     0.063 H 
BRANCH  69  72
ATOM     72  C   UNL A   1      37.456  32.554  31.393  1.00  0.00     0.031 A 
ATOM     73  C   UNL A   1      38.178  31.417  30.722  1.00  0.00     0.074 A 
ATOM     74  C   UNL A   1      37.815  32.951  32.628  1.00  0.00     0.049 A 
ATOM     75  N   UNL A   1      39.177  30.694  31.161  1.00  0.00    -0.248 NA
ATOM     76  C   UNL A   1      37.694  31.020  29.390  1.00  0.00    -0.034 C 
ATOM     77  C   UNL A   1      37.164  34.010  33.399  1.00  0.00    -0.036 A 
ATOM     78  N   UNL A   1      38.820  32.509  33.452  1.00  0.00    -0.354 N 
ATOM     79  C   UNL A   1      39.423  29.749  30.172  1.00  0.00     0.074 A 
ATOM     80  C   UNL A   1      38.433  29.950  29.139  1.00  0.00    -0.034 C 
ATOM     81  H   UNL A   1      36.967  31.459  28.805  1.00  0.00     0.065 H 
ATOM     82  C   UNL A   1      37.805  34.158  34.569  1.00  0.00    -0.036 A 
ATOM     83  H   UNL A   1      36.343  34.556  33.093  1.00  0.00     0.065 H 
ATOM     84  C   UNL A   1      38.891  33.184  34.645  1.00  0.00     0.049 A 
ATOM     85  H   UNL A   1      39.431  31.775  33.210  1.00  0.00     0.167 HD
ATOM     86  C   UNL A   1      40.403  28.816  30.119  1.00  0.00     0.037 A 
ATOM     87  H   UNL A   1      38.317  29.340  28.314  1.00  0.00     0.065 H 
ATOM     88  H   UNL A   1      37.569  34.849  35.299  1.00  0.00     0.065 H 
ATOM     89  C   UNL A   1      39.741  33.036  35.678  1.00  0.00     0.037 A 
ATOM     90  C   UNL A   1      41.409  28.645  31.134  1.00  0.00     0.049 A 
ATOM     91  C   UNL A   1      40.829  31.998  35.588  1.00  0.00     0.074 A 
ATOM     92  C   UNL A   1      42.484  27.774  31.146  1.00  0.00    -0.036 A 
ATOM     93  N   UNL A   1      41.461  29.363  32.320  1.00  0.00    -0.354 N 
ATOM     94  N   UNL A   1      41.099  31.161  34.616  1.00  0.00    -0.248 NA
ATOM     95  C   UNL A   1      41.740  31.897  36.736  1.00  0.00    -0.034 C 
ATOM     96  C   UNL A   1      43.158  27.931  32.362  1.00  0.00    -0.036 A 
ATOM     97  H   UNL A   1      42.743  27.123  30.390  1.00  0.00     0.065 H 
ATOM     98  C   UNL A   1      42.539  28.942  33.080  1.00  0.00     0.049 A 
ATOM     99  H   UNL A   1      40.826  30.069  32.581  1.00  0.00     0.167 HD
ATOM    100  C   UNL A   1      42.232  30.464  35.015  1.00  0.00     0.074 A 
ATOM    101  C   UNL A   1      42.604  30.985  36.315  1.00  0.00    -0.034 C 
ATOM    102  H   UNL A   1      41.714  32.404  37.634  1.00  0.00     0.065 H 
ATOM    103  H   UNL A   1      43.978  27.386  32.671  1.00  0.00     0.065 H 
ATOM    104  C   UNL A   1      42.906  29.485  34.364  1.00  0.00     0.037 A 
ATOM    105  H   UNL A   1      43.436  30.683  36.845  1.00  0.00     0.065 H 
BRANCH  86 106
ATOM    106  C   UNL A   1      40.432  27.907  28.922  1.00  0.00     0.064 A 
ATOM    107  C   UNL A   1      41.187  28.210  27.779  1.00  0.00     0.173 A 
ATOM    108  C   UNL A   1      39.713  26.702  28.929  1.00  0.00     0.173 A 
ATOM    109  F   UNL A   1      41.884  29.356  27.715  1.00  0.00    -0.203 F 
ATOM    110  C   UNL A   1      41.193  27.362  26.675  1.00  0.00     0.198 A 
ATOM    111  C   UNL A   1      39.749  25.838  27.837  1.00  0.00     0.198 A 
ATOM    112  F   UNL A   1      38.979  26.357  29.998  1.00  0.00    -0.203 F 
ATOM    113  F   UNL A   1      41.876  27.703  25.574  1.00  0.00    -0.200 F 
ATOM    114  C   UNL A   1      40.481  26.173  26.708  1.00  0.00     0.200 A 
ATOM    115  F   UNL A   1      39.072  24.682  27.876  1.00  0.00    -0.200 F 
ATOM    116  F   UNL A   1      40.492  25.355  25.648  1.00  0.00    -0.200 F 
ENDBRANCH  86 106
BRANCH  89 117
ATOM    117  C   UNL A   1      39.631  33.920  36.867  1.00  0.00     0.064 A 
ATOM    118  C   UNL A   1      38.877  33.531  37.984  1.00  0.00     0.173 A 
ATOM    119  C   UNL A   1      40.262  35.171  36.911  1.00  0.00     0.173 A 
ATOM    120  F   UNL A   1      38.239  32.352  37.982  1.00  0.00    -0.203 F 
ATOM    121  C   UNL A   1      38.737  34.370  39.087  1.00  0.00     0.198 A 
ATOM    122  C   UNL A   1      40.146  35.997  38.027  1.00  0.00     0.198 A 
ATOM    123  F   UNL A   1      41.001  35.588  35.872  1.00  0.00    -0.203 F 
ATOM    124  F   UNL A   1      37.968  33.994  40.118  1.00  0.00    -0.200 F 
ATOM    125  C   UNL A   1      39.376  35.601  39.110  1.00  0.00     0.200 A 
ATOM    126  F   UNL A   1      40.778  37.179  38.053  1.00  0.00    -0.200 F 
ATOM    127  F   UNL A   1      39.242  36.407  40.171  1.00  0.00    -0.200 F 
ENDBRANCH  89 117
BRANCH 104 128
ATOM    128  C   UNL A   1      44.150  28.954  35.016  1.00  0.00     0.064 A 
ATOM    129  C   UNL A   1      45.406  29.546  34.813  1.00  0.00     0.173 A 
ATOM    130  C   UNL A   1      44.076  27.851  35.882  1.00  0.00     0.173 A 
ATOM    131  F   UNL A   1      45.532  30.593  33.984  1.00  0.00    -0.203 F 
ATOM    132  C   UNL A   1      46.546  29.032  35.424  1.00  0.00     0.198 A 
ATOM    133  C   UNL A   1      45.213  27.362  36.519  1.00  0.00     0.198 A 
ATOM    134  F   UNL A   1      42.899  27.254  36.118  1.00  0.00    -0.203 F 
ATOM    135  F   UNL A   1      47.744  29.577  35.170  1.00  0.00    -0.200 F 
ATOM    136  C   UNL A   1      46.448  27.945  36.282  1.00  0.00     0.200 A 
ATOM    137  F   UNL A   1      45.114  26.322  37.359  1.00  0.00    -0.200 F 
ATOM    138  F   UNL A   1      47.546  27.455  36.873  1.00  0.00    -0.200 F 
ENDBRANCH 104 128
ENDBRANCH  69  72
ENDBRANCH  59  62
ENDBRANCH  55  58
ENDBRANCH  52  55
ENDBRANCH  49  52
ENDBRANCH   1  49
TORSDOF 17
ENDMDL
MODEL 2
REMARK VINA RESULT:     -13.3      0.743      7.001
REMARK SMILES C[C@@H](C(=O)NCCCCCCNC(=O)c1ccc(-c2c3nc(c(-c4c(F)c(F)c(F)c(F)c4F)c4ccc([nH]4)c(-c4c(F)c(F)c(F)c(F)c4F)c4nc(c(-c5c(F)c(F)c(F)c(F)c5F)c5ccc2[nH]5)C=C4)C=C3)cc1)c1ccc2c3cc(Cl)ccc3n(C(=O)c3cocn3)c2c1
REMARK SMILES IDX 8 1 7 4 6 7 5 10 3 11 4 12 2 14 1 16 78 20 79 21 98 22 80 23
REMARK SMILES IDX 97 25 81 27 89 29 82 30 88 31 83 32 87 33 84 34 86 36 85 38
REMARK SMILES IDX 90 40 91 41 92 42 93 43 96 44 94 45 95 47 9 49 10 52 11 55
REMARK SMILES IDX 12 58 13 59 14 61 15 62 16 63 77 64 17 65 76 67 18 69 19 72
REMARK SMILES IDX 20 73 70 74 21 75 75 76 69 77 71 78 22 79 74 80 68 82 67 84
REMARK SMILES IDX 23 86 55 89 35 90 54 91 36 92 39 93 53 94 72 95 37 96 38 98
REMARK SMILES IDX 52 100 73 101 40 104 24 106 25 107 33 108 26 109 27 110
REMARK SMILES IDX 31 111 34 112 28 113 29 114 32 115 30 116 56 117 57 118
REMARK SMILES IDX 65 119 58 120 59 121 63 122 66 123 60 124 61 125 64 126
REMARK SMILES IDX 62 127 41 128 42 129 50 130 43 131 44 132 48 133 51 134
REMARK SMILES IDX 45 135 46 136 49 137 47 138
REMARK H PARENT 8 2 8 3 7 5 7 6 6 8 6 9 5 13 2 15 1 17 1 18 1 19 79 24 98 26
REMARK H PARENT 80 28 83 35 87 37 86 39 93 46 95 48 9 50 9 51 10 53 10 54
REMARK H PARENT 11 56 11 57 12 60 16 66 77 68 17 70 76 71 75 81 69 83 71 85
REMARK H PARENT 74 87 68 88 36 97 39 99 72 102 37 103 73 105
REMARK Flexibility Score: inf
ROOT
ATOM      1  C   UNL A   1      32.533  29.978  27.247  1.00  0.00    -0.052 C 
ATOM      2  H   UNL A   1      33.515  30.266  26.934  1.00  0.00     0.027 H 
ATOM      3  H   UNL A   1      32.311  30.263  28.254  1.00  0.00     0.027 H 
ENDROOT
BRANCH   1   4
ATOM      4  C   UNL A   1      32.448  28.446  27.205  1.00  0.00    -0.036 C 
ATOM      5  H   UNL A   1      33.407  28.062  26.923  1.00  0.00     0.028 H 
ATOM      6  H   UNL A   1      32.148  28.124  28.180  1.00  0.00     0.028 H 
BRANCH   4   7
ATOM      7  C   UNL A   1      31.407  27.909  26.221  1.00  0.00     0.017 C 
ATOM      8  H   UNL A   1      30.620  28.625  26.114  1.00  0.00     0.049 H 
ATOM      9  H   UNL A   1      31.879  27.738  25.275  1.00  0.00     0.049 H 
BRANCH   7  10
ATOM     10  N   UNL A   1      30.859  26.665  26.704  1.00  0.00    -0.356 N 
ATOM     11  C   UNL A   1      30.743  25.462  26.079  1.00  0.00     0.227 C 
ATOM     12  O   UNL A   1      30.112  24.595  26.687  1.00  0.00    -0.274 OA
ATOM     13  H   UNL A   1      30.517  26.690  27.626  1.00  0.00     0.163 HD
BRANCH  11  14
ATOM     14  C   UNL A   1      31.431  25.229  24.719  1.00  0.00     0.060 C 
ATOM     15  H   UNL A   1      31.557  26.205  24.297  1.00  0.00     0.045 H 
BRANCH  14  16
ATOM     16  C   UNL A   1      30.589  24.401  23.739  1.00  0.00    -0.049 C 
ATOM     17  H   UNL A   1      29.641  24.876  23.594  1.00  0.00     0.024 H 
ATOM     18  H   UNL A   1      30.439  23.420  24.139  1.00  0.00     0.024 H 
ATOM     19  H   UNL A   1      31.100  24.329  22.802  1.00  0.00     0.024 H 
ENDBRANCH  14  16
BRANCH  14  20
ATOM     20  C   UNL A   1      32.784  24.552  24.897  1.00  0.00    -0.034 A 
ATOM     21  C   UNL A   1      33.928  25.285  25.210  1.00  0.00    -0.057 A 
ATOM     22  C   UNL A   1      32.874  23.160  24.741  1.00  0.00    -0.033 A 
ATOM     23  C   UNL A   1      35.153  24.638  25.406  1.00  0.00    -0.052 A 
ATOM     24  H   UNL A   1      33.870  26.312  25.299  1.00  0.00     0.063 H 
ATOM     25  C   UNL A   1      34.116  22.523  24.878  1.00  0.00     0.058 A 
ATOM     26  H   UNL A   1      32.030  22.607  24.528  1.00  0.00     0.065 H 
ATOM     27  C   UNL A   1      35.246  23.237  25.252  1.00  0.00     0.008 A 
ATOM     28  H   UNL A   1      35.990  25.185  25.663  1.00  0.00     0.063 H 
ATOM     29  N   UNL A   1      34.456  21.176  24.721  1.00  0.00    -0.274 N 
ATOM     30  C   UNL A   1      36.306  22.300  25.381  1.00  0.00     0.009 A 
ATOM     31  C   UNL A   1      35.825  21.039  24.994  1.00  0.00     0.057 A 
ATOM     32  C   UNL A   1      37.659  22.448  25.752  1.00  0.00    -0.033 A 
ATOM     33  C   UNL A   1      36.708  19.951  24.857  1.00  0.00    -0.036 A 
ATOM     34  C   UNL A   1      38.516  21.355  25.664  1.00  0.00     0.041 A 
ATOM     35  H   UNL A   1      38.010  23.360  26.085  1.00  0.00     0.065 H 
ATOM     36  C   UNL A   1      38.054  20.130  25.203  1.00  0.00    -0.041 A 
ATOM     37  H   UNL A   1      36.370  19.040  24.508  1.00  0.00     0.065 H 
ATOM     38  Cl  UNL A   1      40.172  21.544  26.092  1.00  0.00    -0.084 Cl
ATOM     39  H   UNL A   1      38.711  19.339  25.114  1.00  0.00     0.064 H 
BRANCH  29  40
ATOM     40  C   UNL A   1      33.541  20.186  24.274  1.00  0.00     0.284 C 
ATOM     41  O   UNL A   1      32.716  20.564  23.437  1.00  0.00    -0.266 OA
BRANCH  40  42
ATOM     42  C   UNL A   1      33.484  18.806  24.748  1.00  0.00     0.167 A 
ATOM     43  C   UNL A   1      32.718  18.250  25.750  1.00  0.00     0.124 A 
ATOM     44  N   UNL A   1      34.164  17.779  24.101  1.00  0.00    -0.211 NA
ATOM     45  O   UNL A   1      32.916  16.899  25.749  1.00  0.00    -0.451 OA
ATOM     46  H   UNL A   1      32.099  18.768  26.394  1.00  0.00     0.107 H 
ATOM     47  C   UNL A   1      33.780  16.692  24.721  1.00  0.00     0.181 A 
ATOM     48  H   UNL A   1      34.109  15.751  24.450  1.00  0.00     0.127 H 
ENDBRANCH  40  42
ENDBRANCH  29  40
ENDBRANCH  14  20
ENDBRANCH  11  14
ENDBRANCH   7  10
ENDBRANCH   4   7
ENDBRANCH   1   4
BRANCH   1  49
ATOM     49  C   UNL A   1      31.518  30.705  26.359  1.00  0.00    -0.052 C 
ATOM     50  H   UNL A   1      30.558  30.264  26.522  1.00  0.00     0.027 H 
ATOM     51  H   UNL A   1      31.866  30.597  25.353  1.00  0.00     0.027 H 
BRANCH  49  52
ATOM     52  C   UNL A   1      31.403  32.208  26.618  1.00  0.00    -0.036 C 
ATOM     53  H   UNL A   1      30.701  32.359  27.411  1.00  0.00     0.028 H 
ATOM     54  H   UNL A   1      31.093  32.656  25.697  1.00  0.00     0.028 H 
BRANCH  52  55
ATOM     55  C   UNL A   1      32.714  32.876  27.008  1.00  0.00     0.018 C 
ATOM     56  H   UNL A   1      33.313  33.001  26.130  1.00  0.00     0.049 H 
ATOM     57  H   UNL A   1      33.205  32.251  27.724  1.00  0.00     0.049 H 
BRANCH  55  58
ATOM     58  N   UNL A   1      32.498  34.175  27.619  1.00  0.00    -0.352 N 
ATOM     59  C   UNL A   1      33.075  34.707  28.744  1.00  0.00     0.251 C 
ATOM     60  H   UNL A   1      31.848  34.754  27.160  1.00  0.00     0.163 HD
ATOM     61  O   UNL A   1      32.630  35.734  29.238  1.00  0.00    -0.269 OA
BRANCH  59  62
ATOM     62  C   UNL A   1      34.233  34.029  29.366  1.00  0.00     0.039 A 
ATOM     63  C   UNL A   1      35.519  34.469  29.047  1.00  0.00    -0.049 A 
ATOM     64  C   UNL A   1      34.056  32.945  30.230  1.00  0.00    -0.049 A 
ATOM     65  C   UNL A   1      36.627  33.834  29.611  1.00  0.00    -0.053 A 
ATOM     66  H   UNL A   1      35.651  35.261  28.397  1.00  0.00     0.063 H 
ATOM     67  C   UNL A   1      35.154  32.367  30.855  1.00  0.00    -0.053 A 
ATOM     68  H   UNL A   1      33.108  32.573  30.403  1.00  0.00     0.063 H 
ATOM     69  C   UNL A   1      36.453  32.784  30.528  1.00  0.00    -0.014 A 
ATOM     70  H   UNL A   1      37.579  34.136  29.351  1.00  0.00     0.063 H 
ATOM     71  H   UNL A   1      35.015  31.628  31.562  1.00  0.00     0.063 H 
BRANCH  69  72
ATOM     72  C   UNL A   1      37.621  32.074  31.104  1.00  0.00     0.031 A 
ATOM     73  C   UNL A   1      38.083  32.403  32.498  1.00  0.00     0.074 A 
ATOM     74  C   UNL A   1      38.286  31.165  30.367  1.00  0.00     0.049 A 
ATOM     75  N   UNL A   1      39.093  31.917  33.174  1.00  0.00    -0.248 NA
ATOM     76  C   UNL A   1      37.325  33.438  33.220  1.00  0.00    -0.034 C 
ATOM     77  C   UNL A   1      37.962  30.794  28.989  1.00  0.00    -0.036 A 
ATOM     78  N   UNL A   1      39.374  30.387  30.675  1.00  0.00    -0.354 N 
ATOM     79  C   UNL A   1      39.103  32.601  34.384  1.00  0.00     0.074 A 
ATOM     80  C   UNL A   1      38.037  33.576  34.327  1.00  0.00    -0.034 C 
ATOM     81  H   UNL A   1      36.463  33.929  32.936  1.00  0.00     0.065 H 
ATOM     82  C   UNL A   1      38.811  29.837  28.582  1.00  0.00    -0.036 A 
ATOM     83  H   UNL A   1      37.203  31.202  28.421  1.00  0.00     0.065 H 
ATOM     84  C   UNL A   1      39.758  29.551  29.656  1.00  0.00     0.049 A 
ATOM     85  H   UNL A   1      39.835  30.426  31.543  1.00  0.00     0.167 HD
ATOM     86  C   UNL A   1      39.910  32.414  35.455  1.00  0.00     0.037 A 
ATOM     87  H   UNL A   1      37.855  34.285  35.054  1.00  0.00     0.065 H 
ATOM     88  H   UNL A   1      38.797  29.377  27.657  1.00  0.00     0.065 H 
ATOM     89  C   UNL A   1      40.758  28.651  29.601  1.00  0.00     0.037 A 
ATOM     90  C   UNL A   1      40.945  31.417  35.519  1.00  0.00     0.049 A 
ATOM     91  C   UNL A   1      41.634  28.455  30.810  1.00  0.00     0.074 A 
ATOM     92  C   UNL A   1      41.775  31.100  36.581  1.00  0.00    -0.036 A 
ATOM     93  N   UNL A   1      41.291  30.572  34.474  1.00  0.00    -0.354 N 
ATOM     94  N   UNL A   1      41.586  29.053  31.976  1.00  0.00    -0.248 NA
ATOM     95  C   UNL A   1      42.694  27.444  30.700  1.00  0.00    -0.034 C 
ATOM     96  C   UNL A   1      42.656  30.098  36.161  1.00  0.00    -0.036 A 
ATOM     97  H   UNL A   1      41.748  31.529  37.518  1.00  0.00     0.065 H 
ATOM     98  C   UNL A   1      42.336  29.748  34.859  1.00  0.00     0.049 A 
ATOM     99  H   UNL A   1      40.857  30.560  33.590  1.00  0.00     0.167 HD
ATOM    100  C   UNL A   1      42.578  28.466  32.749  1.00  0.00     0.074 A 
ATOM    101  C   UNL A   1      43.206  27.455  31.922  1.00  0.00    -0.034 C 
ATOM    102  H   UNL A   1      42.968  26.875  29.884  1.00  0.00     0.065 H 
ATOM    103  H   UNL A   1      43.417  29.689  36.726  1.00  0.00     0.065 H 
ATOM    104  C   UNL A   1      42.936  28.734  34.028  1.00  0.00     0.037 A 
ATOM    105  H   UNL A   1      43.956  26.825  32.244  1.00  0.00     0.065 H 
BRANCH  86 106
ATOM    106  C   UNL A   1      39.704  33.309  36.644  1.00  0.00     0.064 A 
ATOM    107  C   UNL A   1      40.389  34.526  36.783  1.00  0.00     0.173 A 
ATOM    108  C   UNL A   1      38.789  32.958  37.648  1.00  0.00     0.173 A 
ATOM    109  F   UNL A   1      41.284  34.906  35.857  1.00  0.00    -0.203 F 
ATOM    110  C   UNL A   1      40.194  35.339  37.897  1.00  0.00     0.198 A 
ATOM    111  C   UNL A   1      38.570  33.789  38.744  1.00  0.00     0.198 A 
ATOM    112  F   UNL A   1      38.101  31.809  37.565  1.00  0.00    -0.203 F 
ATOM    113  F   UNL A   1      40.904  36.467  38.034  1.00  0.00    -0.200 F 
ATOM    114  C   UNL A   1      39.280  34.973  38.872  1.00  0.00     0.200 A 
ATOM    115  F   UNL A   1      37.675  33.441  39.679  1.00  0.00    -0.200 F 
ATOM    116  F   UNL A   1      39.089  35.758  39.941  1.00  0.00    -0.200 F 
ENDBRANCH  86 106
BRANCH  89 117
ATOM    117  C   UNL A   1      40.959  27.833  28.376  1.00  0.00     0.064 A 
ATOM    118  C   UNL A   1      40.308  26.601  28.222  1.00  0.00     0.173 A 
ATOM    119  C   UNL A   1      41.809  28.255  27.345  1.00  0.00     0.173 A 
ATOM    120  F   UNL A   1      39.499  26.145  29.189  1.00  0.00    -0.203 F 
ATOM    121  C   UNL A   1      40.520  25.810  27.096  1.00  0.00     0.198 A 
ATOM    122  C   UNL A   1      41.998  27.477  26.204  1.00  0.00     0.198 A 
ATOM    123  F   UNL A   1      42.450  29.429  27.440  1.00  0.00    -0.203 F 
ATOM    124  F   UNL A   1      39.925  24.613  26.998  1.00  0.00    -0.200 F 
ATOM    125  C   UNL A   1      41.362  26.251  26.085  1.00  0.00     0.200 A 
ATOM    126  F   UNL A   1      42.799  27.913  25.223  1.00  0.00    -0.200 F 
ATOM    127  F   UNL A   1      41.565  25.490  25.001  1.00  0.00    -0.200 F 
ENDBRANCH  89 117
BRANCH 104 128
ATOM    128  C   UNL A   1      44.015  27.884  34.636  1.00  0.00     0.064 A 
ATOM    129  C   UNL A   1      43.732  26.660  35.262  1.00  0.00     0.173 A 
ATOM    130  C   UNL A   1      45.357  28.290  34.562  1.00  0.00     0.173 A 
ATOM    131  F   UNL A   1      42.465  26.235  35.370  1.00  0.00    -0.203 F 
ATOM    132  C   UNL A   1      44.749  25.892  35.822  1.00  0.00     0.198 A 
ATOM    133  C   UNL A   1      46.374  27.501  35.092  1.00  0.00     0.198 A 
ATOM    134  F   UNL A   1      45.683  29.445  33.966  1.00  0.00    -0.203 F 
ATOM    135  F   UNL A   1      44.449  24.756  36.467  1.00  0.00    -0.200 F 
ATOM    136  C   UNL A   1      46.069  26.309  35.731  1.00  0.00     0.200 A 
ATOM    137  F   UNL A   1      47.650  27.899  34.989  1.00  0.00    -0.200 F 
ATOM    138  F   UNL A   1      47.047  25.566  36.267  1.00  0.00    -0.200 F 
ENDBRANCH 104 128
ENDBRANCH  69  72
ENDBRANCH  59  62
ENDBRANCH  55  58
ENDBRANCH  52  55
ENDBRANCH  49  52
ENDBRANCH   1  49
TORSDOF 17
ENDMDL
MODEL 3
REMARK VINA RESULT:     -13.1      5.249     10.321
REMARK SMILES C[C@@H](C(=O)NCCCCCCNC(=O)c1ccc(-c2c3nc(c(-c4c(F)c(F)c(F)c(F)c4F)c4ccc([nH]4)c(-c4c(F)c(F)c(F)c(F)c4F)c4nc(c(-c5c(F)c(F)c(F)c(F)c5F)c5ccc2[nH]5)C=C4)C=C3)cc1)c1ccc2c3cc(Cl)ccc3n(C(=O)c3cocn3)c2c1
REMARK SMILES IDX 8 1 7 4 6 7 5 10 3 11 4 12 2 14 1 16 78 20 79 21 98 22 80 23
REMARK SMILES IDX 97 25 81 27 89 29 82 30 88 31 83 32 87 33 84 34 86 36 85 38
REMARK SMILES IDX 90 40 91 41 92 42 93 43 96 44 94 45 95 47 9 49 10 52 11 55
REMARK SMILES IDX 12 58 13 59 14 61 15 62 16 63 77 64 17 65 76 67 18 69 19 72
REMARK SMILES IDX 20 73 70 74 21 75 75 76 69 77 71 78 22 79 74 80 68 82 67 84
REMARK SMILES IDX 23 86 55 89 35 90 54 91 36 92 39 93 53 94 72 95 37 96 38 98
REMARK SMILES IDX 52 100 73 101 40 104 24 106 25 107 33 108 26 109 27 110
REMARK SMILES IDX 31 111 34 112 28 113 29 114 32 115 30 116 56 117 57 118
REMARK SMILES IDX 65 119 58 120 59 121 63 122 66 123 60 124 61 125 64 126
REMARK SMILES IDX 62 127 41 128 42 129 50 130 43 131 44 132 48 133 51 134
REMARK SMILES IDX 45 135 46 136 49 137 47 138
REMARK H PARENT 8 2 8 3 7 5 7 6 6 8 6 9 5 13 2 15 1 17 1 18 1 19 79 24 98 26
REMARK H PARENT 80 28 83 35 87 37 86 39 93 46 95 48 9 50 9 51 10 53 10 54
REMARK H PARENT 11 56 11 57 12 60 16 66 77 68 17 70 76 71 75 81 69 83 71 85
REMARK H PARENT 74 87 68 88 36 97 39 99 72 102 37 103 73 105
REMARK Flexibility Score: inf
ROOT
ATOM      1  C   UNL A   1      37.914  21.610  25.023  1.00  0.00    -0.052 C 
ATOM      2  H   UNL A   1      38.319  21.642  26.013  1.00  0.00     0.027 H 
ATOM      3  H   UNL A   1      38.608  21.924  24.272  1.00  0.00     0.027 H 
ENDROOT
BRANCH   1   4
ATOM      4  C   UNL A   1      36.735  22.591  24.957  1.00  0.00    -0.036 C 
ATOM      5  H   UNL A   1      36.564  22.980  25.940  1.00  0.00     0.028 H 
ATOM      6  H   UNL A   1      37.004  23.353  24.256  1.00  0.00     0.028 H 
BRANCH   4   7
ATOM      7  C   UNL A   1      35.433  21.965  24.455  1.00  0.00     0.017 C 
ATOM      8  H   UNL A   1      35.582  20.917  24.303  1.00  0.00     0.049 H 
ATOM      9  H   UNL A   1      34.666  22.126  25.184  1.00  0.00     0.049 H 
BRANCH   7  10
ATOM     10  N   UNL A   1      35.033  22.575  23.210  1.00  0.00    -0.356 N 
ATOM     11  C   UNL A   1      33.841  23.124  22.850  1.00  0.00     0.227 C 
ATOM     12  O   UNL A   1      33.735  23.462  21.670  1.00  0.00    -0.274 OA
ATOM     13  H   UNL A   1      35.730  22.599  22.514  1.00  0.00     0.163 HD
BRANCH  11  14
ATOM     14  C   UNL A   1      32.743  23.345  23.911  1.00  0.00     0.060 C 
ATOM     15  H   UNL A   1      32.917  22.596  24.655  1.00  0.00     0.045 H 
BRANCH  14  16
ATOM     16  C   UNL A   1      31.321  23.147  23.370  1.00  0.00    -0.049 C 
ATOM     17  H   UNL A   1      31.331  23.226  22.303  1.00  0.00     0.024 H 
ATOM     18  H   UNL A   1      30.677  23.898  23.777  1.00  0.00     0.024 H 
ATOM     19  H   UNL A   1      30.963  22.180  23.653  1.00  0.00     0.024 H 
ENDBRANCH  14  16
BRANCH  14  20
ATOM     20  C   UNL A   1      32.846  24.736  24.525  1.00  0.00    -0.034 A 
ATOM     21  C   UNL A   1      33.865  25.062  25.419  1.00  0.00    -0.057 A 
ATOM     22  C   UNL A   1      31.890  25.704  24.181  1.00  0.00    -0.033 A 
ATOM     23  C   UNL A   1      33.962  26.356  25.942  1.00  0.00    -0.052 A 
ATOM     24  H   UNL A   1      34.553  24.344  25.694  1.00  0.00     0.063 H 
ATOM     25  C   UNL A   1      31.955  26.982  24.755  1.00  0.00     0.058 A 
ATOM     26  H   UNL A   1      31.144  25.477  23.506  1.00  0.00     0.065 H 
ATOM     27  C   UNL A   1      33.002  27.333  25.595  1.00  0.00     0.008 A 
ATOM     28  H   UNL A   1      34.735  26.597  26.583  1.00  0.00     0.063 H 
ATOM     29  N   UNL A   1      31.100  28.078  24.606  1.00  0.00    -0.274 N 
ATOM     30  C   UNL A   1      32.821  28.700  25.936  1.00  0.00     0.009 A 
ATOM     31  C   UNL A   1      31.613  29.136  25.370  1.00  0.00     0.057 A 
ATOM     32  C   UNL A   1      33.579  29.585  26.733  1.00  0.00    -0.033 A 
ATOM     33  C   UNL A   1      31.093  30.405  25.690  1.00  0.00    -0.036 A 
ATOM     34  C   UNL A   1      33.084  30.857  27.003  1.00  0.00     0.041 A 
ATOM     35  H   UNL A   1      34.493  29.290  27.113  1.00  0.00     0.065 H 
ATOM     36  C   UNL A   1      31.849  31.255  26.508  1.00  0.00    -0.041 A 
ATOM     37  H   UNL A   1      30.173  30.702  25.329  1.00  0.00     0.065 H 
ATOM     38  Cl  UNL A   1      33.997  31.925  27.996  1.00  0.00    -0.084 Cl
ATOM     39  H   UNL A   1      31.484  32.191  26.745  1.00  0.00     0.064 H 
BRANCH  29  40
ATOM     40  C   UNL A   1      29.890  28.030  23.863  1.00  0.00     0.284 C 
ATOM     41  O   UNL A   1      29.175  27.046  24.076  1.00  0.00    -0.266 OA
BRANCH  40  42
ATOM     42  C   UNL A   1      29.464  29.010  22.869  1.00  0.00     0.167 A 
ATOM     43  C   UNL A   1      30.212  29.707  21.942  1.00  0.00     0.124 A 
ATOM     44  N   UNL A   1      28.120  29.284  22.636  1.00  0.00    -0.211 NA
ATOM     45  O   UNL A   1      29.362  30.418  21.146  1.00  0.00    -0.451 OA
ATOM     46  H   UNL A   1      31.241  29.692  21.865  1.00  0.00     0.107 H 
ATOM     47  C   UNL A   1      28.126  30.099  21.612  1.00  0.00     0.181 A 
ATOM     48  H   UNL A   1      27.259  30.471  21.191  1.00  0.00     0.127 H 
ENDBRANCH  40  42
ENDBRANCH  29  40
ENDBRANCH  14  20
ENDBRANCH  11  14
ENDBRANCH   7  10
ENDBRANCH   4   7
ENDBRANCH   1   4
BRANCH   1  49
ATOM     49  C   UNL A   1      37.560  20.155  24.701  1.00  0.00    -0.052 C 
ATOM     50  H   UNL A   1      37.578  20.035  23.639  1.00  0.00     0.027 H 
ATOM     51  H   UNL A   1      36.595  19.978  25.128  1.00  0.00     0.027 H 
BRANCH  49  52
ATOM     52  C   UNL A   1      38.501  19.117  25.315  1.00  0.00    -0.036 C 
ATOM     53  H   UNL A   1      38.866  18.489  24.529  1.00  0.00     0.028 H 
ATOM     54  H   UNL A   1      37.932  18.580  26.045  1.00  0.00     0.028 H 
BRANCH  52  55
ATOM     55  C   UNL A   1      39.696  19.713  26.044  1.00  0.00     0.018 C 
ATOM     56  H   UNL A   1      39.456  19.807  27.083  1.00  0.00     0.049 H 
ATOM     57  H   UNL A   1      39.908  20.668  25.610  1.00  0.00     0.049 H 
BRANCH  55  58
ATOM     58  N   UNL A   1      40.881  18.885  25.908  1.00  0.00    -0.352 N 
ATOM     59  C   UNL A   1      42.201  19.259  25.902  1.00  0.00     0.251 C 
ATOM     60  H   UNL A   1      40.713  17.921  25.807  1.00  0.00     0.163 HD
ATOM     61  O   UNL A   1      43.067  18.461  25.571  1.00  0.00    -0.269 OA
BRANCH  59  62
ATOM     62  C   UNL A   1      42.574  20.638  26.288  1.00  0.00     0.039 A 
ATOM     63  C   UNL A   1      42.583  20.976  27.643  1.00  0.00    -0.049 A 
ATOM     64  C   UNL A   1      42.880  21.600  25.321  1.00  0.00    -0.049 A 
ATOM     65  C   UNL A   1      42.918  22.275  28.028  1.00  0.00    -0.053 A 
ATOM     66  H   UNL A   1      42.343  20.269  28.356  1.00  0.00     0.063 H 
ATOM     67  C   UNL A   1      43.294  22.869  25.710  1.00  0.00    -0.053 A 
ATOM     68  H   UNL A   1      42.798  21.368  24.319  1.00  0.00     0.063 H 
ATOM     69  C   UNL A   1      43.287  23.229  27.065  1.00  0.00    -0.014 A 
ATOM     70  H   UNL A   1      42.893  22.537  29.026  1.00  0.00     0.063 H 
ATOM     71  H   UNL A   1      43.607  23.548  24.999  1.00  0.00     0.063 H 
BRANCH  69  72
ATOM     72  C   UNL A   1      43.606  24.624  27.457  1.00  0.00     0.031 A 
ATOM     73  C   UNL A   1      45.039  25.084  27.483  1.00  0.00     0.074 A 
ATOM     74  C   UNL A   1      42.619  25.462  27.824  1.00  0.00     0.049 A 
ATOM     75  N   UNL A   1      45.531  26.249  27.819  1.00  0.00    -0.248 NA
ATOM     76  C   UNL A   1      46.059  24.091  27.107  1.00  0.00    -0.034 C 
ATOM     77  C   UNL A   1      41.197  25.119  27.884  1.00  0.00    -0.036 A 
ATOM     78  N   UNL A   1      42.662  26.776  28.216  1.00  0.00    -0.354 N 
ATOM     79  C   UNL A   1      46.911  26.121  27.716  1.00  0.00     0.074 A 
ATOM     80  C   UNL A   1      47.182  24.751  27.345  1.00  0.00    -0.034 C 
ATOM     81  H   UNL A   1      45.932  23.131  26.751  1.00  0.00     0.065 H 
ATOM     82  C   UNL A   1      40.501  26.205  28.257  1.00  0.00    -0.036 A 
ATOM     83  H   UNL A   1      40.795  24.193  27.674  1.00  0.00     0.065 H 
ATOM     84  C   UNL A   1      41.427  27.308  28.494  1.00  0.00     0.049 A 
ATOM     85  H   UNL A   1      43.499  27.289  28.292  1.00  0.00     0.167 HD
ATOM     86  C   UNL A   1      47.864  27.068  27.889  1.00  0.00     0.037 A 
ATOM     87  H   UNL A   1      48.127  24.341  27.275  1.00  0.00     0.065 H 
ATOM     88  H   UNL A   1      39.474  26.252  28.360  1.00  0.00     0.065 H 
ATOM     89  C   UNL A   1      41.084  28.549  28.888  1.00  0.00     0.037 A 
ATOM     90  C   UNL A   1      47.585  28.440  28.222  1.00  0.00     0.049 A 
ATOM     91  C   UNL A   1      42.162  29.586  29.061  1.00  0.00     0.074 A 
ATOM     92  C   UNL A   1      48.472  29.494  28.355  1.00  0.00    -0.036 A 
ATOM     93  N   UNL A   1      46.318  28.947  28.474  1.00  0.00    -0.354 N 
ATOM     94  N   UNL A   1      43.457  29.475  28.888  1.00  0.00    -0.248 NA
ATOM     95  C   UNL A   1      41.726  30.928  29.472  1.00  0.00    -0.034 C 
ATOM     96  C   UNL A   1      47.747  30.628  28.737  1.00  0.00    -0.036 A 
ATOM     97  H   UNL A   1      49.490  29.450  28.200  1.00  0.00     0.065 H 
ATOM     98  C   UNL A   1      46.402  30.295  28.782  1.00  0.00     0.049 A 
ATOM     99  H   UNL A   1      45.483  28.426  28.439  1.00  0.00     0.167 HD
ATOM    100  C   UNL A   1      43.985  30.737  29.127  1.00  0.00     0.074 A 
ATOM    101  C   UNL A   1      42.868  31.601  29.448  1.00  0.00    -0.034 C 
ATOM    102  H   UNL A   1      40.780  31.259  29.715  1.00  0.00     0.065 H 
ATOM    103  H   UNL A   1      48.146  31.555  28.950  1.00  0.00     0.065 H 
ATOM    104  C   UNL A   1      45.277  31.145  29.081  1.00  0.00     0.037 A 
ATOM    105  H   UNL A   1      42.950  32.612  29.634  1.00  0.00     0.065 H 
BRANCH  86 106
ATOM    106  C   UNL A   1      49.297  26.649  27.721  1.00  0.00     0.064 A 
ATOM    107  C   UNL A   1      49.880  26.491  26.454  1.00  0.00     0.173 A 
ATOM    108  C   UNL A   1      50.108  26.427  28.845  1.00  0.00     0.173 A 
ATOM    109  F   UNL A   1      49.147  26.680  25.346  1.00  0.00    -0.203 F 
ATOM    110  C   UNL A   1      51.207  26.092  26.318  1.00  0.00     0.198 A 
ATOM    111  C   UNL A   1      51.445  26.062  28.705  1.00  0.00     0.198 A 
ATOM    112  F   UNL A   1      49.605  26.569  30.081  1.00  0.00    -0.203 F 
ATOM    113  F   UNL A   1      51.723  25.891  25.097  1.00  0.00    -0.200 F 
ATOM    114  C   UNL A   1      51.990  25.885  27.443  1.00  0.00     0.200 A 
ATOM    115  F   UNL A   1      52.204  25.876  29.794  1.00  0.00    -0.200 F 
ATOM    116  F   UNL A   1      53.268  25.507  27.311  1.00  0.00    -0.200 F 
ENDBRANCH  86 106
BRANCH  89 117
ATOM    117  C   UNL A   1      39.655  28.896  29.101  1.00  0.00     0.064 A 
ATOM    118  C   UNL A   1      39.066  28.765  30.367  1.00  0.00     0.173 A 
ATOM    119  C   UNL A   1      38.847  29.352  28.050  1.00  0.00     0.173 A 
ATOM    120  F   UNL A   1      39.791  28.315  31.399  1.00  0.00    -0.203 F 
ATOM    121  C   UNL A   1      37.717  29.051  30.566  1.00  0.00     0.198 A 
ATOM    122  C   UNL A   1      37.505  29.666  28.257  1.00  0.00     0.198 A 
ATOM    123  F   UNL A   1      39.364  29.501  26.821  1.00  0.00    -0.203 F 
ATOM    124  F   UNL A   1      37.167  28.868  31.775  1.00  0.00    -0.200 F 
ATOM    125  C   UNL A   1      36.939  29.506  29.512  1.00  0.00     0.200 A 
ATOM    126  F   UNL A   1      36.761  30.120  27.240  1.00  0.00    -0.200 F 
ATOM    127  F   UNL A   1      35.642  29.782  29.705  1.00  0.00    -0.200 F 
ENDBRANCH  89 117
BRANCH 104 128
ATOM    128  C   UNL A   1      45.548  32.602  29.323  1.00  0.00     0.064 A 
ATOM    129  C   UNL A   1      45.853  33.098  30.600  1.00  0.00     0.173 A 
ATOM    130  C   UNL A   1      45.532  33.510  28.253  1.00  0.00     0.173 A 
ATOM    131  F   UNL A   1      45.868  32.274  31.658  1.00  0.00    -0.203 F 
ATOM    132  C   UNL A   1      46.095  34.454  30.801  1.00  0.00     0.198 A 
ATOM    133  C   UNL A   1      45.810  34.859  28.452  1.00  0.00     0.198 A 
ATOM    134  F   UNL A   1      45.256  33.087  27.011  1.00  0.00    -0.203 F 
ATOM    135  F   UNL A   1      46.327  34.915  32.039  1.00  0.00    -0.200 F 
ATOM    136  C   UNL A   1      46.081  35.332  29.727  1.00  0.00     0.200 A 
ATOM    137  F   UNL A   1      45.810  35.703  27.411  1.00  0.00    -0.200 F 
ATOM    138  F   UNL A   1      46.319  36.636  29.922  1.00  0.00    -0.200 F 
ENDBRANCH 104 128
ENDBRANCH  69  72
ENDBRANCH  59  62
ENDBRANCH  55  58
ENDBRANCH  52  55
ENDBRANCH  49  52
ENDBRANCH   1  49
TORSDOF 17
ENDMDL
MODEL 4
REMARK VINA RESULT:     -12.9      5.340     11.338
REMARK SMILES C[C@@H](C(=O)NCCCCCCNC(=O)c1ccc(-c2c3nc(c(-c4c(F)c(F)c(F)c(F)c4F)c4ccc([nH]4)c(-c4c(F)c(F)c(F)c(F)c4F)c4nc(c(-c5c(F)c(F)c(F)c(F)c5F)c5ccc2[nH]5)C=C4)C=C3)cc1)c1ccc2c3cc(Cl)ccc3n(C(=O)c3cocn3)c2c1
REMARK SMILES IDX 8 1 7 4 6 7 5 10 3 11 4 12 2 14 1 16 78 20 79 21 98 22 80 23
REMARK SMILES IDX 97 25 81 27 89 29 82 30 88 31 83 32 87 33 84 34 86 36 85 38
REMARK SMILES IDX 90 40 91 41 92 42 93 43 96 44 94 45 95 47 9 49 10 52 11 55
REMARK SMILES IDX 12 58 13 59 14 61 15 62 16 63 77 64 17 65 76 67 18 69 19 72
REMARK SMILES IDX 20 73 70 74 21 75 75 76 69 77 71 78 22 79 74 80 68 82 67 84
REMARK SMILES IDX 23 86 55 89 35 90 54 91 36 92 39 93 53 94 72 95 37 96 38 98
REMARK SMILES IDX 52 100 73 101 40 104 24 106 25 107 33 108 26 109 27 110
REMARK SMILES IDX 31 111 34 112 28 113 29 114 32 115 30 116 56 117 57 118
REMARK SMILES IDX 65 119 58 120 59 121 63 122 66 123 60 124 61 125 64 126
REMARK SMILES IDX 62 127 41 128 42 129 50 130 43 131 44 132 48 133 51 134
REMARK SMILES IDX 45 135 46 136 49 137 47 138
REMARK H PARENT 8 2 8 3 7 5 7 6 6 8 6 9 5 13 2 15 1 17 1 18 1 19 79 24 98 26
REMARK H PARENT 80 28 83 35 87 37 86 39 93 46 95 48 9 50 9 51 10 53 10 54
REMARK H PARENT 11 56 11 57 12 60 16 66 77 68 17 70 76 71 75 81 69 83 71 85
REMARK H PARENT 74 87 68 88 36 97 39 99 72 102 37 103 73 105
REMARK Flexibility Score: inf
ROOT
ATOM      1  C   UNL A   1      37.334  21.760  24.919  1.00  0.00    -0.052 C 
ATOM      2  H   UNL A   1      37.906  21.950  25.804  1.00  0.00     0.027 H 
ATOM      3  H   UNL A   1      37.868  21.972  24.017  1.00  0.00     0.027 H 
ENDROOT
BRANCH   1   4
ATOM      4  C   UNL A   1      36.117  22.696  24.929  1.00  0.00    -0.036 C 
ATOM      5  H   UNL A   1      35.880  22.932  25.946  1.00  0.00     0.028 H 
ATOM      6  H   UNL A   1      36.385  23.560  24.358  1.00  0.00     0.028 H 
BRANCH   4   7
ATOM      7  C   UNL A   1      34.871  22.099  24.272  1.00  0.00     0.017 C 
ATOM      8  H   UNL A   1      35.049  21.070  24.046  1.00  0.00     0.049 H 
ATOM      9  H   UNL A   1      34.045  22.190  24.947  1.00  0.00     0.049 H 
BRANCH   7  10
ATOM     10  N   UNL A   1      34.561  22.808  23.053  1.00  0.00    -0.356 N 
ATOM     11  C   UNL A   1      33.431  23.475  22.695  1.00  0.00     0.227 C 
ATOM     12  O   UNL A   1      33.389  23.883  21.532  1.00  0.00    -0.274 OA
ATOM     13  H   UNL A   1      35.278  22.810  22.378  1.00  0.00     0.163 HD
BRANCH  11  14
ATOM     14  C   UNL A   1      32.323  23.731  23.737  1.00  0.00     0.060 C 
ATOM     15  H   UNL A   1      32.408  22.929  24.440  1.00  0.00     0.045 H 
BRANCH  14  16
ATOM     16  C   UNL A   1      30.907  23.692  23.148  1.00  0.00    -0.049 C 
ATOM     17  H   UNL A   1      30.201  23.980  23.899  1.00  0.00     0.024 H 
ATOM     18  H   UNL A   1      30.687  22.701  22.813  1.00  0.00     0.024 H 
ATOM     19  H   UNL A   1      30.845  24.369  22.322  1.00  0.00     0.024 H 
ENDBRANCH  14  16
BRANCH  14  20
ATOM     20  C   UNL A   1      32.528  25.070  24.436  1.00  0.00    -0.034 A 
ATOM     21  C   UNL A   1      33.521  25.243  25.399  1.00  0.00    -0.057 A 
ATOM     22  C   UNL A   1      31.694  26.147  24.099  1.00  0.00    -0.033 A 
ATOM     23  C   UNL A   1      33.714  26.490  26.002  1.00  0.00    -0.052 A 
ATOM     24  H   UNL A   1      34.117  24.445  25.668  1.00  0.00     0.063 H 
ATOM     25  C   UNL A   1      31.852  27.380  24.750  1.00  0.00     0.058 A 
ATOM     26  H   UNL A   1      30.969  26.034  23.374  1.00  0.00     0.065 H 
ATOM     27  C   UNL A   1      32.878  27.577  25.663  1.00  0.00     0.008 A 
ATOM     28  H   UNL A   1      34.469  26.617  26.695  1.00  0.00     0.063 H 
ATOM     29  N   UNL A   1      31.120  28.564  24.621  1.00  0.00    -0.274 N 
ATOM     30  C   UNL A   1      32.814  28.936  26.073  1.00  0.00     0.009 A 
ATOM     31  C   UNL A   1      31.690  29.522  25.471  1.00  0.00     0.057 A 
ATOM     32  C   UNL A   1      33.608  29.695  26.959  1.00  0.00    -0.033 A 
ATOM     33  C   UNL A   1      31.280  30.819  25.837  1.00  0.00    -0.036 A 
ATOM     34  C   UNL A   1      33.227  30.994  27.276  1.00  0.00     0.041 A 
ATOM     35  H   UNL A   1      34.465  29.288  27.368  1.00  0.00     0.065 H 
ATOM     36  C   UNL A   1      32.069  31.543  26.741  1.00  0.00    -0.041 A 
ATOM     37  H   UNL A   1      30.416  31.227  25.447  1.00  0.00     0.065 H 
ATOM     38  Cl  UNL A   1      34.182  31.910  28.377  1.00  0.00    -0.084 Cl
ATOM     39  H   UNL A   1      31.784  32.497  27.013  1.00  0.00     0.064 H 
BRANCH  29  40
ATOM     40  C   UNL A   1      29.956  28.679  23.814  1.00  0.00     0.284 C 
ATOM     41  O   UNL A   1      29.255  27.665  23.746  1.00  0.00    -0.266 OA
BRANCH  40  42
ATOM     42  C   UNL A   1      29.563  29.862  23.054  1.00  0.00     0.167 A 
ATOM     43  C   UNL A   1      29.719  30.138  21.711  1.00  0.00     0.124 A 
ATOM     44  N   UNL A   1      28.806  30.881  23.621  1.00  0.00    -0.211 NA
ATOM     45  O   UNL A   1      29.086  31.315  21.434  1.00  0.00    -0.451 OA
ATOM     46  H   UNL A   1      30.230  29.552  21.032  1.00  0.00     0.107 H 
ATOM     47  C   UNL A   1      28.548  31.690  22.625  1.00  0.00     0.181 A 
ATOM     48  H   UNL A   1      27.980  32.546  22.734  1.00  0.00     0.127 H 
ENDBRANCH  40  42
ENDBRANCH  29  40
ENDBRANCH  14  20
ENDBRANCH  11  14
ENDBRANCH   7  10
ENDBRANCH   4   7
ENDBRANCH   1   4
BRANCH   1  49
ATOM     49  C   UNL A   1      36.998  20.266  24.881  1.00  0.00    -0.052 C 
ATOM     50  H   UNL A   1      36.501  20.060  23.956  1.00  0.00     0.027 H 
ATOM     51  H   UNL A   1      36.389  20.072  25.739  1.00  0.00     0.027 H 
BRANCH  49  52
ATOM     52  C   UNL A   1      38.208  19.336  24.989  1.00  0.00    -0.036 C 
ATOM     53  H   UNL A   1      38.535  19.094  24.000  1.00  0.00     0.028 H 
ATOM     54  H   UNL A   1      37.887  18.478  25.542  1.00  0.00     0.028 H 
BRANCH  52  55
ATOM     55  C   UNL A   1      39.384  19.930  25.750  1.00  0.00     0.018 C 
ATOM     56  H   UNL A   1      39.045  20.261  26.709  1.00  0.00     0.049 H 
ATOM     57  H   UNL A   1      39.773  20.745  25.176  1.00  0.00     0.049 H 
BRANCH  55  58
ATOM     58  N   UNL A   1      40.451  18.963  25.937  1.00  0.00    -0.352 N 
ATOM     59  C   UNL A   1      41.794  19.180  26.109  1.00  0.00     0.251 C 
ATOM     60  H   UNL A   1      40.170  18.020  25.942  1.00  0.00     0.163 HD
ATOM     61  O   UNL A   1      42.583  18.247  26.046  1.00  0.00    -0.269 OA
BRANCH  59  62
ATOM     62  C   UNL A   1      42.289  20.552  26.360  1.00  0.00     0.039 A 
ATOM     63  C   UNL A   1      42.381  21.001  27.678  1.00  0.00    -0.049 A 
ATOM     64  C   UNL A   1      42.629  21.401  25.303  1.00  0.00    -0.049 A 
ATOM     65  C   UNL A   1      42.831  22.297  27.937  1.00  0.00    -0.053 A 
ATOM     66  H   UNL A   1      42.116  20.379  28.459  1.00  0.00     0.063 H 
ATOM     67  C   UNL A   1      43.155  22.660  25.564  1.00  0.00    -0.053 A 
ATOM     68  H   UNL A   1      42.487  21.093  24.327  1.00  0.00     0.063 H 
ATOM     69  C   UNL A   1      43.232  23.133  26.882  1.00  0.00    -0.014 A 
ATOM     70  H   UNL A   1      42.868  22.643  28.909  1.00  0.00     0.063 H 
ATOM     71  H   UNL A   1      43.491  23.250  24.786  1.00  0.00     0.063 H 
BRANCH  69  72
ATOM     72  C   UNL A   1      43.675  24.526  27.140  1.00  0.00     0.031 A 
ATOM     73  C   UNL A   1      42.686  25.543  27.643  1.00  0.00     0.074 A 
ATOM     74  C   UNL A   1      44.947  24.884  26.889  1.00  0.00     0.049 A 
ATOM     75  N   UNL A   1      42.862  26.813  27.906  1.00  0.00    -0.248 NA
ATOM     76  C   UNL A   1      41.305  25.077  27.851  1.00  0.00    -0.034 C 
ATOM     77  C   UNL A   1      45.986  24.001  26.357  1.00  0.00    -0.036 A 
ATOM     78  N   UNL A   1      45.585  26.089  27.048  1.00  0.00    -0.354 N 
ATOM     79  C   UNL A   1      41.617  27.297  28.287  1.00  0.00     0.074 A 
ATOM     80  C   UNL A   1      40.682  26.202  28.164  1.00  0.00    -0.034 C 
ATOM     81  H   UNL A   1      40.923  24.122  27.773  1.00  0.00     0.065 H 
ATOM     82  C   UNL A   1      47.138  24.684  26.266  1.00  0.00    -0.036 A 
ATOM     83  H   UNL A   1      45.854  23.012  26.095  1.00  0.00     0.065 H 
ATOM     84  C   UNL A   1      46.912  26.060  26.700  1.00  0.00     0.049 A 
ATOM     85  H   UNL A   1      45.132  26.898  27.380  1.00  0.00     0.167 HD
ATOM     86  C   UNL A   1      41.289  28.536  28.725  1.00  0.00     0.037 A 
ATOM     87  H   UNL A   1      39.663  26.287  28.303  1.00  0.00     0.065 H 
ATOM     88  H   UNL A   1      48.039  24.299  25.941  1.00  0.00     0.065 H 
ATOM     89  C   UNL A   1      47.841  27.033  26.735  1.00  0.00     0.037 A 
ATOM     90  C   UNL A   1      42.232  29.612  28.880  1.00  0.00     0.049 A 
ATOM     91  C   UNL A   1      47.453  28.399  27.238  1.00  0.00     0.074 A 
ATOM     92  C   UNL A   1      42.016  30.885  29.378  1.00  0.00    -0.036 A 
ATOM     93  N   UNL A   1      43.575  29.538  28.537  1.00  0.00    -0.354 N 
ATOM     94  N   UNL A   1      46.290  28.825  27.667  1.00  0.00    -0.248 NA
ATOM     95  C   UNL A   1      48.514  29.415  27.275  1.00  0.00    -0.034 C 
ATOM     96  C   UNL A   1      43.218  31.597  29.290  1.00  0.00    -0.036 A 
ATOM     97  H   UNL A   1      41.125  31.246  29.749  1.00  0.00     0.065 H 
ATOM     98  C   UNL A   1      44.196  30.749  28.794  1.00  0.00     0.049 A 
ATOM     99  H   UNL A   1      44.020  28.741  28.167  1.00  0.00     0.167 HD
ATOM    100  C   UNL A   1      46.487  30.142  28.063  1.00  0.00     0.074 A 
ATOM    101  C   UNL A   1      47.885  30.440  27.831  1.00  0.00    -0.034 C 
ATOM    102  H   UNL A   1      49.491  29.347  26.952  1.00  0.00     0.065 H 
ATOM    103  H   UNL A   1      43.352  32.586  29.550  1.00  0.00     0.065 H 
ATOM    104  C   UNL A   1      45.593  31.023  28.575  1.00  0.00     0.037 A 
ATOM    105  H   UNL A   1      48.335  31.338  28.068  1.00  0.00     0.065 H 
BRANCH  86 106
ATOM    106  C   UNL A   1      39.848  28.793  29.067  1.00  0.00     0.064 A 
ATOM    107  C   UNL A   1      38.933  29.261  28.111  1.00  0.00     0.173 A 
ATOM    108  C   UNL A   1      39.370  28.543  30.362  1.00  0.00     0.173 A 
ATOM    109  F   UNL A   1      39.339  29.527  26.860  1.00  0.00    -0.203 F 
ATOM    110  C   UNL A   1      37.603  29.503  28.448  1.00  0.00     0.198 A 
ATOM    111  C   UNL A   1      38.032  28.754  30.687  1.00  0.00     0.198 A 
ATOM    112  F   UNL A   1      40.200  28.089  31.314  1.00  0.00    -0.203 F 
ATOM    113  F   UNL A   1      36.763  30.006  27.533  1.00  0.00    -0.200 F 
ATOM    114  C   UNL A   1      37.153  29.243  29.733  1.00  0.00     0.200 A 
ATOM    115  F   UNL A   1      37.595  28.487  31.926  1.00  0.00    -0.200 F 
ATOM    116  F   UNL A   1      35.873  29.471  30.055  1.00  0.00    -0.200 F 
ENDBRANCH  86 106
BRANCH  89 117
ATOM    117  C   UNL A   1      49.241  26.744  26.327  1.00  0.00     0.064 A 
ATOM    118  C   UNL A   1      49.656  26.938  25.002  1.00  0.00     0.173 A 
ATOM    119  C   UNL A   1      50.186  26.260  27.242  1.00  0.00     0.173 A 
ATOM    120  F   UNL A   1      48.785  27.382  24.085  1.00  0.00    -0.203 F 
ATOM    121  C   UNL A   1      50.955  26.633  24.602  1.00  0.00     0.198 A 
ATOM    122  C   UNL A   1      51.493  25.983  26.848  1.00  0.00     0.198 A 
ATOM    123  F   UNL A   1      49.841  26.063  28.524  1.00  0.00    -0.203 F 
ATOM    124  F   UNL A   1      51.311  26.779  23.318  1.00  0.00    -0.200 F 
ATOM    125  C   UNL A   1      51.875  26.160  25.527  1.00  0.00     0.200 A 
ATOM    126  F   UNL A   1      52.383  25.541  27.747  1.00  0.00    -0.200 F 
ATOM    127  F   UNL A   1      53.124  25.868  25.142  1.00  0.00    -0.200 F 
ENDBRANCH  89 117
BRANCH 104 128
ATOM    128  C   UNL A   1      46.111  32.374  28.978  1.00  0.00     0.064 A 
ATOM    129  C   UNL A   1      46.622  32.621  30.261  1.00  0.00     0.173 A 
ATOM    130  C   UNL A   1      46.122  33.429  28.052  1.00  0.00     0.173 A 
ATOM    131  F   UNL A   1      46.621  31.650  31.186  1.00  0.00    -0.203 F 
ATOM    132  C   UNL A   1      47.091  33.884  30.613  1.00  0.00     0.198 A 
ATOM    133  C   UNL A   1      46.625  34.680  28.397  1.00  0.00     0.198 A 
ATOM    134  F   UNL A   1      45.654  33.244  26.810  1.00  0.00    -0.203 F 
ATOM    135  F   UNL A   1      47.520  34.112  31.862  1.00  0.00    -0.200 F 
ATOM    136  C   UNL A   1      47.099  34.910  29.679  1.00  0.00     0.200 A 
ATOM    137  F   UNL A   1      46.645  35.666  27.489  1.00  0.00    -0.200 F 
ATOM    138  F   UNL A   1      47.555  36.123  30.019  1.00  0.00    -0.200 F 
ENDBRANCH 104 128
ENDBRANCH  69  72
ENDBRANCH  59  62
ENDBRANCH  55  58
ENDBRANCH  52  55
ENDBRANCH  49  52
ENDBRANCH   1  49
TORSDOF 17
ENDMDL
MODEL 5
REMARK VINA RESULT:     -12.7      5.193     10.301
REMARK SMILES C[C@@H](C(=O)NCCCCCCNC(=O)c1ccc(-c2c3nc(c(-c4c(F)c(F)c(F)c(F)c4F)c4ccc([nH]4)c(-c4c(F)c(F)c(F)c(F)c4F)c4nc(c(-c5c(F)c(F)c(F)c(F)c5F)c5ccc2[nH]5)C=C4)C=C3)cc1)c1ccc2c3cc(Cl)ccc3n(C(=O)c3cocn3)c2c1
REMARK SMILES IDX 8 1 7 4 6 7 5 10 3 11 4 12 2 14 1 16 78 20 79 21 98 22 80 23
REMARK SMILES IDX 97 25 81 27 89 29 82 30 88 31 83 32 87 33 84 34 86 36 85 38
REMARK SMILES IDX 90 40 91 41 92 42 93 43 96 44 94 45 95 47 9 49 10 52 11 55
REMARK SMILES IDX 12 58 13 59 14 61 15 62 16 63 77 64 17 65 76 67 18 69 19 72
REMARK SMILES IDX 20 73 70 74 21 75 75 76 69 77 71 78 22 79 74 80 68 82 67 84
REMARK SMILES IDX 23 86 55 89 35 90 54 91 36 92 39 93 53 94 72 95 37 96 38 98
REMARK SMILES IDX 52 100 73 101 40 104 24 106 25 107 33 108 26 109 27 110
REMARK SMILES IDX 31 111 34 112 28 113 29 114 32 115 30 116 56 117 57 118
REMARK SMILES IDX 65 119 58 120 59 121 63 122 66 123 60 124 61 125 64 126
REMARK SMILES IDX 62 127 41 128 42 129 50 130 43 131 44 132 48 133 51 134
REMARK SMILES IDX 45 135 46 136 49 137 47 138
REMARK H PARENT 8 2 8 3 7 5 7 6 6 8 6 9 5 13 2 15 1 17 1 18 1 19 79 24 98 26
REMARK H PARENT 80 28 83 35 87 37 86 39 93 46 95 48 9 50 9 51 10 53 10 54
REMARK H PARENT 11 56 11 57 12 60 16 66 77 68 17 70 76 71 75 81 69 83 71 85
REMARK H PARENT 74 87 68 88 36 97 39 99 72 102 37 103 73 105
REMARK Flexibility Score: inf
ROOT
ATOM      1  C   UNL A   1      36.957  21.546  25.441  1.00  0.00    -0.052 C 
ATOM      2  H   UNL A   1      37.644  21.817  26.216  1.00  0.00     0.027 H 
ATOM      3  H   UNL A   1      37.043  22.158  24.567  1.00  0.00     0.027 H 
ENDROOT
BRANCH   1   4
ATOM      4  C   UNL A   1      35.532  21.754  25.972  1.00  0.00    -0.036 C 
ATOM      5  H   UNL A   1      35.424  21.193  26.877  1.00  0.00     0.028 H 
ATOM      6  H   UNL A   1      35.407  22.806  26.124  1.00  0.00     0.028 H 
BRANCH   4   7
ATOM      7  C   UNL A   1      34.437  21.313  24.999  1.00  0.00     0.017 C 
ATOM      8  H   UNL A   1      34.556  20.273  24.781  1.00  0.00     0.049 H 
ATOM      9  H   UNL A   1      33.481  21.487  25.449  1.00  0.00     0.049 H 
BRANCH   7  10
ATOM     10  N   UNL A   1      34.523  22.070  23.773  1.00  0.00    -0.356 N 
ATOM     11  C   UNL A   1      33.617  22.907  23.199  1.00  0.00     0.227 C 
ATOM     12  O   UNL A   1      33.903  23.326  22.075  1.00  0.00    -0.274 OA
ATOM     13  H   UNL A   1      35.367  21.966  23.278  1.00  0.00     0.163 HD
BRANCH  11  14
ATOM     14  C   UNL A   1      32.351  23.323  23.976  1.00  0.00     0.060 C 
ATOM     15  H   UNL A   1      32.245  22.593  24.751  1.00  0.00     0.045 H 
BRANCH  14  16
ATOM     16  C   UNL A   1      31.074  23.294  23.126  1.00  0.00    -0.049 C 
ATOM     17  H   UNL A   1      31.287  23.673  22.148  1.00  0.00     0.024 H 
ATOM     18  H   UNL A   1      30.324  23.901  23.588  1.00  0.00     0.024 H 
ATOM     19  H   UNL A   1      30.720  22.288  23.049  1.00  0.00     0.024 H 
ENDBRANCH  14  16
BRANCH  14  20
ATOM     20  C   UNL A   1      32.510  24.714  24.577  1.00  0.00    -0.034 A 
ATOM     21  C   UNL A   1      33.518  24.998  25.497  1.00  0.00    -0.057 A 
ATOM     22  C   UNL A   1      31.617  25.727  24.193  1.00  0.00    -0.033 A 
ATOM     23  C   UNL A   1      33.668  26.292  26.008  1.00  0.00    -0.052 A 
ATOM     24  H   UNL A   1      34.159  24.249  25.801  1.00  0.00     0.063 H 
ATOM     25  C   UNL A   1      31.733  27.007  24.754  1.00  0.00     0.058 A 
ATOM     26  H   UNL A   1      30.879  25.531  23.498  1.00  0.00     0.065 H 
ATOM     27  C   UNL A   1      32.772  27.314  25.621  1.00  0.00     0.008 A 
ATOM     28  H   UNL A   1      34.434  26.500  26.669  1.00  0.00     0.063 H 
ATOM     29  N   UNL A   1      30.942  28.145  24.567  1.00  0.00    -0.274 N 
ATOM     30  C   UNL A   1      32.654  28.693  25.941  1.00  0.00     0.009 A 
ATOM     31  C   UNL A   1      31.487  29.184  25.334  1.00  0.00     0.057 A 
ATOM     32  C   UNL A   1      33.434  29.546  26.750  1.00  0.00    -0.033 A 
ATOM     33  C   UNL A   1      31.027  30.483  25.623  1.00  0.00    -0.036 A 
ATOM     34  C   UNL A   1      33.000  30.846  26.990  1.00  0.00     0.041 A 
ATOM     35  H   UNL A   1      34.319  29.208  27.160  1.00  0.00     0.065 H 
ATOM     36  C   UNL A   1      31.803  31.302  26.454  1.00  0.00    -0.041 A 
ATOM     37  H   UNL A   1      30.134  30.823  25.232  1.00  0.00     0.065 H 
ATOM     38  Cl  UNL A   1      33.938  31.878  27.998  1.00  0.00    -0.084 Cl
ATOM     39  H   UNL A   1      31.481  32.259  26.669  1.00  0.00     0.064 H 
BRANCH  29  40
ATOM     40  C   UNL A   1      29.753  28.151  23.789  1.00  0.00     0.284 C 
ATOM     41  O   UNL A   1      29.037  27.152  23.906  1.00  0.00    -0.266 OA
BRANCH  40  42
ATOM     42  C   UNL A   1      29.351  29.204  22.861  1.00  0.00     0.167 A 
ATOM     43  C   UNL A   1      30.029  29.734  21.783  1.00  0.00     0.124 A 
ATOM     44  N   UNL A   1      28.073  29.753  22.883  1.00  0.00    -0.211 NA
ATOM     45  O   UNL A   1      29.203  30.611  21.141  1.00  0.00    -0.451 OA
ATOM     46  H   UNL A   1      30.997  29.505  21.509  1.00  0.00     0.107 H 
ATOM     47  C   UNL A   1      28.044  30.554  21.848  1.00  0.00     0.181 A 
ATOM     48  H   UNL A   1      27.206  31.100  21.590  1.00  0.00     0.127 H 
ENDBRANCH  40  42
ENDBRANCH  29  40
ENDBRANCH  14  20
ENDBRANCH  11  14
ENDBRANCH   7  10
ENDBRANCH   4   7
ENDBRANCH   1   4
BRANCH   1  49
ATOM     49  C   UNL A   1      37.278  20.115  24.999  1.00  0.00    -0.052 C 
ATOM     50  H   UNL A   1      36.802  19.943  24.058  1.00  0.00     0.027 H 
ATOM     51  H   UNL A   1      36.921  19.473  25.776  1.00  0.00     0.027 H 
BRANCH  49  52
ATOM     52  C   UNL A   1      38.770  19.815  24.841  1.00  0.00    -0.036 C 
ATOM     53  H   UNL A   1      39.218  20.619  24.295  1.00  0.00     0.028 H 
ATOM     54  H   UNL A   1      38.842  18.876  24.332  1.00  0.00     0.028 H 
BRANCH  52  55
ATOM     55  C   UNL A   1      39.517  19.656  26.157  1.00  0.00     0.018 C 
ATOM     56  H   UNL A   1      38.864  19.201  26.873  1.00  0.00     0.049 H 
ATOM     57  H   UNL A   1      39.828  20.627  26.481  1.00  0.00     0.049 H 
BRANCH  55  58
ATOM     58  N   UNL A   1      40.702  18.830  26.010  1.00  0.00    -0.352 N 
ATOM     59  C   UNL A   1      42.020  19.207  25.983  1.00  0.00     0.251 C 
ATOM     60  H   UNL A   1      40.535  17.865  25.917  1.00  0.00     0.163 HD
ATOM     61  O   UNL A   1      42.884  18.409  25.645  1.00  0.00    -0.269 OA
BRANCH  59  62
ATOM     62  C   UNL A   1      42.396  20.589  26.355  1.00  0.00     0.039 A 
ATOM     63  C   UNL A   1      42.449  20.928  27.708  1.00  0.00    -0.049 A 
ATOM     64  C   UNL A   1      42.660  21.552  25.378  1.00  0.00    -0.049 A 
ATOM     65  C   UNL A   1      42.786  22.231  28.081  1.00  0.00    -0.053 A 
ATOM     66  H   UNL A   1      42.239  20.221  28.430  1.00  0.00     0.063 H 
ATOM     67  C   UNL A   1      43.077  22.825  25.750  1.00  0.00    -0.053 A 
ATOM     68  H   UNL A   1      42.545  21.319  24.379  1.00  0.00     0.063 H 
ATOM     69  C   UNL A   1      43.114  23.186  27.105  1.00  0.00    -0.014 A 
ATOM     70  H   UNL A   1      42.794  22.493  29.079  1.00  0.00     0.063 H 
ATOM     71  H   UNL A   1      43.360  23.507  25.029  1.00  0.00     0.063 H 
BRANCH  69  72
ATOM     72  C   UNL A   1      43.435  24.585  27.485  1.00  0.00     0.031 A 
ATOM     73  C   UNL A   1      44.867  25.048  27.487  1.00  0.00     0.074 A 
ATOM     74  C   UNL A   1      42.451  25.422  27.862  1.00  0.00     0.049 A 
ATOM     75  N   UNL A   1      45.361  26.217  27.809  1.00  0.00    -0.248 NA
ATOM     76  C   UNL A   1      45.884  24.056  27.101  1.00  0.00    -0.034 C 
ATOM     77  C   UNL A   1      41.032  25.076  27.945  1.00  0.00    -0.036 A 
ATOM     78  N   UNL A   1      42.496  26.738  28.246  1.00  0.00    -0.354 N 
ATOM     79  C   UNL A   1      46.739  26.092  27.686  1.00  0.00     0.074 A 
ATOM     80  C   UNL A   1      47.009  24.720  27.319  1.00  0.00    -0.034 C 
ATOM     81  H   UNL A   1      45.755  23.094  26.752  1.00  0.00     0.065 H 
ATOM     82  C   UNL A   1      40.337  26.161  28.323  1.00  0.00    -0.036 A 
ATOM     83  H   UNL A   1      40.629  24.147  27.746  1.00  0.00     0.065 H 
ATOM     84  C   UNL A   1      41.264  27.269  28.540  1.00  0.00     0.049 A 
ATOM     85  H   UNL A   1      43.333  27.254  28.308  1.00  0.00     0.167 HD
ATOM     86  C   UNL A   1      47.692  27.042  27.840  1.00  0.00     0.037 A 
ATOM     87  H   UNL A   1      47.953  24.313  27.236  1.00  0.00     0.065 H 
ATOM     88  H   UNL A   1      39.313  26.206  28.440  1.00  0.00     0.065 H 
ATOM     89  C   UNL A   1      40.924  28.510  28.932  1.00  0.00     0.037 A 
ATOM     90  C   UNL A   1      47.414  28.415  28.170  1.00  0.00     0.049 A 
ATOM     91  C   UNL A   1      42.002  29.552  29.084  1.00  0.00     0.074 A 
ATOM     92  C   UNL A   1      48.300  29.472  28.284  1.00  0.00    -0.036 A 
ATOM     93  N   UNL A   1      46.150  28.921  28.438  1.00  0.00    -0.354 N 
ATOM     94  N   UNL A   1      43.294  29.443  28.892  1.00  0.00    -0.248 NA
ATOM     95  C   UNL A   1      41.568  30.894  29.494  1.00  0.00    -0.034 C 
ATOM     96  C   UNL A   1      47.578  30.606  28.671  1.00  0.00    -0.036 A 
ATOM     97  H   UNL A   1      49.316  29.431  28.114  1.00  0.00     0.065 H 
ATOM     98  C   UNL A   1      46.235  30.270  28.738  1.00  0.00     0.049 A 
ATOM     99  H   UNL A   1      45.316  28.397  28.418  1.00  0.00     0.167 HD
ATOM    100  C   UNL A   1      43.822  30.707  29.116  1.00  0.00     0.074 A 
ATOM    101  C   UNL A   1      42.707  31.570  29.449  1.00  0.00    -0.034 C 
ATOM    102  H   UNL A   1      40.625  31.224  29.749  1.00  0.00     0.065 H 
ATOM    103  H   UNL A   1      47.978  31.536  28.872  1.00  0.00     0.065 H 
ATOM    104  C   UNL A   1      45.112  31.118  29.048  1.00  0.00     0.037 A 
ATOM    105  H   UNL A   1      42.790  32.583  29.629  1.00  0.00     0.065 H 
BRANCH  86 106
ATOM    106  C   UNL A   1      49.124  26.626  27.653  1.00  0.00     0.064 A 
ATOM    107  C   UNL A   1      49.955  26.322  28.742  1.00  0.00     0.173 A 
ATOM    108  C   UNL A   1      49.666  26.506  26.365  1.00  0.00     0.173 A 
ATOM    109  F   UNL A   1      49.490  26.431  29.997  1.00  0.00    -0.203 F 
ATOM    110  C   UNL A   1      51.283  25.949  28.551  1.00  0.00     0.198 A 
ATOM    111  C   UNL A   1      50.985  26.099  26.175  1.00  0.00     0.198 A 
ATOM    112  F   UNL A   1      48.916  26.779  25.287  1.00  0.00    -0.203 F 
ATOM    113  F   UNL A   1      52.072  25.720  29.610  1.00  0.00    -0.200 F 
ATOM    114  C   UNL A   1      51.794  25.831  27.269  1.00  0.00     0.200 A 
ATOM    115  F   UNL A   1      51.473  25.971  24.934  1.00  0.00    -0.200 F 
ATOM    116  F   UNL A   1      53.070  25.466  27.086  1.00  0.00    -0.200 F 
ENDBRANCH  86 106
BRANCH  89 117
ATOM    117  C   UNL A   1      39.497  28.855  29.165  1.00  0.00     0.064 A 
ATOM    118  C   UNL A   1      38.688  29.309  28.113  1.00  0.00     0.173 A 
ATOM    119  C   UNL A   1      38.916  28.749  30.436  1.00  0.00     0.173 A 
ATOM    120  F   UNL A   1      39.203  29.444  26.883  1.00  0.00    -0.203 F 
ATOM    121  C   UNL A   1      37.360  29.670  28.330  1.00  0.00     0.198 A 
ATOM    122  C   UNL A   1      37.579  29.083  30.646  1.00  0.00     0.198 A 
ATOM    123  F   UNL A   1      39.644  28.313  31.475  1.00  0.00    -0.203 F 
ATOM    124  F   UNL A   1      36.625  30.150  27.318  1.00  0.00    -0.200 F 
ATOM    125  C   UNL A   1      36.805  29.553  29.596  1.00  0.00     0.200 A 
ATOM    126  F   UNL A   1      37.042  28.953  31.867  1.00  0.00    -0.200 F 
ATOM    127  F   UNL A   1      35.528  29.899  29.804  1.00  0.00    -0.200 F 
ENDBRANCH  89 117
BRANCH 104 128
ATOM    128  C   UNL A   1      45.383  32.577  29.279  1.00  0.00     0.064 A 
ATOM    129  C   UNL A   1      45.271  33.526  28.251  1.00  0.00     0.173 A 
ATOM    130  C   UNL A   1      45.733  33.035  30.560  1.00  0.00     0.173 A 
ATOM    131  F   UNL A   1      44.953  33.137  27.007  1.00  0.00    -0.203 F 
ATOM    132  C   UNL A   1      45.532  34.873  28.488  1.00  0.00     0.198 A 
ATOM    133  C   UNL A   1      45.959  34.388  30.801  1.00  0.00     0.198 A 
ATOM    134  F   UNL A   1      45.845  32.173  31.580  1.00  0.00    -0.203 F 
ATOM    135  F   UNL A   1      45.476  35.752  27.478  1.00  0.00    -0.200 F 
ATOM    136  C   UNL A   1      45.869  35.303  29.764  1.00  0.00     0.200 A 
ATOM    137  F   UNL A   1      46.269  34.804  32.036  1.00  0.00    -0.200 F 
ATOM    138  F   UNL A   1      46.116  36.600  29.991  1.00  0.00    -0.200 F 
ENDBRANCH 104 128
ENDBRANCH  69  72
ENDBRANCH  59  62
ENDBRANCH  55  58
ENDBRANCH  52  55
ENDBRANCH  49  52
ENDBRANCH   1  49
TORSDOF 17
ENDMDL
MODEL 6
REMARK VINA RESULT:     -12.5      1.171      7.156
REMARK SMILES C[C@@H](C(=O)NCCCCCCNC(=O)c1ccc(-c2c3nc(c(-c4c(F)c(F)c(F)c(F)c4F)c4ccc([nH]4)c(-c4c(F)c(F)c(F)c(F)c4F)c4nc(c(-c5c(F)c(F)c(F)c(F)c5F)c5ccc2[nH]5)C=C4)C=C3)cc1)c1ccc2c3cc(Cl)ccc3n(C(=O)c3cocn3)c2c1
REMARK SMILES IDX 8 1 7 4 6 7 5 10 3 11 4 12 2 14 1 16 78 20 79 21 98 22 80 23
REMARK SMILES IDX 97 25 81 27 89 29 82 30 88 31 83 32 87 33 84 34 86 36 85 38
REMARK SMILES IDX 90 40 91 41 92 42 93 43 96 44 94 45 95 47 9 49 10 52 11 55
REMARK SMILES IDX 12 58 13 59 14 61 15 62 16 63 77 64 17 65 76 67 18 69 19 72
REMARK SMILES IDX 20 73 70 74 21 75 75 76 69 77 71 78 22 79 74 80 68 82 67 84
REMARK SMILES IDX 23 86 55 89 35 90 54 91 36 92 39 93 53 94 72 95 37 96 38 98
REMARK SMILES IDX 52 100 73 101 40 104 24 106 25 107 33 108 26 109 27 110
REMARK SMILES IDX 31 111 34 112 28 113 29 114 32 115 30 116 56 117 57 118
REMARK SMILES IDX 65 119 58 120 59 121 63 122 66 123 60 124 61 125 64 126
REMARK SMILES IDX 62 127 41 128 42 129 50 130 43 131 44 132 48 133 51 134
REMARK SMILES IDX 45 135 46 136 49 137 47 138
REMARK H PARENT 8 2 8 3 7 5 7 6 6 8 6 9 5 13 2 15 1 17 1 18 1 19 79 24 98 26
REMARK H PARENT 80 28 83 35 87 37 86 39 93 46 95 48 9 50 9 51 10 53 10 54
REMARK H PARENT 11 56 11 57 12 60 16 66 77 68 17 70 76 71 75 81 69 83 71 85
REMARK H PARENT 74 87 68 88 36 97 39 99 72 102 37 103 73 105
REMARK Flexibility Score: inf
ROOT
ATOM      1  C   UNL A   1      32.686  29.718  26.094  1.00  0.00    -0.052 C 
ATOM      2  H   UNL A   1      33.531  30.371  26.169  1.00  0.00     0.027 H 
ATOM      3  H   UNL A   1      32.826  28.786  26.601  1.00  0.00     0.027 H 
ENDROOT
BRANCH   1   4
ATOM      4  C   UNL A   1      32.477  29.376  24.613  1.00  0.00    -0.036 C 
ATOM      5  H   UNL A   1      32.600  30.271  24.039  1.00  0.00     0.028 H 
ATOM      6  H   UNL A   1      33.198  28.625  24.362  1.00  0.00     0.028 H 
BRANCH   4   7
ATOM      7  C   UNL A   1      31.099  28.789  24.300  1.00  0.00     0.017 C 
ATOM      8  H   UNL A   1      30.856  28.049  25.032  1.00  0.00     0.049 H 
ATOM      9  H   UNL A   1      30.374  29.576  24.318  1.00  0.00     0.049 H 
BRANCH   7  10
ATOM     10  N   UNL A   1      31.101  28.182  22.990  1.00  0.00    -0.356 N 
ATOM     11  C   UNL A   1      31.096  26.868  22.638  1.00  0.00     0.227 C 
ATOM     12  O   UNL A   1      31.229  26.629  21.436  1.00  0.00    -0.274 OA
ATOM     13  H   UNL A   1      31.105  28.816  22.237  1.00  0.00     0.163 HD
BRANCH  11  14
ATOM     14  C   UNL A   1      30.871  25.783  23.710  1.00  0.00     0.060 C 
ATOM     15  H   UNL A   1      30.187  25.088  23.268  1.00  0.00     0.045 H 
BRANCH  14  16
ATOM     16  C   UNL A   1      30.230  26.317  24.998  1.00  0.00    -0.049 C 
ATOM     17  H   UNL A   1      29.389  25.708  25.257  1.00  0.00     0.024 H 
ATOM     18  H   UNL A   1      29.906  27.325  24.843  1.00  0.00     0.024 H 
ATOM     19  H   UNL A   1      30.947  26.291  25.791  1.00  0.00     0.024 H 
ENDBRANCH  14  16
BRANCH  14  20
ATOM     20  C   UNL A   1      32.178  25.084  24.066  1.00  0.00    -0.034 A 
ATOM     21  C   UNL A   1      33.310  25.807  24.440  1.00  0.00    -0.057 A 
ATOM     22  C   UNL A   1      32.237  23.683  24.012  1.00  0.00    -0.033 A 
ATOM     23  C   UNL A   1      34.488  25.143  24.797  1.00  0.00    -0.052 A 
ATOM     24  H   UNL A   1      33.277  26.838  24.453  1.00  0.00     0.063 H 
ATOM     25  C   UNL A   1      33.438  23.025  24.312  1.00  0.00     0.058 A 
ATOM     26  H   UNL A   1      31.398  23.139  23.755  1.00  0.00     0.065 H 
ATOM     27  C   UNL A   1      34.549  23.733  24.747  1.00  0.00     0.008 A 
ATOM     28  H   UNL A   1      35.314  25.685  25.098  1.00  0.00     0.063 H 
ATOM     29  N   UNL A   1      33.747  21.661  24.280  1.00  0.00    -0.274 N 
ATOM     30  C   UNL A   1      35.560  22.779  25.042  1.00  0.00     0.009 A 
ATOM     31  C   UNL A   1      35.078  21.508  24.694  1.00  0.00     0.057 A 
ATOM     32  C   UNL A   1      36.876  22.918  25.533  1.00  0.00    -0.033 A 
ATOM     33  C   UNL A   1      35.934  20.390  24.718  1.00  0.00    -0.036 A 
ATOM     34  C   UNL A   1      37.701  21.800  25.603  1.00  0.00     0.041 A 
ATOM     35  H   UNL A   1      37.224  23.841  25.837  1.00  0.00     0.065 H 
ATOM     36  C   UNL A   1      37.246  20.557  25.181  1.00  0.00    -0.041 A 
ATOM     37  H   UNL A   1      35.602  19.467  24.398  1.00  0.00     0.065 H 
ATOM     38  Cl  UNL A   1      39.314  21.974  26.178  1.00  0.00    -0.084 Cl
ATOM     39  H   UNL A   1      37.882  19.745  25.210  1.00  0.00     0.064 H 
BRANCH  29  40
ATOM     40  C   UNL A   1      32.847  20.666  23.813  1.00  0.00     0.284 C 
ATOM     41  O   UNL A   1      32.032  21.044  22.966  1.00  0.00    -0.266 OA
BRANCH  40  42
ATOM     42  C   UNL A   1      32.794  19.283  24.277  1.00  0.00     0.167 A 
ATOM     43  C   UNL A   1      33.199  18.126  23.646  1.00  0.00     0.124 A 
ATOM     44  N   UNL A   1      32.413  18.959  25.575  1.00  0.00    -0.211 NA
ATOM     45  O   UNL A   1      33.066  17.086  24.519  1.00  0.00    -0.451 OA
ATOM     46  H   UNL A   1      33.545  18.059  22.675  1.00  0.00     0.107 H 
ATOM     47  C   UNL A   1      32.607  17.667  25.659  1.00  0.00     0.181 A 
ATOM     48  H   UNL A   1      32.425  17.132  26.523  1.00  0.00     0.127 H 
ENDBRANCH  40  42
ENDBRANCH  29  40
ENDBRANCH  14  20
ENDBRANCH  11  14
ENDBRANCH   7  10
ENDBRANCH   4   7
ENDBRANCH   1   4
BRANCH   1  49
ATOM     49  C   UNL A   1      31.495  30.402  26.772  1.00  0.00    -0.052 C 
ATOM     50  H   UNL A   1      31.518  30.157  27.813  1.00  0.00     0.027 H 
ATOM     51  H   UNL A   1      30.618  30.044  26.274  1.00  0.00     0.027 H 
BRANCH  49  52
ATOM     52  C   UNL A   1      31.474  31.926  26.641  1.00  0.00    -0.036 C 
ATOM     53  H   UNL A   1      30.696  32.306  27.270  1.00  0.00     0.028 H 
ATOM     54  H   UNL A   1      31.314  32.143  25.605  1.00  0.00     0.028 H 
BRANCH  52  55
ATOM     55  C   UNL A   1      32.779  32.604  27.034  1.00  0.00     0.018 C 
ATOM     56  H   UNL A   1      33.408  32.669  26.170  1.00  0.00     0.049 H 
ATOM     57  H   UNL A   1      33.239  32.019  27.802  1.00  0.00     0.049 H 
BRANCH  55  58
ATOM     58  N   UNL A   1      32.558  33.940  27.556  1.00  0.00    -0.352 N 
ATOM     59  C   UNL A   1      33.144  34.554  28.634  1.00  0.00     0.251 C 
ATOM     60  H   UNL A   1      31.897  34.481  27.068  1.00  0.00     0.163 HD
ATOM     61  O   UNL A   1      32.696  35.609  29.062  1.00  0.00    -0.269 OA
BRANCH  59  62
ATOM     62  C   UNL A   1      34.317  33.931  29.285  1.00  0.00     0.039 A 
ATOM     63  C   UNL A   1      35.595  34.347  28.907  1.00  0.00    -0.049 A 
ATOM     64  C   UNL A   1      34.160  32.919  30.237  1.00  0.00    -0.049 A 
ATOM     65  C   UNL A   1      36.715  33.761  29.498  1.00  0.00    -0.053 A 
ATOM     66  H   UNL A   1      35.711  35.083  28.193  1.00  0.00     0.063 H 
ATOM     67  C   UNL A   1      35.273  32.396  30.885  1.00  0.00    -0.053 A 
ATOM     68  H   UNL A   1      33.218  32.560  30.459  1.00  0.00     0.063 H 
ATOM     69  C   UNL A   1      36.563  32.789  30.500  1.00  0.00    -0.014 A 
ATOM     70  H   UNL A   1      37.662  34.043  29.196  1.00  0.00     0.063 H 
ATOM     71  H   UNL A   1      35.150  31.716  31.652  1.00  0.00     0.063 H 
BRANCH  69  72
ATOM     72  C   UNL A   1      37.746  32.129  31.108  1.00  0.00     0.031 A 
ATOM     73  C   UNL A   1      38.184  32.514  32.495  1.00  0.00     0.074 A 
ATOM     74  C   UNL A   1      38.443  31.218  30.405  1.00  0.00     0.049 A 
ATOM     75  N   UNL A   1      39.201  32.078  33.195  1.00  0.00    -0.248 NA
ATOM     76  C   UNL A   1      37.390  33.548  33.178  1.00  0.00    -0.034 C 
ATOM     77  C   UNL A   1      38.144  30.796  29.036  1.00  0.00    -0.036 A 
ATOM     78  N   UNL A   1      39.549  30.481  30.746  1.00  0.00    -0.354 N 
ATOM     79  C   UNL A   1      39.179  32.798  34.383  1.00  0.00     0.074 A 
ATOM     80  C   UNL A   1      38.087  33.740  34.287  1.00  0.00    -0.034 C 
ATOM     81  H   UNL A   1      36.518  34.006  32.871  1.00  0.00     0.065 H 
ATOM     82  C   UNL A   1      39.023  29.851  28.666  1.00  0.00    -0.036 A 
ATOM     83  H   UNL A   1      37.379  31.165  28.449  1.00  0.00     0.065 H 
ATOM     84  C   UNL A   1      39.967  29.625  29.757  1.00  0.00     0.049 A 
ATOM     85  H   UNL A   1      40.001  30.559  31.617  1.00  0.00     0.167 HD
ATOM     86  C   UNL A   1      39.980  32.667  35.467  1.00  0.00     0.037 A 
ATOM     87  H   UNL A   1      37.879  34.465  34.990  1.00  0.00     0.065 H 
ATOM     88  H   UNL A   1      39.031  29.363  27.756  1.00  0.00     0.065 H 
ATOM     89  C   UNL A   1      40.992  28.753  29.739  1.00  0.00     0.037 A 
ATOM     90  C   UNL A   1      41.043  31.701  35.571  1.00  0.00     0.049 A 
ATOM     91  C   UNL A   1      41.861  28.618  30.962  1.00  0.00     0.074 A 
ATOM     92  C   UNL A   1      41.870  31.441  36.649  1.00  0.00    -0.036 A 
ATOM     93  N   UNL A   1      41.423  30.835  34.556  1.00  0.00    -0.354 N 
ATOM     94  N   UNL A   1      41.785  29.250  32.108  1.00  0.00    -0.248 NA
ATOM     95  C   UNL A   1      42.950  27.635  30.892  1.00  0.00    -0.034 C 
ATOM     96  C   UNL A   1      42.784  30.452  36.268  1.00  0.00    -0.036 A 
ATOM     97  H   UNL A   1      41.823  31.897  37.572  1.00  0.00     0.065 H 
ATOM     98  C   UNL A   1      42.486  30.054  34.974  1.00  0.00     0.049 A 
ATOM     99  H   UNL A   1      40.998  30.784  33.669  1.00  0.00     0.167 HD
ATOM    100  C   UNL A   1      42.786  28.715  32.907  1.00  0.00     0.074 A 
ATOM    101  C   UNL A   1      43.449  27.698  32.118  1.00  0.00    -0.034 C 
ATOM    102  H   UNL A   1      43.248  27.049  30.096  1.00  0.00     0.065 H 
ATOM    103  H   UNL A   1      43.550  30.082  36.852  1.00  0.00     0.065 H 
ATOM    104  C   UNL A   1      43.123  29.032  34.181  1.00  0.00     0.037 A 
ATOM    105  H   UNL A   1      44.214  27.100  32.465  1.00  0.00     0.065 H 
BRANCH  86 106
ATOM    106  C   UNL A   1      39.738  33.592  36.626  1.00  0.00     0.064 A 
ATOM    107  C   UNL A   1      38.904  33.234  37.697  1.00  0.00     0.173 A 
ATOM    108  C   UNL A   1      40.368  34.844  36.679  1.00  0.00     0.173 A 
ATOM    109  F   UNL A   1      38.267  32.053  37.692  1.00  0.00    -0.203 F 
ATOM    110  C   UNL A   1      38.682  34.109  38.758  1.00  0.00     0.198 A 
ATOM    111  C   UNL A   1      40.172  35.702  37.758  1.00  0.00     0.198 A 
ATOM    112  F   UNL A   1      41.181  35.235  35.686  1.00  0.00    -0.203 F 
ATOM    113  F   UNL A   1      37.835  33.768  39.739  1.00  0.00    -0.200 F 
ATOM    114  C   UNL A   1      39.322  35.338  38.791  1.00  0.00     0.200 A 
ATOM    115  F   UNL A   1      40.802  36.884  37.796  1.00  0.00    -0.200 F 
ATOM    116  F   UNL A   1      39.112  36.176  39.815  1.00  0.00    -0.200 F 
ENDBRANCH  86 106
BRANCH  89 117
ATOM    117  C   UNL A   1      41.228  27.904  28.542  1.00  0.00     0.064 A 
ATOM    118  C   UNL A   1      42.086  28.330  27.518  1.00  0.00     0.173 A 
ATOM    119  C   UNL A   1      40.597  26.662  28.389  1.00  0.00     0.173 A 
ATOM    120  F   UNL A   1      42.699  29.518  27.609  1.00  0.00    -0.203 F 
ATOM    121  C   UNL A   1      42.283  27.558  26.375  1.00  0.00     0.198 A 
ATOM    122  C   UNL A   1      40.817  25.876  27.259  1.00  0.00     0.198 A 
ATOM    123  F   UNL A   1      39.771  26.205  29.343  1.00  0.00    -0.203 F 
ATOM    124  F   UNL A   1      43.068  28.012  25.389  1.00  0.00    -0.200 F 
ATOM    125  C   UNL A   1      41.652  26.329  26.249  1.00  0.00     0.200 A 
ATOM    126  F   UNL A   1      40.218  24.683  27.148  1.00  0.00    -0.200 F 
ATOM    127  F   UNL A   1      41.842  25.586  25.150  1.00  0.00    -0.200 F 
ENDBRANCH  89 117
BRANCH 104 128
ATOM    128  C   UNL A   1      44.219  28.232  34.824  1.00  0.00     0.064 A 
ATOM    129  C   UNL A   1      45.559  28.649  34.793  1.00  0.00     0.173 A 
ATOM    130  C   UNL A   1      43.916  27.043  35.507  1.00  0.00     0.173 A 
ATOM    131  F   UNL A   1      45.901  29.770  34.142  1.00  0.00    -0.203 F 
ATOM    132  C   UNL A   1      46.559  27.887  35.391  1.00  0.00     0.198 A 
ATOM    133  C   UNL A   1      44.914  26.303  36.134  1.00  0.00     0.198 A 
ATOM    134  F   UNL A   1      42.651  26.605  35.575  1.00  0.00    -0.203 F 
ATOM    135  F   UNL A   1      47.838  28.274  35.299  1.00  0.00    -0.200 F 
ATOM    136  C   UNL A   1      46.235  26.719  36.067  1.00  0.00     0.200 A 
ATOM    137  F   UNL A   1      44.597  25.183  36.800  1.00  0.00    -0.200 F 
ATOM    138  F   UNL A   1      47.198  25.990  36.647  1.00  0.00    -0.200 F 
ENDBRANCH 104 128
ENDBRANCH  69  72
ENDBRANCH  59  62
ENDBRANCH  55  58
ENDBRANCH  52  55
ENDBRANCH  49  52
ENDBRANCH   1  49
TORSDOF 17
ENDMDL
MODEL 7
REMARK VINA RESULT:     -12.4      7.488     12.182
REMARK SMILES C[C@@H](C(=O)NCCCCCCNC(=O)c1ccc(-c2c3nc(c(-c4c(F)c(F)c(F)c(F)c4F)c4ccc([nH]4)c(-c4c(F)c(F)c(F)c(F)c4F)c4nc(c(-c5c(F)c(F)c(F)c(F)c5F)c5ccc2[nH]5)C=C4)C=C3)cc1)c1ccc2c3cc(Cl)ccc3n(C(=O)c3cocn3)c2c1
REMARK SMILES IDX 8 1 7 4 6 7 5 10 3 11 4 12 2 14 1 16 78 20 79 21 98 22 80 23
REMARK SMILES IDX 97 25 81 27 89 29 82 30 88 31 83 32 87 33 84 34 86 36 85 38
REMARK SMILES IDX 90 40 91 41 92 42 93 43 96 44 94 45 95 47 9 49 10 52 11 55
REMARK SMILES IDX 12 58 13 59 14 61 15 62 16 63 77 64 17 65 76 67 18 69 19 72
REMARK SMILES IDX 20 73 70 74 21 75 75 76 69 77 71 78 22 79 74 80 68 82 67 84
REMARK SMILES IDX 23 86 55 89 35 90 54 91 36 92 39 93 53 94 72 95 37 96 38 98
REMARK SMILES IDX 52 100 73 101 40 104 24 106 25 107 33 108 26 109 27 110
REMARK SMILES IDX 31 111 34 112 28 113 29 114 32 115 30 116 56 117 57 118
REMARK SMILES IDX 65 119 58 120 59 121 63 122 66 123 60 124 61 125 64 126
REMARK SMILES IDX 62 127 41 128 42 129 50 130 43 131 44 132 48 133 51 134
REMARK SMILES IDX 45 135 46 136 49 137 47 138
REMARK H PARENT 8 2 8 3 7 5 7 6 6 8 6 9 5 13 2 15 1 17 1 18 1 19 79 24 98 26
REMARK H PARENT 80 28 83 35 87 37 86 39 93 46 95 48 9 50 9 51 10 53 10 54
REMARK H PARENT 11 56 11 57 12 60 16 66 77 68 17 70 76 71 75 81 69 83 71 85
REMARK H PARENT 74 87 68 88 36 97 39 99 72 102 37 103 73 105
REMARK Flexibility Score: inf
ROOT
ATOM      1  C   UNL A   1      41.238  27.638  28.753  1.00  0.00    -0.052 C 
ATOM      2  H   UNL A   1      41.935  26.827  28.787  1.00  0.00     0.027 H 
ATOM      3  H   UNL A   1      41.609  28.493  28.227  1.00  0.00     0.027 H 
ENDROOT
BRANCH   1   4
ATOM      4  C   UNL A   1      40.974  28.101  30.193  1.00  0.00    -0.036 C 
ATOM      5  H   UNL A   1      39.933  27.973  30.403  1.00  0.00     0.028 H 
ATOM      6  H   UNL A   1      41.598  27.508  30.829  1.00  0.00     0.028 H 
BRANCH   4   7
ATOM      7  C   UNL A   1      41.341  29.563  30.451  1.00  0.00     0.017 C 
ATOM      8  H   UNL A   1      42.336  29.615  30.838  1.00  0.00     0.049 H 
ATOM      9  H   UNL A   1      41.276  30.106  29.531  1.00  0.00     0.049 H 
BRANCH   7  10
ATOM     10  N   UNL A   1      40.428  30.146  31.405  1.00  0.00    -0.356 N 
ATOM     11  C   UNL A   1      39.571  31.194  31.265  1.00  0.00     0.227 C 
ATOM     12  O   UNL A   1      38.996  31.564  32.291  1.00  0.00    -0.274 OA
ATOM     13  H   UNL A   1      40.423  29.719  32.292  1.00  0.00     0.163 HD
BRANCH  11  14
ATOM     14  C   UNL A   1      39.325  31.808  29.872  1.00  0.00     0.060 C 
ATOM     15  H   UNL A   1      40.182  31.537  29.291  1.00  0.00     0.045 H 
BRANCH  14  16
ATOM     16  C   UNL A   1      39.232  33.340  29.885  1.00  0.00    -0.049 C 
ATOM     17  H   UNL A   1      39.127  33.699  28.883  1.00  0.00     0.024 H 
ATOM     18  H   UNL A   1      40.121  33.747  30.319  1.00  0.00     0.024 H 
ATOM     19  H   UNL A   1      38.383  33.640  30.463  1.00  0.00     0.024 H 
ENDBRANCH  14  16
BRANCH  14  20
ATOM     20  C   UNL A   1      38.058  31.245  29.241  1.00  0.00    -0.034 A 
ATOM     21  C   UNL A   1      37.976  29.912  28.841  1.00  0.00    -0.057 A 
ATOM     22  C   UNL A   1      36.953  32.091  29.061  1.00  0.00    -0.033 A 
ATOM     23  C   UNL A   1      36.790  29.407  28.297  1.00  0.00    -0.052 A 
ATOM     24  H   UNL A   1      38.796  29.294  28.948  1.00  0.00     0.063 H 
ATOM     25  C   UNL A   1      35.787  31.596  28.459  1.00  0.00     0.058 A 
ATOM     26  H   UNL A   1      36.998  33.074  29.371  1.00  0.00     0.065 H 
ATOM     27  C   UNL A   1      35.676  30.256  28.117  1.00  0.00     0.008 A 
ATOM     28  H   UNL A   1      36.729  28.411  28.028  1.00  0.00     0.063 H 
ATOM     29  N   UNL A   1      34.595  32.252  28.134  1.00  0.00    -0.274 N 
ATOM     30  C   UNL A   1      34.361  30.063  27.614  1.00  0.00     0.009 A 
ATOM     31  C   UNL A   1      33.721  31.312  27.572  1.00  0.00     0.057 A 
ATOM     32  C   UNL A   1      33.689  28.916  27.140  1.00  0.00    -0.033 A 
ATOM     33  C   UNL A   1      32.464  31.448  26.952  1.00  0.00    -0.036 A 
ATOM     34  C   UNL A   1      32.424  29.050  26.576  1.00  0.00     0.041 A 
ATOM     35  H   UNL A   1      34.132  27.986  27.212  1.00  0.00     0.065 H 
ATOM     36  C   UNL A   1      31.828  30.299  26.462  1.00  0.00    -0.041 A 
ATOM     37  H   UNL A   1      32.021  32.375  26.859  1.00  0.00     0.065 H 
ATOM     38  Cl  UNL A   1      31.616  27.654  25.976  1.00  0.00    -0.084 Cl
ATOM     39  H   UNL A   1      30.903  30.383  26.012  1.00  0.00     0.064 H 
BRANCH  29  40
ATOM     40  C   UNL A   1      34.406  33.651  28.293  1.00  0.00     0.284 C 
ATOM     41  O   UNL A   1      34.737  34.346  27.328  1.00  0.00    -0.266 OA
BRANCH  40  42
ATOM     42  C   UNL A   1      33.899  34.308  29.495  1.00  0.00     0.167 A 
ATOM     43  C   UNL A   1      34.373  34.265  30.789  1.00  0.00     0.124 A 
ATOM     44  N   UNL A   1      32.863  35.235  29.443  1.00  0.00    -0.211 NA
ATOM     45  O   UNL A   1      33.646  35.137  31.547  1.00  0.00    -0.451 OA
ATOM     46  H   UNL A   1      35.148  33.672  31.127  1.00  0.00     0.107 H 
ATOM     47  C   UNL A   1      32.774  35.694  30.666  1.00  0.00     0.181 A 
ATOM     48  H   UNL A   1      32.093  36.420  30.940  1.00  0.00     0.127 H 
ENDBRANCH  40  42
ENDBRANCH  29  40
ENDBRANCH  14  20
ENDBRANCH  11  14
ENDBRANCH   7  10
ENDBRANCH   4   7
ENDBRANCH   1   4
BRANCH   1  49
ATOM     49  C   UNL A   1      39.996  27.168  27.990  1.00  0.00    -0.052 C 
ATOM     50  H   UNL A   1      40.034  27.581  27.004  1.00  0.00     0.027 H 
ATOM     51  H   UNL A   1      39.151  27.502  28.554  1.00  0.00     0.027 H 
BRANCH  49  52
ATOM     52  C   UNL A   1      39.860  25.649  27.864  1.00  0.00    -0.036 C 
ATOM     53  H   UNL A   1      38.895  25.367  28.230  1.00  0.00     0.028 H 
ATOM     54  H   UNL A   1      40.661  25.221  28.432  1.00  0.00     0.028 H 
BRANCH  52  55
ATOM     55  C   UNL A   1      40.004  25.125  26.443  1.00  0.00     0.018 C 
ATOM     56  H   UNL A   1      40.552  25.840  25.864  1.00  0.00     0.049 H 
ATOM     57  H   UNL A   1      39.023  24.977  26.043  1.00  0.00     0.049 H 
BRANCH  55  58
ATOM     58  N   UNL A   1      40.703  23.854  26.403  1.00  0.00    -0.352 N 
ATOM     59  C   UNL A   1      42.042  23.609  26.236  1.00  0.00     0.251 C 
ATOM     60  H   UNL A   1      40.136  23.057  26.512  1.00  0.00     0.163 HD
ATOM     61  O   UNL A   1      42.439  22.472  26.020  1.00  0.00    -0.269 OA
BRANCH  59  62
ATOM     62  C   UNL A   1      43.007  24.727  26.307  1.00  0.00     0.039 A 
ATOM     63  C   UNL A   1      43.602  25.024  27.535  1.00  0.00    -0.049 A 
ATOM     64  C   UNL A   1      43.299  25.501  25.180  1.00  0.00    -0.049 A 
ATOM     65  C   UNL A   1      44.504  26.085  27.628  1.00  0.00    -0.053 A 
ATOM     66  H   UNL A   1      43.376  24.461  28.370  1.00  0.00     0.063 H 
ATOM     67  C   UNL A   1      44.259  26.504  25.254  1.00  0.00    -0.053 A 
ATOM     68  H   UNL A   1      42.800  25.329  24.293  1.00  0.00     0.063 H 
ATOM     69  C   UNL A   1      44.848  26.826  26.486  1.00  0.00    -0.014 A 
ATOM     70  H   UNL A   1      44.920  26.327  28.541  1.00  0.00     0.063 H 
ATOM     71  H   UNL A   1      44.539  27.013  24.401  1.00  0.00     0.063 H 
BRANCH  69  72
ATOM     72  C   UNL A   1      45.775  27.982  26.578  1.00  0.00     0.031 A 
ATOM     73  C   UNL A   1      47.251  27.774  26.371  1.00  0.00     0.074 A 
ATOM     74  C   UNL A   1      45.298  29.203  26.881  1.00  0.00     0.049 A 
ATOM     75  N   UNL A   1      48.229  28.643  26.434  1.00  0.00    -0.248 NA
ATOM     76  C   UNL A   1      47.692  26.399  26.084  1.00  0.00    -0.034 C 
ATOM     77  C   UNL A   1      43.895  29.522  27.148  1.00  0.00    -0.036 A 
ATOM     78  N   UNL A   1      45.944  30.407  27.016  1.00  0.00    -0.354 N 
ATOM     79  C   UNL A   1      49.393  27.918  26.217  1.00  0.00     0.074 A 
ATOM     80  C   UNL A   1      49.009  26.531  26.081  1.00  0.00    -0.034 C 
ATOM     81  H   UNL A   1      47.123  25.553  25.928  1.00  0.00     0.065 H 
ATOM     82  C   UNL A   1      43.781  30.839  27.381  1.00  0.00    -0.036 A 
ATOM     83  H   UNL A   1      43.118  28.843  27.155  1.00  0.00     0.065 H 
ATOM     84  C   UNL A   1      45.105  31.452  27.314  1.00  0.00     0.049 A 
ATOM     85  H   UNL A   1      46.917  30.511  26.910  1.00  0.00     0.167 HD
ATOM     86  C   UNL A   1      50.666  28.371  26.113  1.00  0.00     0.037 A 
ATOM     87  H   UNL A   1      49.675  25.747  25.992  1.00  0.00     0.065 H 
ATOM     88  H   UNL A   1      42.899  31.339  27.577  1.00  0.00     0.065 H 
ATOM     89  C   UNL A   1      45.375  32.756  27.504  1.00  0.00     0.037 A 
ATOM     90  C   UNL A   1      51.037  29.758  26.213  1.00  0.00     0.049 A 
ATOM     91  C   UNL A   1      46.797  33.236  27.371  1.00  0.00     0.074 A 
ATOM     92  C   UNL A   1      52.287  30.330  26.057  1.00  0.00    -0.036 A 
ATOM     93  N   UNL A   1      50.155  30.791  26.494  1.00  0.00    -0.354 N 
ATOM     94  N   UNL A   1      47.880  32.554  27.091  1.00  0.00    -0.248 NA
ATOM     95  C   UNL A   1      47.028  34.674  27.567  1.00  0.00    -0.034 C 
ATOM     96  C   UNL A   1      52.169  31.704  26.293  1.00  0.00    -0.036 A 
ATOM     97  H   UNL A   1      53.154  29.831  25.810  1.00  0.00     0.065 H 
ATOM     98  C   UNL A   1      50.836  31.996  26.536  1.00  0.00     0.049 A 
ATOM     99  H   UNL A   1      49.187  30.684  26.640  1.00  0.00     0.167 HD
ATOM    100  C   UNL A   1      48.913  33.481  27.036  1.00  0.00     0.074 A 
ATOM    101  C   UNL A   1      48.323  34.777  27.303  1.00  0.00    -0.034 C 
ATOM    102  H   UNL A   1      46.358  35.410  27.840  1.00  0.00     0.065 H 
ATOM    103  H   UNL A   1      52.945  32.385  26.289  1.00  0.00     0.065 H 
ATOM    104  C   UNL A   1      50.229  33.279  26.784  1.00  0.00     0.037 A 
ATOM    105  H   UNL A   1      48.844  35.667  27.290  1.00  0.00     0.065 H 
BRANCH  86 106
ATOM    106  C   UNL A   1      51.748  27.355  25.881  1.00  0.00     0.064 A 
ATOM    107  C   UNL A   1      52.473  26.790  26.942  1.00  0.00     0.173 A 
ATOM    108  C   UNL A   1      52.049  26.921  24.581  1.00  0.00     0.173 A 
ATOM    109  F   UNL A   1      52.234  27.177  28.205  1.00  0.00    -0.203 F 
ATOM    110  C   UNL A   1      53.480  25.857  26.708  1.00  0.00     0.198 A 
ATOM    111  C   UNL A   1      53.033  25.963  24.353  1.00  0.00     0.198 A 
ATOM    112  F   UNL A   1      51.383  27.423  23.530  1.00  0.00    -0.203 F 
ATOM    113  F   UNL A   1      54.197  25.377  27.733  1.00  0.00    -0.200 F 
ATOM    114  C   UNL A   1      53.754  25.440  25.415  1.00  0.00     0.200 A 
ATOM    115  F   UNL A   1      53.287  25.549  23.104  1.00  0.00    -0.200 F 
ATOM    116  F   UNL A   1      54.720  24.538  25.192  1.00  0.00    -0.200 F 
ENDBRANCH  86 106
BRANCH  89 117
ATOM    117  C   UNL A   1      44.274  33.712  27.793  1.00  0.00     0.064 A 
ATOM    118  C   UNL A   1      43.744  34.523  26.779  1.00  0.00     0.173 A 
ATOM    119  C   UNL A   1      43.739  33.845  29.081  1.00  0.00     0.173 A 
ATOM    120  F   UNL A   1      44.235  34.446  25.535  1.00  0.00    -0.203 F 
ATOM    121  C   UNL A   1      42.739  35.449  27.050  1.00  0.00     0.198 A 
ATOM    122  C   UNL A   1      42.713  34.750  29.345  1.00  0.00     0.198 A 
ATOM    123  F   UNL A   1      44.206  33.087  30.085  1.00  0.00    -0.203 F 
ATOM    124  F   UNL A   1      42.286  36.247  26.073  1.00  0.00    -0.200 F 
ATOM    125  C   UNL A   1      42.220  35.559  28.332  1.00  0.00     0.200 A 
ATOM    126  F   UNL A   1      42.204  34.842  30.581  1.00  0.00    -0.200 F 
ATOM    127  F   UNL A   1      41.253  36.448  28.591  1.00  0.00    -0.200 F 
ENDBRANCH  89 117
BRANCH 104 128
ATOM    128  C   UNL A   1      51.113  34.492  26.724  1.00  0.00     0.064 A 
ATOM    129  C   UNL A   1      51.818  34.954  27.845  1.00  0.00     0.173 A 
ATOM    130  C   UNL A   1      51.277  35.185  25.513  1.00  0.00     0.173 A 
ATOM    131  F   UNL A   1      51.685  34.336  29.028  1.00  0.00    -0.203 F 
ATOM    132  C   UNL A   1      52.627  36.084  27.766  1.00  0.00     0.198 A 
ATOM    133  C   UNL A   1      52.115  36.293  25.430  1.00  0.00     0.198 A 
ATOM    134  F   UNL A   1      50.633  34.780  24.409  1.00  0.00    -0.203 F 
ATOM    135  F   UNL A   1      53.246  36.541  28.864  1.00  0.00    -0.200 F 
ATOM    136  C   UNL A   1      52.781  36.749  26.557  1.00  0.00     0.200 A 
ATOM    137  F   UNL A   1      52.273  36.924  24.258  1.00  0.00    -0.200 F 
ATOM    138  F   UNL A   1      53.564  37.833  26.482  1.00  0.00    -0.200 F 
ENDBRANCH 104 128
ENDBRANCH  69  72
ENDBRANCH  59  62
ENDBRANCH  55  58
ENDBRANCH  52  55
ENDBRANCH  49  52
ENDBRANCH   1  49
TORSDOF 17
ENDMDL
MODEL 8
REMARK VINA RESULT:     -12.3      5.328     11.277
REMARK SMILES C[C@@H](C(=O)NCCCCCCNC(=O)c1ccc(-c2c3nc(c(-c4c(F)c(F)c(F)c(F)c4F)c4ccc([nH]4)c(-c4c(F)c(F)c(F)c(F)c4F)c4nc(c(-c5c(F)c(F)c(F)c(F)c5F)c5ccc2[nH]5)C=C4)C=C3)cc1)c1ccc2c3cc(Cl)ccc3n(C(=O)c3cocn3)c2c1
REMARK SMILES IDX 8 1 7 4 6 7 5 10 3 11 4 12 2 14 1 16 78 20 79 21 98 22 80 23
REMARK SMILES IDX 97 25 81 27 89 29 82 30 88 31 83 32 87 33 84 34 86 36 85 38
REMARK SMILES IDX 90 40 91 41 92 42 93 43 96 44 94 45 95 47 9 49 10 52 11 55
REMARK SMILES IDX 12 58 13 59 14 61 15 62 16 63 77 64 17 65 76 67 18 69 19 72
REMARK SMILES IDX 20 73 70 74 21 75 75 76 69 77 71 78 22 79 74 80 68 82 67 84
REMARK SMILES IDX 23 86 55 89 35 90 54 91 36 92 39 93 53 94 72 95 37 96 38 98
REMARK SMILES IDX 52 100 73 101 40 104 24 106 25 107 33 108 26 109 27 110
REMARK SMILES IDX 31 111 34 112 28 113 29 114 32 115 30 116 56 117 57 118
REMARK SMILES IDX 65 119 58 120 59 121 63 122 66 123 60 124 61 125 64 126
REMARK SMILES IDX 62 127 41 128 42 129 50 130 43 131 44 132 48 133 51 134
REMARK SMILES IDX 45 135 46 136 49 137 47 138
REMARK H PARENT 8 2 8 3 7 5 7 6 6 8 6 9 5 13 2 15 1 17 1 18 1 19 79 24 98 26
REMARK H PARENT 80 28 83 35 87 37 86 39 93 46 95 48 9 50 9 51 10 53 10 54
REMARK H PARENT 11 56 11 57 12 60 16 66 77 68 17 70 76 71 75 81 69 83 71 85
REMARK H PARENT 74 87 68 88 36 97 39 99 72 102 37 103 73 105
REMARK Flexibility Score: inf
ROOT
ATOM      1  C   UNL A   1      42.973  23.602  28.331  1.00  0.00    -0.052 C 
ATOM      2  H   UNL A   1      42.864  23.756  27.277  1.00  0.00     0.027 H 
ATOM      3  H   UNL A   1      42.827  24.492  28.906  1.00  0.00     0.027 H 
ENDROOT
BRANCH   1   4
ATOM      4  C   UNL A   1      44.414  23.148  28.600  1.00  0.00    -0.036 C 
ATOM      5  H   UNL A   1      44.497  22.880  29.633  1.00  0.00     0.028 H 
ATOM      6  H   UNL A   1      44.609  22.324  27.945  1.00  0.00     0.028 H 
BRANCH   4   7
ATOM      7  C   UNL A   1      45.468  24.215  28.294  1.00  0.00     0.017 C 
ATOM      8  H   UNL A   1      45.106  25.169  28.613  1.00  0.00     0.049 H 
ATOM      9  H   UNL A   1      46.371  23.971  28.815  1.00  0.00     0.049 H 
BRANCH   7  10
ATOM     10  N   UNL A   1      45.740  24.257  26.877  1.00  0.00    -0.356 N 
ATOM     11  C   UNL A   1      45.421  25.206  25.955  1.00  0.00     0.227 C 
ATOM     12  O   UNL A   1      45.666  24.923  24.781  1.00  0.00    -0.274 OA
ATOM     13  H   UNL A   1      46.231  23.481  26.524  1.00  0.00     0.163 HD
BRANCH  11  14
ATOM     14  C   UNL A   1      44.847  26.563  26.412  1.00  0.00     0.060 C 
ATOM     15  H   UNL A   1      44.351  26.360  27.338  1.00  0.00     0.045 H 
BRANCH  14  16
ATOM     16  C   UNL A   1      43.811  27.146  25.442  1.00  0.00    -0.049 C 
ATOM     17  H   UNL A   1      43.541  26.404  24.720  1.00  0.00     0.024 H 
ATOM     18  H   UNL A   1      44.227  27.996  24.943  1.00  0.00     0.024 H 
ATOM     19  H   UNL A   1      42.941  27.446  25.989  1.00  0.00     0.024 H 
ENDBRANCH  14  16
BRANCH  14  20
ATOM     20  C   UNL A   1      45.957  27.586  26.619  1.00  0.00    -0.034 A 
ATOM     21  C   UNL A   1      47.250  27.196  26.966  1.00  0.00    -0.057 A 
ATOM     22  C   UNL A   1      45.665  28.949  26.456  1.00  0.00    -0.033 A 
ATOM     23  C   UNL A   1      48.262  28.150  27.115  1.00  0.00    -0.052 A 
ATOM     24  H   UNL A   1      47.461  26.196  27.112  1.00  0.00     0.063 H 
ATOM     25  C   UNL A   1      46.667  29.906  26.666  1.00  0.00     0.058 A 
ATOM     26  H   UNL A   1      44.715  29.246  26.181  1.00  0.00     0.065 H 
ATOM     27  C   UNL A   1      47.971  29.523  26.949  1.00  0.00     0.008 A 
ATOM     28  H   UNL A   1      49.223  27.851  27.346  1.00  0.00     0.063 H 
ATOM     29  N   UNL A   1      46.602  31.302  26.613  1.00  0.00    -0.274 N 
ATOM     30  C   UNL A   1      48.747  30.710  27.022  1.00  0.00     0.009 A 
ATOM     31  C   UNL A   1      47.884  31.807  26.873  1.00  0.00     0.057 A 
ATOM     32  C   UNL A   1      50.121  30.928  27.258  1.00  0.00    -0.033 A 
ATOM     33  C   UNL A   1      48.356  33.118  27.077  1.00  0.00    -0.036 A 
ATOM     34  C   UNL A   1      50.591  32.229  27.407  1.00  0.00     0.041 A 
ATOM     35  H   UNL A   1      50.772  30.129  27.320  1.00  0.00     0.065 H 
ATOM     36  C   UNL A   1      49.719  33.309  27.340  1.00  0.00    -0.041 A 
ATOM     37  H   UNL A   1      47.710  33.922  27.035  1.00  0.00     0.065 H 
ATOM     38  Cl  UNL A   1      52.262  32.493  27.720  1.00  0.00    -0.084 Cl
ATOM     39  H   UNL A   1      50.081  34.264  27.484  1.00  0.00     0.064 H 
BRANCH  29  40
ATOM     40  C   UNL A   1      45.393  32.021  26.412  1.00  0.00     0.284 C 
ATOM     41  O   UNL A   1      45.159  32.352  25.246  1.00  0.00    -0.266 OA
BRANCH  40  42
ATOM     42  C   UNL A   1      44.457  32.416  27.460  1.00  0.00     0.167 A 
ATOM     43  C   UNL A   1      43.741  31.634  28.342  1.00  0.00     0.124 A 
ATOM     44  N   UNL A   1      44.258  33.749  27.802  1.00  0.00    -0.211 NA
ATOM     45  O   UNL A   1      43.091  32.454  29.219  1.00  0.00    -0.451 OA
ATOM     46  H   UNL A   1      43.704  30.602  28.339  1.00  0.00     0.107 H 
ATOM     47  C   UNL A   1      43.465  33.704  28.843  1.00  0.00     0.181 A 
ATOM     48  H   UNL A   1      43.148  34.554  29.338  1.00  0.00     0.127 H 
ENDBRANCH  40  42
ENDBRANCH  29  40
ENDBRANCH  14  20
ENDBRANCH  11  14
ENDBRANCH   7  10
ENDBRANCH   4   7
ENDBRANCH   1   4
BRANCH   1  49
ATOM     49  C   UNL A   1      41.892  22.615  28.782  1.00  0.00    -0.052 C 
ATOM     50  H   UNL A   1      41.057  23.177  29.143  1.00  0.00     0.027 H 
ATOM     51  H   UNL A   1      42.341  21.998  29.532  1.00  0.00     0.027 H 
BRANCH  49  52
ATOM     52  C   UNL A   1      41.392  21.670  27.687  1.00  0.00    -0.036 C 
ATOM     53  H   UNL A   1      40.397  21.365  27.936  1.00  0.00     0.028 H 
ATOM     54  H   UNL A   1      42.081  20.852  27.650  1.00  0.00     0.028 H 
BRANCH  52  55
ATOM     55  C   UNL A   1      41.369  22.285  26.295  1.00  0.00     0.018 C 
ATOM     56  H   UNL A   1      41.907  21.645  25.626  1.00  0.00     0.049 H 
ATOM     57  H   UNL A   1      41.824  23.252  26.352  1.00  0.00     0.049 H 
BRANCH  55  58
ATOM     58  N   UNL A   1      40.015  22.452  25.800  1.00  0.00    -0.352 N 
ATOM     59  C   UNL A   1      39.089  23.412  26.123  1.00  0.00     0.251 C 
ATOM     60  H   UNL A   1      39.721  21.785  25.140  1.00  0.00     0.163 HD
ATOM     61  O   UNL A   1      37.924  23.289  25.770  1.00  0.00    -0.269 OA
BRANCH  59  62
ATOM     62  C   UNL A   1      39.502  24.593  26.912  1.00  0.00     0.039 A 
ATOM     63  C   UNL A   1      39.096  24.686  28.245  1.00  0.00    -0.049 A 
ATOM     64  C   UNL A   1      40.254  25.620  26.334  1.00  0.00    -0.049 A 
ATOM     65  C   UNL A   1      39.461  25.799  29.003  1.00  0.00    -0.053 A 
ATOM     66  H   UNL A   1      38.527  23.934  28.667  1.00  0.00     0.063 H 
ATOM     67  C   UNL A   1      40.687  26.687  27.112  1.00  0.00    -0.053 A 
ATOM     68  H   UNL A   1      40.488  25.585  25.329  1.00  0.00     0.063 H 
ATOM     69  C   UNL A   1      40.269  26.804  28.445  1.00  0.00    -0.014 A 
ATOM     70  H   UNL A   1      39.134  25.886  29.978  1.00  0.00     0.063 H 
ATOM     71  H   UNL A   1      41.319  27.397  26.707  1.00  0.00     0.063 H 
BRANCH  69  72
ATOM     72  C   UNL A   1      40.631  28.012  29.227  1.00  0.00     0.031 A 
ATOM     73  C   UNL A   1      42.021  28.150  29.788  1.00  0.00     0.074 A 
ATOM     74  C   UNL A   1      39.707  28.962  29.464  1.00  0.00     0.049 A 
ATOM     75  N   UNL A   1      42.531  29.111  30.517  1.00  0.00    -0.248 NA
ATOM     76  C   UNL A   1      42.957  27.046  29.518  1.00  0.00    -0.034 C 
ATOM     77  C   UNL A   1      38.316  28.919  29.012  1.00  0.00    -0.036 A 
ATOM     78  N   UNL A   1      39.801  30.150  30.143  1.00  0.00    -0.354 N 
ATOM     79  C   UNL A   1      43.830  28.716  30.807  1.00  0.00     0.074 A 
ATOM     80  C   UNL A   1      44.014  27.405  30.229  1.00  0.00    -0.034 C 
ATOM     81  H   UNL A   1      42.823  26.210  28.929  1.00  0.00     0.065 H 
ATOM     82  C   UNL A   1      37.695  30.046  29.399  1.00  0.00    -0.036 A 
ATOM     83  H   UNL A   1      37.882  28.148  28.482  1.00  0.00     0.065 H 
ATOM     84  C   UNL A   1      38.634  30.873  30.152  1.00  0.00     0.049 A 
ATOM     85  H   UNL A   1      40.627  30.455  30.585  1.00  0.00     0.167 HD
ATOM     86  C   UNL A   1      44.793  29.398  31.473  1.00  0.00     0.037 A 
ATOM     87  H   UNL A   1      44.859  26.825  30.353  1.00  0.00     0.065 H 
ATOM     88  H   UNL A   1      36.712  30.288  29.196  1.00  0.00     0.065 H 
ATOM     89  C   UNL A   1      38.357  32.070  30.701  1.00  0.00     0.037 A 
ATOM     90  C   UNL A   1      44.615  30.720  32.015  1.00  0.00     0.049 A 
ATOM     91  C   UNL A   1      39.449  32.813  31.426  1.00  0.00     0.074 A 
ATOM     92  C   UNL A   1      45.545  31.525  32.649  1.00  0.00    -0.036 A 
ATOM     93  N   UNL A   1      43.423  31.430  31.985  1.00  0.00    -0.354 N 
ATOM     94  N   UNL A   1      40.696  32.465  31.629  1.00  0.00    -0.248 NA
ATOM     95  C   UNL A   1      39.095  34.125  31.985  1.00  0.00    -0.034 C 
ATOM     96  C   UNL A   1      44.902  32.703  33.047  1.00  0.00    -0.036 A 
ATOM     97  H   UNL A   1      46.538  31.297  32.802  1.00  0.00     0.065 H 
ATOM     98  C   UNL A   1      43.588  32.656  32.607  1.00  0.00     0.049 A 
ATOM     99  H   UNL A   1      42.585  31.109  31.580  1.00  0.00     0.167 HD
ATOM    100  C   UNL A   1      41.286  33.527  32.301  1.00  0.00     0.074 A 
ATOM    101  C   UNL A   1      40.260  34.538  32.462  1.00  0.00    -0.034 C 
ATOM    102  H   UNL A   1      38.179  34.600  32.002  1.00  0.00     0.065 H 
ATOM    103  H   UNL A   1      45.333  33.475  33.578  1.00  0.00     0.065 H 
ATOM    104  C   UNL A   1      42.561  33.658  32.741  1.00  0.00     0.037 A 
ATOM    105  H   UNL A   1      40.417  35.462  32.893  1.00  0.00     0.065 H 
BRANCH  86 106
ATOM    106  C   UNL A   1      46.124  28.724  31.653  1.00  0.00     0.064 A 
ATOM    107  C   UNL A   1      46.338  27.763  32.652  1.00  0.00     0.173 A 
ATOM    108  C   UNL A   1      47.194  29.026  30.796  1.00  0.00     0.173 A 
ATOM    109  F   UNL A   1      45.353  27.444  33.506  1.00  0.00    -0.203 F 
ATOM    110  C   UNL A   1      47.582  27.156  32.811  1.00  0.00     0.198 A 
ATOM    111  C   UNL A   1      48.426  28.392  30.936  1.00  0.00     0.198 A 
ATOM    112  F   UNL A   1      47.044  29.933  29.820  1.00  0.00    -0.203 F 
ATOM    113  F   UNL A   1      47.777  26.284  33.810  1.00  0.00    -0.200 F 
ATOM    114  C   UNL A   1      48.622  27.466  31.948  1.00  0.00     0.200 A 
ATOM    115  F   UNL A   1      49.426  28.682  30.092  1.00  0.00    -0.200 F 
ATOM    116  F   UNL A   1      49.816  26.877  32.098  1.00  0.00    -0.200 F 
ENDBRANCH  86 106
BRANCH  89 117
ATOM    117  C   UNL A   1      37.005  32.667  30.548  1.00  0.00     0.064 A 
ATOM    118  C   UNL A   1      36.673  33.409  29.405  1.00  0.00     0.173 A 
ATOM    119  C   UNL A   1      36.023  32.520  31.538  1.00  0.00     0.173 A 
ATOM    120  F   UNL A   1      37.583  33.593  28.439  1.00  0.00    -0.203 F 
ATOM    121  C   UNL A   1      35.420  34.003  29.272  1.00  0.00     0.198 A 
ATOM    122  C   UNL A   1      34.760  33.090  31.390  1.00  0.00     0.198 A 
ATOM    123  F   UNL A   1      36.288  31.814  32.648  1.00  0.00    -0.203 F 
ATOM    124  F   UNL A   1      35.147  34.750  28.193  1.00  0.00    -0.200 F 
ATOM    125  C   UNL A   1      34.463  33.840  30.262  1.00  0.00     0.200 A 
ATOM    126  F   UNL A   1      33.833  32.917  32.342  1.00  0.00    -0.200 F 
ATOM    127  F   UNL A   1      33.258  34.411  30.133  1.00  0.00    -0.200 F 
ENDBRANCH  89 117
BRANCH 104 128
ATOM    128  C   UNL A   1      42.938  34.961  33.385  1.00  0.00     0.064 A 
ATOM    129  C   UNL A   1      43.385  36.059  32.633  1.00  0.00     0.173 A 
ATOM    130  C   UNL A   1      42.821  35.121  34.775  1.00  0.00     0.173 A 
ATOM    131  F   UNL A   1      43.527  35.953  31.304  1.00  0.00    -0.203 F 
ATOM    132  C   UNL A   1      43.734  37.256  33.253  1.00  0.00     0.198 A 
ATOM    133  C   UNL A   1      43.137  36.331  35.387  1.00  0.00     0.198 A 
ATOM    134  F   UNL A   1      42.390  34.107  35.538  1.00  0.00    -0.203 F 
ATOM    135  F   UNL A   1      44.213  38.272  32.522  1.00  0.00    -0.200 F 
ATOM    136  C   UNL A   1      43.603  37.393  34.628  1.00  0.00     0.200 A 
ATOM    137  F   UNL A   1      42.995  36.466  36.713  1.00  0.00    -0.200 F 
ATOM    138  F   UNL A   1      43.935  38.547  35.222  1.00  0.00    -0.200 F 
ENDBRANCH 104 128
ENDBRANCH  69  72
ENDBRANCH  59  62
ENDBRANCH  55  58
ENDBRANCH  52  55
ENDBRANCH  49  52
ENDBRANCH   1  49
TORSDOF 17
ENDMDL
MODEL 9
REMARK VINA RESULT:     -12.2      7.952     13.975
REMARK SMILES C[C@@H](C(=O)NCCCCCCNC(=O)c1ccc(-c2c3nc(c(-c4c(F)c(F)c(F)c(F)c4F)c4ccc([nH]4)c(-c4c(F)c(F)c(F)c(F)c4F)c4nc(c(-c5c(F)c(F)c(F)c(F)c5F)c5ccc2[nH]5)C=C4)C=C3)cc1)c1ccc2c3cc(Cl)ccc3n(C(=O)c3cocn3)c2c1
REMARK SMILES IDX 8 1 7 4 6 7 5 10 3 11 4 12 2 14 1 16 78 20 79 21 98 22 80 23
REMARK SMILES IDX 97 25 81 27 89 29 82 30 88 31 83 32 87 33 84 34 86 36 85 38
REMARK SMILES IDX 90 40 91 41 92 42 93 43 96 44 94 45 95 47 9 49 10 52 11 55
REMARK SMILES IDX 12 58 13 59 14 61 15 62 16 63 77 64 17 65 76 67 18 69 19 72
REMARK SMILES IDX 20 73 70 74 21 75 75 76 69 77 71 78 22 79 74 80 68 82 67 84
REMARK SMILES IDX 23 86 55 89 35 90 54 91 36 92 39 93 53 94 72 95 37 96 38 98
REMARK SMILES IDX 52 100 73 101 40 104 24 106 25 107 33 108 26 109 27 110
REMARK SMILES IDX 31 111 34 112 28 113 29 114 32 115 30 116 56 117 57 118
REMARK SMILES IDX 65 119 58 120 59 121 63 122 66 123 60 124 61 125 64 126
REMARK SMILES IDX 62 127 41 128 42 129 50 130 43 131 44 132 48 133 51 134
REMARK SMILES IDX 45 135 46 136 49 137 47 138
REMARK H PARENT 8 2 8 3 7 5 7 6 6 8 6 9 5 13 2 15 1 17 1 18 1 19 79 24 98 26
REMARK H PARENT 80 28 83 35 87 37 86 39 93 46 95 48 9 50 9 51 10 53 10 54
REMARK H PARENT 11 56 11 57 12 60 16 66 77 68 17 70 76 71 75 81 69 83 71 85
REMARK H PARENT 74 87 68 88 36 97 39 99 72 102 37 103 73 105
REMARK Flexibility Score: inf
ROOT
ATOM      1  C   UNL A   1      48.634  20.944  35.699  1.00  0.00    -0.052 C 
ATOM      2  H   UNL A   1      48.067  20.042  35.800  1.00  0.00     0.027 H 
ATOM      3  H   UNL A   1      49.358  20.902  34.912  1.00  0.00     0.027 H 
ENDROOT
BRANCH   1   4
ATOM      4  C   UNL A   1      49.423  21.160  36.998  1.00  0.00    -0.036 C 
ATOM      5  H   UNL A   1      50.465  21.045  36.783  1.00  0.00     0.028 H 
ATOM      6  H   UNL A   1      49.182  22.142  37.348  1.00  0.00     0.028 H 
BRANCH   4   7
ATOM      7  C   UNL A   1      49.052  20.187  38.118  1.00  0.00     0.017 C 
ATOM      8  H   UNL A   1      48.900  19.213  37.703  1.00  0.00     0.049 H 
ATOM      9  H   UNL A   1      49.847  20.162  38.834  1.00  0.00     0.049 H 
BRANCH   7  10
ATOM     10  N   UNL A   1      47.842  20.619  38.775  1.00  0.00    -0.356 N 
ATOM     11  C   UNL A   1      46.570  20.149  38.659  1.00  0.00     0.227 C 
ATOM     12  O   UNL A   1      45.699  20.793  39.246  1.00  0.00    -0.274 OA
ATOM     13  H   UNL A   1      47.954  21.368  39.404  1.00  0.00     0.163 HD
BRANCH  11  14
ATOM     14  C   UNL A   1      46.297  18.848  37.877  1.00  0.00     0.060 C 
ATOM     15  H   UNL A   1      47.262  18.422  37.694  1.00  0.00     0.045 H 
BRANCH  14  16
ATOM     16  C   UNL A   1      45.622  19.079  36.519  1.00  0.00    -0.049 C 
ATOM     17  H   UNL A   1      45.349  20.110  36.427  1.00  0.00     0.024 H 
ATOM     18  H   UNL A   1      44.745  18.471  36.448  1.00  0.00     0.024 H 
ATOM     19  H   UNL A   1      46.301  18.819  35.734  1.00  0.00     0.024 H 
ENDBRANCH  14  16
BRANCH  14  20
ATOM     20  C   UNL A   1      45.442  17.887  38.693  1.00  0.00    -0.034 A 
ATOM     21  C   UNL A   1      44.480  17.078  38.090  1.00  0.00    -0.057 A 
ATOM     22  C   UNL A   1      45.630  17.820  40.083  1.00  0.00    -0.033 A 
ATOM     23  C   UNL A   1      43.731  16.177  38.854  1.00  0.00    -0.052 A 
ATOM     24  H   UNL A   1      44.320  17.144  37.073  1.00  0.00     0.063 H 
ATOM     25  C   UNL A   1      44.835  16.960  40.853  1.00  0.00     0.058 A 
ATOM     26  H   UNL A   1      46.353  18.401  40.535  1.00  0.00     0.065 H 
ATOM     27  C   UNL A   1      43.921  16.106  40.253  1.00  0.00     0.008 A 
ATOM     28  H   UNL A   1      43.039  15.562  38.396  1.00  0.00     0.063 H 
ATOM     29  N   UNL A   1      44.807  16.761  42.237  1.00  0.00    -0.274 N 
ATOM     30  C   UNL A   1      43.346  15.319  41.286  1.00  0.00     0.009 A 
ATOM     31  C   UNL A   1      43.854  15.771  42.514  1.00  0.00     0.057 A 
ATOM     32  C   UNL A   1      42.385  14.286  41.264  1.00  0.00    -0.033 A 
ATOM     33  C   UNL A   1      43.325  15.286  43.725  1.00  0.00    -0.036 A 
ATOM     34  C   UNL A   1      41.904  13.774  42.465  1.00  0.00     0.041 A 
ATOM     35  H   UNL A   1      42.042  13.913  40.365  1.00  0.00     0.065 H 
ATOM     36  C   UNL A   1      42.350  14.281  43.679  1.00  0.00    -0.041 A 
ATOM     37  H   UNL A   1      43.648  15.665  44.630  1.00  0.00     0.065 H 
ATOM     38  Cl  UNL A   1      40.714  12.531  42.438  1.00  0.00    -0.084 Cl
ATOM     39  H   UNL A   1      41.958  13.911  44.560  1.00  0.00     0.064 H 
BRANCH  29  40
ATOM     40  C   UNL A   1      45.575  17.529  43.152  1.00  0.00     0.284 C 
ATOM     41  O   UNL A   1      46.667  17.045  43.466  1.00  0.00    -0.266 OA
BRANCH  40  42
ATOM     42  C   UNL A   1      45.161  18.791  43.759  1.00  0.00     0.167 A 
ATOM     43  C   UNL A   1      44.145  19.650  43.397  1.00  0.00     0.124 A 
ATOM     44  N   UNL A   1      45.712  19.247  44.952  1.00  0.00    -0.211 NA
ATOM     45  O   UNL A   1      44.060  20.640  44.334  1.00  0.00    -0.451 OA
ATOM     46  H   UNL A   1      43.550  19.560  42.558  1.00  0.00     0.107 H 
ATOM     47  C   UNL A   1      45.018  20.319  45.242  1.00  0.00     0.181 A 
ATOM     48  H   UNL A   1      45.187  20.877  46.095  1.00  0.00     0.127 H 
ENDBRANCH  40  42
ENDBRANCH  29  40
ENDBRANCH  14  20
ENDBRANCH  11  14
ENDBRANCH   7  10
ENDBRANCH   4   7
ENDBRANCH   1   4
BRANCH   1  49
ATOM     49  C   UNL A   1      47.667  22.075  35.335  1.00  0.00    -0.052 C 
ATOM     50  H   UNL A   1      47.549  22.701  36.194  1.00  0.00     0.027 H 
ATOM     51  H   UNL A   1      46.757  21.606  35.027  1.00  0.00     0.027 H 
BRANCH  49  52
ATOM     52  C   UNL A   1      48.120  22.952  34.166  1.00  0.00    -0.036 C 
ATOM     53  H   UNL A   1      47.378  22.897  33.398  1.00  0.00     0.028 H 
ATOM     54  H   UNL A   1      49.072  22.577  33.852  1.00  0.00     0.028 H 
BRANCH  52  55
ATOM     55  C   UNL A   1      48.326  24.416  34.527  1.00  0.00     0.018 C 
ATOM     56  H   UNL A   1      47.596  25.005  34.011  1.00  0.00     0.049 H 
ATOM     57  H   UNL A   1      49.319  24.692  34.239  1.00  0.00     0.049 H 
BRANCH  55  58
ATOM     58  N   UNL A   1      48.192  24.645  35.954  1.00  0.00    -0.352 N 
ATOM     59  C   UNL A   1      47.359  25.512  36.615  1.00  0.00     0.251 C 
ATOM     60  H   UNL A   1      48.780  24.102  36.527  1.00  0.00     0.163 HD
ATOM     61  O   UNL A   1      47.517  25.730  37.809  1.00  0.00    -0.269 OA
BRANCH  59  62
ATOM     62  C   UNL A   1      46.272  26.192  35.877  1.00  0.00     0.039 A 
ATOM     63  C   UNL A   1      45.026  25.569  35.793  1.00  0.00    -0.049 A 
ATOM     64  C   UNL A   1      46.489  27.419  35.243  1.00  0.00    -0.049 A 
ATOM     65  C   UNL A   1      43.991  26.186  35.088  1.00  0.00    -0.053 A 
ATOM     66  H   UNL A   1      44.870  24.656  36.249  1.00  0.00     0.063 H 
ATOM     67  C   UNL A   1      45.436  28.072  34.613  1.00  0.00    -0.053 A 
ATOM     68  H   UNL A   1      47.432  27.840  35.243  1.00  0.00     0.063 H 
ATOM     69  C   UNL A   1      44.185  27.448  34.502  1.00  0.00    -0.014 A 
ATOM     70  H   UNL A   1      43.078  25.712  34.996  1.00  0.00     0.063 H 
ATOM     71  H   UNL A   1      45.574  29.019  34.226  1.00  0.00     0.063 H 
BRANCH  69  72
ATOM     72  C   UNL A   1      43.106  28.097  33.717  1.00  0.00     0.031 A 
ATOM     73  C   UNL A   1      42.949  27.775  32.255  1.00  0.00     0.074 A 
ATOM     74  C   UNL A   1      42.296  28.998  34.303  1.00  0.00     0.049 A 
ATOM     75  N   UNL A   1      42.091  28.250  31.387  1.00  0.00    -0.248 NA
ATOM     76  C   UNL A   1      43.903  26.810  31.683  1.00  0.00    -0.034 C 
ATOM     77  C   UNL A   1      42.379  29.427  35.700  1.00  0.00    -0.036 A 
ATOM     78  N   UNL A   1      41.242  29.715  33.796  1.00  0.00    -0.354 N 
ATOM     79  C   UNL A   1      42.416  27.660  30.172  1.00  0.00     0.074 A 
ATOM     80  C   UNL A   1      43.584  26.840  30.399  1.00  0.00    -0.034 C 
ATOM     81  H   UNL A   1      44.630  26.256  32.160  1.00  0.00     0.065 H 
ATOM     82  C   UNL A   1      41.396  30.307  35.947  1.00  0.00    -0.036 A 
ATOM     83  H   UNL A   1      43.079  29.103  36.385  1.00  0.00     0.065 H 
ATOM     84  C   UNL A   1      40.636  30.530  34.720  1.00  0.00     0.049 A 
ATOM     85  H   UNL A   1      40.949  29.653  32.858  1.00  0.00     0.167 HD
ATOM     86  C   UNL A   1      41.781  27.771  28.981  1.00  0.00     0.037 A 
ATOM     87  H   UNL A   1      44.101  26.344  29.656  1.00  0.00     0.065 H 
ATOM     88  H   UNL A   1      41.207  30.755  36.858  1.00  0.00     0.065 H 
ATOM     89  C   UNL A   1      39.582  31.357  34.590  1.00  0.00     0.037 A 
ATOM     90  C   UNL A   1      40.596  28.561  28.771  1.00  0.00     0.049 A 
ATOM     91  C   UNL A   1      38.886  31.453  33.258  1.00  0.00     0.074 A 
ATOM     92  C   UNL A   1      39.836  28.689  27.621  1.00  0.00    -0.036 A 
ATOM     93  N   UNL A   1      39.997  29.356  29.737  1.00  0.00    -0.354 N 
ATOM     94  N   UNL A   1      39.156  30.834  32.134  1.00  0.00    -0.248 NA
ATOM     95  C   UNL A   1      37.728  32.355  33.182  1.00  0.00    -0.034 C 
ATOM     96  C   UNL A   1      38.807  29.602  27.878  1.00  0.00    -0.036 A 
ATOM     97  H   UNL A   1      40.001  28.198  26.730  1.00  0.00     0.065 H 
ATOM     98  C   UNL A   1      38.890  29.994  29.205  1.00  0.00     0.049 A 
ATOM     99  H   UNL A   1      40.313  29.452  30.665  1.00  0.00     0.167 HD
ATOM    100  C   UNL A   1      38.180  31.237  31.232  1.00  0.00     0.074 A 
ATOM    101  C   UNL A   1      37.306  32.148  31.943  1.00  0.00    -0.034 C 
ATOM    102  H   UNL A   1      37.345  32.985  33.904  1.00  0.00     0.065 H 
ATOM    103  H   UNL A   1      38.106  29.928  27.195  1.00  0.00     0.065 H 
ATOM    104  C   UNL A   1      38.019  30.883  29.933  1.00  0.00     0.037 A 
ATOM    105  H   UNL A   1      36.463  32.580  31.536  1.00  0.00     0.065 H 
BRANCH  86 106
ATOM    106  C   UNL A   1      42.358  27.022  27.814  1.00  0.00     0.064 A 
ATOM    107  C   UNL A   1      41.990  25.698  27.528  1.00  0.00     0.173 A 
ATOM    108  C   UNL A   1      43.274  27.646  26.953  1.00  0.00     0.173 A 
ATOM    109  F   UNL A   1      41.126  25.050  28.325  1.00  0.00    -0.203 F 
ATOM    110  C   UNL A   1      42.544  25.016  26.448  1.00  0.00     0.198 A 
ATOM    111  C   UNL A   1      43.799  26.972  25.853  1.00  0.00     0.198 A 
ATOM    112  F   UNL A   1      43.657  28.912  27.174  1.00  0.00    -0.203 F 
ATOM    113  F   UNL A   1      42.221  23.733  26.231  1.00  0.00    -0.200 F 
ATOM    114  C   UNL A   1      43.442  25.655  25.607  1.00  0.00     0.200 A 
ATOM    115  F   UNL A   1      44.656  27.596  25.033  1.00  0.00    -0.200 F 
ATOM    116  F   UNL A   1      43.969  24.999  24.565  1.00  0.00    -0.200 F 
ENDBRANCH  86 106
BRANCH  89 117
ATOM    117  C   UNL A   1      39.087  32.125  35.763  1.00  0.00     0.064 A 
ATOM    118  C   UNL A   1      39.478  33.456  35.965  1.00  0.00     0.173 A 
ATOM    119  C   UNL A   1      38.227  31.547  36.707  1.00  0.00     0.173 A 
ATOM    120  F   UNL A   1      40.314  34.047  35.100  1.00  0.00    -0.203 F 
ATOM    121  C   UNL A   1      39.050  34.171  37.082  1.00  0.00     0.198 A 
ATOM    122  C   UNL A   1      37.776  32.273  37.808  1.00  0.00     0.198 A 
ATOM    123  F   UNL A   1      37.817  30.279  36.556  1.00  0.00    -0.203 F 
ATOM    124  F   UNL A   1      39.481  35.425  37.277  1.00  0.00    -0.200 F 
ATOM    125  C   UNL A   1      38.195  33.580  38.000  1.00  0.00     0.200 A 
ATOM    126  F   UNL A   1      36.937  31.704  38.685  1.00  0.00    -0.200 F 
ATOM    127  F   UNL A   1      37.783  34.268  39.073  1.00  0.00    -0.200 F 
ENDBRANCH  89 117
BRANCH 104 128
ATOM    128  C   UNL A   1      36.822  31.432  29.212  1.00  0.00     0.064 A 
ATOM    129  C   UNL A   1      35.714  30.630  28.894  1.00  0.00     0.173 A 
ATOM    130  C   UNL A   1      36.771  32.790  28.861  1.00  0.00     0.173 A 
ATOM    131  F   UNL A   1      35.719  29.324  29.196  1.00  0.00    -0.203 F 
ATOM    132  C   UNL A   1      34.617  31.161  28.221  1.00  0.00     0.198 A 
ATOM    133  C   UNL A   1      35.658  33.324  28.219  1.00  0.00     0.198 A 
ATOM    134  F   UNL A   1      37.798  33.602  29.150  1.00  0.00    -0.203 F 
ATOM    135  F   UNL A   1      33.596  30.364  27.876  1.00  0.00    -0.200 F 
ATOM    136  C   UNL A   1      34.587  32.508  27.890  1.00  0.00     0.200 A 
ATOM    137  F   UNL A   1      35.624  34.629  27.915  1.00  0.00    -0.200 F 
ATOM    138  F   UNL A   1      33.528  33.018  27.246  1.00  0.00    -0.200 F 
ENDBRANCH 104 128
ENDBRANCH  69  72
ENDBRANCH  59  62
ENDBRANCH  55  58
ENDBRANCH  52  55
ENDBRANCH  49  52
ENDBRANCH   1  49
TORSDOF 17
ENDMDL
MODEL 10
REMARK VINA RESULT:     -12.1      7.433     13.206
REMARK SMILES C[C@@H](C(=O)NCCCCCCNC(=O)c1ccc(-c2c3nc(c(-c4c(F)c(F)c(F)c(F)c4F)c4ccc([nH]4)c(-c4c(F)c(F)c(F)c(F)c4F)c4nc(c(-c5c(F)c(F)c(F)c(F)c5F)c5ccc2[nH]5)C=C4)C=C3)cc1)c1ccc2c3cc(Cl)ccc3n(C(=O)c3cocn3)c2c1
REMARK SMILES IDX 8 1 7 4 6 7 5 10 3 11 4 12 2 14 1 16 78 20 79 21 98 22 80 23
REMARK SMILES IDX 97 25 81 27 89 29 82 30 88 31 83 32 87 33 84 34 86 36 85 38
REMARK SMILES IDX 90 40 91 41 92 42 93 43 96 44 94 45 95 47 9 49 10 52 11 55
REMARK SMILES IDX 12 58 13 59 14 61 15 62 16 63 77 64 17 65 76 67 18 69 19 72
REMARK SMILES IDX 20 73 70 74 21 75 75 76 69 77 71 78 22 79 74 80 68 82 67 84
REMARK SMILES IDX 23 86 55 89 35 90 54 91 36 92 39 93 53 94 72 95 37 96 38 98
REMARK SMILES IDX 52 100 73 101 40 104 24 106 25 107 33 108 26 109 27 110
REMARK SMILES IDX 31 111 34 112 28 113 29 114 32 115 30 116 56 117 57 118
REMARK SMILES IDX 65 119 58 120 59 121 63 122 66 123 60 124 61 125 64 126
REMARK SMILES IDX 62 127 41 128 42 129 50 130 43 131 44 132 48 133 51 134
REMARK SMILES IDX 45 135 46 136 49 137 47 138
REMARK H PARENT 8 2 8 3 7 5 7 6 6 8 6 9 5 13 2 15 1 17 1 18 1 19 79 24 98 26
REMARK H PARENT 80 28 83 35 87 37 86 39 93 46 95 48 9 50 9 51 10 53 10 54
REMARK H PARENT 11 56 11 57 12 60 16 66 77 68 17 70 76 71 75 81 69 83 71 85
REMARK H PARENT 74 87 68 88 36 97 39 99 72 102 37 103 73 105
REMARK Flexibility Score: inf
ROOT
ATOM      1  C   UNL A   1      41.305  27.373  28.401  1.00  0.00    -0.052 C 
ATOM      2  H   UNL A   1      41.794  26.432  28.546  1.00  0.00     0.027 H 
ATOM      3  H   UNL A   1      41.955  28.134  28.024  1.00  0.00     0.027 H 
ENDROOT
BRANCH   1   4
ATOM      4  C   UNL A   1      40.810  27.868  29.767  1.00  0.00    -0.036 C 
ATOM      5  H   UNL A   1      39.740  27.865  29.760  1.00  0.00     0.028 H 
ATOM      6  H   UNL A   1      41.218  27.208  30.504  1.00  0.00     0.028 H 
BRANCH   4   7
ATOM      7  C   UNL A   1      41.284  29.278  30.124  1.00  0.00     0.017 C 
ATOM      8  H   UNL A   1      42.294  29.234  30.471  1.00  0.00     0.049 H 
ATOM      9  H   UNL A   1      41.222  29.898  29.253  1.00  0.00     0.049 H 
BRANCH   7  10
ATOM     10  N   UNL A   1      40.449  29.839  31.160  1.00  0.00    -0.356 N 
ATOM     11  C   UNL A   1      39.631  30.926  31.128  1.00  0.00     0.227 C 
ATOM     12  O   UNL A   1      39.128  31.256  32.203  1.00  0.00    -0.274 OA
ATOM     13  H   UNL A   1      40.473  29.361  32.019  1.00  0.00     0.163 HD
BRANCH  11  14
ATOM     14  C   UNL A   1      39.337  31.631  29.788  1.00  0.00     0.060 C 
ATOM     15  H   UNL A   1      40.178  31.411  29.164  1.00  0.00     0.045 H 
BRANCH  14  16
ATOM     16  C   UNL A   1      39.228  33.157  29.909  1.00  0.00    -0.049 C 
ATOM     17  H   UNL A   1      39.636  33.469  30.847  1.00  0.00     0.024 H 
ATOM     18  H   UNL A   1      38.201  33.447  29.851  1.00  0.00     0.024 H 
ATOM     19  H   UNL A   1      39.774  33.617  29.112  1.00  0.00     0.024 H 
ENDBRANCH  14  16
BRANCH  14  20
ATOM     20  C   UNL A   1      38.057  31.096  29.157  1.00  0.00    -0.034 A 
ATOM     21  C   UNL A   1      37.960  29.777  28.716  1.00  0.00    -0.057 A 
ATOM     22  C   UNL A   1      36.956  31.955  29.019  1.00  0.00    -0.033 A 
ATOM     23  C   UNL A   1      36.763  29.298  28.173  1.00  0.00    -0.052 A 
ATOM     24  H   UNL A   1      38.776  29.151  28.791  1.00  0.00     0.063 H 
ATOM     25  C   UNL A   1      35.778  31.488  28.419  1.00  0.00     0.058 A 
ATOM     26  H   UNL A   1      37.012  32.928  29.360  1.00  0.00     0.065 H 
ATOM     27  C   UNL A   1      35.652  30.160  28.036  1.00  0.00     0.008 A 
ATOM     28  H   UNL A   1      36.691  28.312  27.873  1.00  0.00     0.063 H 
ATOM     29  N   UNL A   1      34.587  32.162  28.132  1.00  0.00    -0.274 N 
ATOM     30  C   UNL A   1      34.330  29.992  27.545  1.00  0.00     0.009 A 
ATOM     31  C   UNL A   1      33.698  31.246  27.553  1.00  0.00     0.057 A 
ATOM     32  C   UNL A   1      33.642  28.866  27.045  1.00  0.00    -0.033 A 
ATOM     33  C   UNL A   1      32.434  31.410  26.955  1.00  0.00    -0.036 A 
ATOM     34  C   UNL A   1      32.371  29.026  26.503  1.00  0.00     0.041 A 
ATOM     35  H   UNL A   1      34.080  27.931  27.081  1.00  0.00     0.065 H 
ATOM     36  C   UNL A   1      31.782  30.282  26.438  1.00  0.00    -0.041 A 
ATOM     37  H   UNL A   1      31.996  32.343  26.898  1.00  0.00     0.065 H 
ATOM     38  Cl  UNL A   1      31.544  27.655  25.870  1.00  0.00    -0.084 Cl
ATOM     39  H   UNL A   1      30.852  30.386  26.004  1.00  0.00     0.064 H 
BRANCH  29  40
ATOM     40  C   UNL A   1      34.409  33.556  28.339  1.00  0.00     0.284 C 
ATOM     41  O   UNL A   1      34.694  34.276  27.377  1.00  0.00    -0.266 OA
BRANCH  40  42
ATOM     42  C   UNL A   1      33.964  34.181  29.581  1.00  0.00     0.167 A 
ATOM     43  C   UNL A   1      34.567  34.201  30.822  1.00  0.00     0.124 A 
ATOM     44  N   UNL A   1      32.846  35.007  29.628  1.00  0.00    -0.211 NA
ATOM     45  O   UNL A   1      33.839  35.013  31.643  1.00  0.00    -0.451 OA
ATOM     46  H   UNL A   1      35.423  33.688  31.084  1.00  0.00     0.107 H 
ATOM     47  C   UNL A   1      32.835  35.473  30.851  1.00  0.00     0.181 A 
ATOM     48  H   UNL A   1      32.120  36.137  31.188  1.00  0.00     0.127 H 
ENDBRANCH  40  42
ENDBRANCH  29  40
ENDBRANCH  14  20
ENDBRANCH  11  14
ENDBRANCH   7  10
ENDBRANCH   4   7
ENDBRANCH   1   4
BRANCH   1  49
ATOM     49  C   UNL A   1      40.208  27.183  27.349  1.00  0.00    -0.052 C 
ATOM     50  H   UNL A   1      40.619  27.425  26.392  1.00  0.00     0.027 H 
ATOM     51  H   UNL A   1      39.401  27.824  27.635  1.00  0.00     0.027 H 
BRANCH  49  52
ATOM     52  C   UNL A   1      39.631  25.768  27.276  1.00  0.00    -0.036 C 
ATOM     53  H   UNL A   1      39.614  25.465  26.249  1.00  0.00     0.028 H 
ATOM     54  H   UNL A   1      38.655  25.811  27.713  1.00  0.00     0.028 H 
BRANCH  52  55
ATOM     55  C   UNL A   1      40.418  24.732  28.065  1.00  0.00     0.018 C 
ATOM     56  H   UNL A   1      39.778  24.306  28.811  1.00  0.00     0.049 H 
ATOM     57  H   UNL A   1      41.257  25.222  28.513  1.00  0.00     0.049 H 
BRANCH  55  58
ATOM     58  N   UNL A   1      40.920  23.669  27.214  1.00  0.00    -0.352 N 
ATOM     59  C   UNL A   1      42.018  23.666  26.392  1.00  0.00     0.251 C 
ATOM     60  H   UNL A   1      40.400  22.834  27.230  1.00  0.00     0.163 HD
ATOM     61  O   UNL A   1      42.183  22.761  25.585  1.00  0.00    -0.269 OA
BRANCH  59  62
ATOM     62  C   UNL A   1      43.000  24.770  26.475  1.00  0.00     0.039 A 
ATOM     63  C   UNL A   1      43.110  25.652  25.397  1.00  0.00    -0.049 A 
ATOM     64  C   UNL A   1      43.829  24.916  27.590  1.00  0.00    -0.049 A 
ATOM     65  C   UNL A   1      44.041  26.691  25.448  1.00  0.00    -0.053 A 
ATOM     66  H   UNL A   1      42.508  25.535  24.567  1.00  0.00     0.063 H 
ATOM     67  C   UNL A   1      44.695  26.000  27.676  1.00  0.00    -0.053 A 
ATOM     68  H   UNL A   1      43.798  24.219  28.351  1.00  0.00     0.063 H 
ATOM     69  C   UNL A   1      44.833  26.880  26.593  1.00  0.00    -0.014 A 
ATOM     70  H   UNL A   1      44.148  27.324  24.640  1.00  0.00     0.063 H 
ATOM     71  H   UNL A   1      45.240  26.157  28.539  1.00  0.00     0.063 H 
BRANCH  69  72
ATOM     72  C   UNL A   1      45.853  27.956  26.644  1.00  0.00     0.031 A 
ATOM     73  C   UNL A   1      45.435  29.368  26.956  1.00  0.00     0.074 A 
ATOM     74  C   UNL A   1      47.141  27.675  26.376  1.00  0.00     0.049 A 
ATOM     75  N   UNL A   1      46.163  30.454  27.024  1.00  0.00    -0.248 NA
ATOM     76  C   UNL A   1      44.000  29.596  27.196  1.00  0.00    -0.034 C 
ATOM     77  C   UNL A   1      47.662  26.355  26.016  1.00  0.00    -0.036 A 
ATOM     78  N   UNL A   1      48.250  28.484  26.365  1.00  0.00    -0.354 N 
ATOM     79  C   UNL A   1      45.275  31.488  27.291  1.00  0.00     0.074 A 
ATOM     80  C   UNL A   1      43.950  30.914  27.313  1.00  0.00    -0.034 C 
ATOM     81  H   UNL A   1      43.234  28.908  27.255  1.00  0.00     0.065 H 
ATOM     82  C   UNL A   1      48.992  26.438  25.853  1.00  0.00    -0.036 A 
ATOM     83  H   UNL A   1      47.097  25.498  25.907  1.00  0.00     0.065 H 
ATOM     84  C   UNL A   1      49.413  27.820  26.063  1.00  0.00     0.049 A 
ATOM     85  H   UNL A   1      48.214  29.449  26.555  1.00  0.00     0.167 HD
ATOM     86  C   UNL A   1      45.544  32.796  27.523  1.00  0.00     0.037 A 
ATOM     87  H   UNL A   1      43.078  31.459  27.409  1.00  0.00     0.065 H 
ATOM     88  H   UNL A   1      49.617  25.651  25.616  1.00  0.00     0.065 H 
ATOM     89  C   UNL A   1      50.676  28.277  25.973  1.00  0.00     0.037 A 
ATOM     90  C   UNL A   1      46.870  33.355  27.536  1.00  0.00     0.049 A 
ATOM     91  C   UNL A   1      50.949  29.732  26.248  1.00  0.00     0.074 A 
ATOM     92  C   UNL A   1      47.258  34.652  27.826  1.00  0.00    -0.036 A 
ATOM     93  N   UNL A   1      48.027  32.646  27.247  1.00  0.00    -0.354 N 
ATOM     94  N   UNL A   1      50.112  30.687  26.573  1.00  0.00    -0.248 NA
ATOM     95  C   UNL A   1      52.349  30.169  26.156  1.00  0.00    -0.034 C 
ATOM     96  C   UNL A   1      48.645  34.739  27.662  1.00  0.00    -0.036 A 
ATOM     97  H   UNL A   1      46.633  35.420  28.112  1.00  0.00     0.065 H 
ATOM     98  C   UNL A   1      49.128  33.482  27.331  1.00  0.00     0.049 A 
ATOM     99  H   UNL A   1      48.061  31.689  27.016  1.00  0.00     0.167 HD
ATOM    100  C   UNL A   1      50.885  31.825  26.766  1.00  0.00     0.074 A 
ATOM    101  C   UNL A   1      52.261  31.438  26.530  1.00  0.00    -0.034 C 
ATOM    102  H   UNL A   1      53.182  29.630  25.875  1.00  0.00     0.065 H 
ATOM    103  H   UNL A   1      49.212  35.594  27.770  1.00  0.00     0.065 H 
ATOM    104  C   UNL A   1      50.493  33.075  27.111  1.00  0.00     0.037 A 
ATOM    105  H   UNL A   1      53.069  32.069  26.638  1.00  0.00     0.065 H 
BRANCH  86 106
ATOM    106  C   UNL A   1      44.380  33.709  27.781  1.00  0.00     0.064 A 
ATOM    107  C   UNL A   1      43.787  33.815  29.049  1.00  0.00     0.173 A 
ATOM    108  C   UNL A   1      43.864  34.510  26.750  1.00  0.00     0.173 A 
ATOM    109  F   UNL A   1      44.233  33.063  30.067  1.00  0.00    -0.203 F 
ATOM    110  C   UNL A   1      42.701  34.659  29.266  1.00  0.00     0.198 A 
ATOM    111  C   UNL A   1      42.800  35.379  26.980  1.00  0.00     0.198 A 
ATOM    112  F   UNL A   1      44.395  34.454  25.520  1.00  0.00    -0.203 F 
ATOM    113  F   UNL A   1      42.116  34.698  30.472  1.00  0.00    -0.200 F 
ATOM    114  C   UNL A   1      42.214  35.445  28.234  1.00  0.00     0.200 A 
ATOM    115  F   UNL A   1      42.339  36.149  25.985  1.00  0.00    -0.200 F 
ATOM    116  F   UNL A   1      41.172  36.261  28.446  1.00  0.00    -0.200 F 
ENDBRANCH  86 106
BRANCH  89 117
ATOM    117  C   UNL A   1      51.786  27.343  25.653  1.00  0.00     0.064 A 
ATOM    118  C   UNL A   1      52.141  27.079  24.322  1.00  0.00     0.173 A 
ATOM    119  C   UNL A   1      52.506  26.688  26.662  1.00  0.00     0.173 A 
ATOM    120  F   UNL A   1      51.471  27.666  23.322  1.00  0.00    -0.203 F 
ATOM    121  C   UNL A   1      53.156  26.175  24.013  1.00  0.00     0.198 A 
ATOM    122  C   UNL A   1      53.540  25.806  26.353  1.00  0.00     0.198 A 
ATOM    123  F   UNL A   1      52.211  26.910  27.952  1.00  0.00    -0.203 F 
ATOM    124  F   UNL A   1      53.440  25.903  22.732  1.00  0.00    -0.200 F 
ATOM    125  C   UNL A   1      53.858  25.543  25.029  1.00  0.00     0.200 A 
ATOM    126  F   UNL A   1      54.226  25.209  27.337  1.00  0.00    -0.200 F 
ATOM    127  F   UNL A   1      54.833  24.675  24.731  1.00  0.00    -0.200 F 
ENDBRANCH  89 117
BRANCH 104 128
ATOM    128  C   UNL A   1      51.568  34.104  27.314  1.00  0.00     0.064 A 
ATOM    129  C   UNL A   1      52.013  34.930  26.271  1.00  0.00     0.173 A 
ATOM    130  C   UNL A   1      52.142  34.282  28.583  1.00  0.00     0.173 A 
ATOM    131  F   UNL A   1      51.506  34.790  25.037  1.00  0.00    -0.203 F 
ATOM    132  C   UNL A   1      53.015  35.873  26.482  1.00  0.00     0.198 A 
ATOM    133  C   UNL A   1      53.119  35.250  28.798  1.00  0.00     0.198 A 
ATOM    134  F   UNL A   1      51.747  33.525  29.617  1.00  0.00    -0.203 F 
ATOM    135  F   UNL A   1      53.465  36.611  25.458  1.00  0.00    -0.200 F 
ATOM    136  C   UNL A   1      53.563  36.037  27.747  1.00  0.00     0.200 A 
ATOM    137  F   UNL A   1      53.635  35.417  30.024  1.00  0.00    -0.200 F 
ATOM    138  F   UNL A   1      54.524  36.947  27.949  1.00  0.00    -0.200 F 
ENDBRANCH 104 128
ENDBRANCH  69  72
ENDBRANCH  59  62
ENDBRANCH  55  58
ENDBRANCH  52  55
ENDBRANCH  49  52
ENDBRANCH   1  49
TORSDOF 17
ENDMDL
