MODEL 1
REMARK VINA RESULT:     -12.0      0.000      0.000
REMARK SMILES COc1ccc(-c2noc(CC(=O)NCCCCCCNC(=O)c3ccc(-c4c5nc(c(-c6c(F)c(F)c(F)c(F)c6F)c6ccc([nH]6)c(-c6c(F)c(F)c(F)c(F)c6F)c6nc(c(-c7c(F)c(F)c(F)c(F)c7F)c7ccc4[nH]7)C=C6)C=C5)cc3)c2-c2ccc(OC)cc2)cc1
REMARK SMILES IDX 16 1 15 4 14 7 12 8 13 9 11 11 10 14 7 15 8 16 87 17 9 18
REMARK SMILES IDX 6 19 3 20 4 21 97 22 5 23 96 25 2 29 1 30 88 34 89 35 95 36
REMARK SMILES IDX 90 37 94 39 91 41 92 44 93 45 17 49 18 52 19 55 20 58 21 61
REMARK SMILES IDX 22 62 23 64 24 65 25 66 86 67 26 68 85 70 27 72 28 75 29 76
REMARK SMILES IDX 79 77 30 78 84 79 78 80 80 81 31 82 83 83 77 85 76 87 32 89
REMARK SMILES IDX 64 92 44 93 63 94 45 95 48 96 62 97 81 98 46 99 47 101
REMARK SMILES IDX 61 103 82 104 49 107 33 109 34 110 42 111 35 112 36 113
REMARK SMILES IDX 40 114 43 115 37 116 38 117 41 118 39 119 65 120 66 121
REMARK SMILES IDX 74 122 67 123 68 124 72 125 75 126 69 127 70 128 73 129
REMARK SMILES IDX 71 130 50 131 51 132 59 133 52 134 53 135 57 136 60 137
REMARK SMILES IDX 54 138 55 139 58 140 56 141
REMARK H PARENT 16 2 16 3 15 5 15 6 14 10 11 12 11 13 4 24 97 26 5 27 96 28
REMARK H PARENT 1 31 1 32 1 33 89 38 95 40 90 42 94 43 93 46 93 47 93 48 17 50
REMARK H PARENT 17 51 18 53 18 54 19 56 19 57 20 59 20 60 21 63 25 69 86 71
REMARK H PARENT 26 73 85 74 84 84 78 86 80 88 83 90 77 91 45 100 48 102 81 105
REMARK H PARENT 46 106 82 108
REMARK Flexibility Score: inf
ROOT
ATOM      1  C   UNL A   1      30.388  28.834  22.846  1.00  0.00    -0.036 C 
ATOM      2  H   UNL A   1      29.355  29.093  22.950  1.00  0.00     0.028 H 
ATOM      3  H   UNL A   1      30.844  29.312  22.003  1.00  0.00     0.028 H 
ENDROOT
BRANCH   1   4
ATOM      4  C   UNL A   1      30.489  27.326  22.616  1.00  0.00     0.017 C 
ATOM      5  H   UNL A   1      30.638  26.837  23.557  1.00  0.00     0.049 H 
ATOM      6  H   UNL A   1      29.583  26.987  22.160  1.00  0.00     0.049 H 
BRANCH   4   7
ATOM      7  N   UNL A   1      31.597  27.010  21.737  1.00  0.00    -0.356 N 
ATOM      8  C   UNL A   1      32.798  26.436  22.043  1.00  0.00     0.227 C 
ATOM      9  O   UNL A   1      33.646  26.353  21.154  1.00  0.00    -0.275 OA
ATOM     10  H   UNL A   1      31.466  27.242  20.790  1.00  0.00     0.163 HD
BRANCH   8  11
ATOM     11  C   UNL A   1      33.026  25.823  23.410  1.00  0.00     0.088 C 
ATOM     12  H   UNL A   1      34.061  25.922  23.660  1.00  0.00     0.045 H 
ATOM     13  H   UNL A   1      32.397  26.341  24.103  1.00  0.00     0.045 H 
BRANCH  11  14
ATOM     14  C   UNL A   1      32.660  24.387  23.466  1.00  0.00     0.154 A 
ATOM     15  C   UNL A   1      32.346  22.202  23.677  1.00  0.00     0.122 A 
ATOM     16  N   UNL A   1      31.231  22.691  23.116  1.00  0.00    -0.079 NA
ATOM     17  C   UNL A   1      33.298  23.241  23.896  1.00  0.00     0.053 A 
ATOM     18  O   UNL A   1      31.420  24.056  23.011  1.00  0.00    -0.360 OA
BRANCH  15  19
ATOM     19  C   UNL A   1      32.486  20.789  24.001  1.00  0.00     0.005 A 
ATOM     20  C   UNL A   1      32.682  18.060  24.605  1.00  0.00     0.118 A 
ATOM     21  C   UNL A   1      32.806  19.015  25.617  1.00  0.00    -0.019 A 
ATOM     22  C   UNL A   1      32.432  18.464  23.296  1.00  0.00    -0.019 A 
ATOM     23  C   UNL A   1      32.726  20.378  25.316  1.00  0.00    -0.049 A 
ATOM     24  H   UNL A   1      32.957  18.711  26.592  1.00  0.00     0.066 H 
ATOM     25  C   UNL A   1      32.338  19.826  22.994  1.00  0.00    -0.049 A 
ATOM     26  H   UNL A   1      32.317  17.761  22.550  1.00  0.00     0.066 H 
ATOM     27  H   UNL A   1      32.844  21.079  26.065  1.00  0.00     0.063 H 
ATOM     28  H   UNL A   1      32.157  20.124  22.023  1.00  0.00     0.063 H 
BRANCH  20  29
ATOM     29  O   UNL A   1      32.768  16.753  24.998  1.00  0.00    -0.497 OA
BRANCH  29  30
ATOM     30  C   UNL A   1      34.105  16.287  25.165  1.00  0.00     0.078 C 
ATOM     31  H   UNL A   1      34.210  15.328  24.703  1.00  0.00     0.067 H 
ATOM     32  H   UNL A   1      34.327  16.204  26.208  1.00  0.00     0.067 H 
ATOM     33  H   UNL A   1      34.784  16.978  24.709  1.00  0.00     0.067 H 
ENDBRANCH  29  30
ENDBRANCH  20  29
ENDBRANCH  15  19
BRANCH  17  34
ATOM     34  C   UNL A   1      34.666  23.170  24.370  1.00  0.00    -0.012 A 
ATOM     35  C   UNL A   1      34.985  23.687  25.632  1.00  0.00    -0.050 A 
ATOM     36  C   UNL A   1      35.677  22.598  23.593  1.00  0.00    -0.050 A 
ATOM     37  C   UNL A   1      36.293  23.617  26.111  1.00  0.00    -0.019 A 
ATOM     38  H   UNL A   1      34.248  24.123  26.209  1.00  0.00     0.063 H 
ATOM     39  C   UNL A   1      36.990  22.530  24.078  1.00  0.00    -0.019 A 
ATOM     40  H   UNL A   1      35.456  22.223  22.657  1.00  0.00     0.063 H 
ATOM     41  C   UNL A   1      37.302  23.038  25.340  1.00  0.00     0.118 A 
ATOM     42  H   UNL A   1      36.517  23.996  27.045  1.00  0.00     0.066 H 
ATOM     43  H   UNL A   1      37.730  22.102  23.498  1.00  0.00     0.066 H 
BRANCH  41  44
ATOM     44  O   UNL A   1      38.534  23.032  25.931  1.00  0.00    -0.497 OA
BRANCH  44  45
ATOM     45  C   UNL A   1      38.828  24.103  26.819  1.00  0.00     0.078 C 
ATOM     46  H   UNL A   1      39.639  24.680  26.425  1.00  0.00     0.067 H 
ATOM     47  H   UNL A   1      39.101  23.709  27.775  1.00  0.00     0.067 H 
ATOM     48  H   UNL A   1      37.965  24.727  26.924  1.00  0.00     0.067 H 
ENDBRANCH  44  45
ENDBRANCH  41  44
ENDBRANCH  17  34
ENDBRANCH  11  14
ENDBRANCH   8  11
ENDBRANCH   4   7
ENDBRANCH   1   4
BRANCH   1  49
ATOM     49  C   UNL A   1      31.137  29.316  24.096  1.00  0.00    -0.052 C 
ATOM     50  H   UNL A   1      30.670  30.216  24.436  1.00  0.00     0.027 H 
ATOM     51  H   UNL A   1      32.156  29.451  23.800  1.00  0.00     0.027 H 
BRANCH  49  52
ATOM     52  C   UNL A   1      31.159  28.320  25.262  1.00  0.00    -0.052 C 
ATOM     53  H   UNL A   1      31.010  27.339  24.863  1.00  0.00     0.027 H 
ATOM     54  H   UNL A   1      30.384  28.630  25.932  1.00  0.00     0.027 H 
BRANCH  52  55
ATOM     55  C   UNL A   1      32.451  28.306  26.083  1.00  0.00    -0.036 C 
ATOM     56  H   UNL A   1      32.901  27.342  25.980  1.00  0.00     0.028 H 
ATOM     57  H   UNL A   1      32.172  28.536  27.090  1.00  0.00     0.028 H 
BRANCH  55  58
ATOM     58  C   UNL A   1      33.480  29.357  25.672  1.00  0.00     0.018 C 
ATOM     59  H   UNL A   1      33.555  29.366  24.605  1.00  0.00     0.049 H 
ATOM     60  H   UNL A   1      34.415  29.098  26.125  1.00  0.00     0.049 H 
BRANCH  58  61
ATOM     61  N   UNL A   1      33.113  30.688  26.130  1.00  0.00    -0.352 N 
ATOM     62  C   UNL A   1      33.622  31.429  27.162  1.00  0.00     0.251 C 
ATOM     63  H   UNL A   1      32.392  31.121  25.620  1.00  0.00     0.163 HD
ATOM     64  O   UNL A   1      33.049  32.460  27.519  1.00  0.00    -0.269 OA
BRANCH  62  65
ATOM     65  C   UNL A   1      34.847  30.998  27.867  1.00  0.00     0.039 A 
ATOM     66  C   UNL A   1      35.921  31.889  27.955  1.00  0.00    -0.049 A 
ATOM     67  C   UNL A   1      34.961  29.710  28.400  1.00  0.00    -0.049 A 
ATOM     68  C   UNL A   1      37.090  31.507  28.619  1.00  0.00    -0.053 A 
ATOM     69  H   UNL A   1      35.851  32.827  27.532  1.00  0.00     0.063 H 
ATOM     70  C   UNL A   1      36.103  29.351  29.114  1.00  0.00    -0.053 A 
ATOM     71  H   UNL A   1      34.199  29.027  28.266  1.00  0.00     0.063 H 
ATOM     72  C   UNL A   1      37.180  30.243  29.224  1.00  0.00    -0.014 A 
ATOM     73  H   UNL A   1      37.890  32.157  28.665  1.00  0.00     0.063 H 
ATOM     74  H   UNL A   1      36.156  28.423  29.564  1.00  0.00     0.063 H 
BRANCH  72  75
ATOM     75  C   UNL A   1      38.401  29.837  29.965  1.00  0.00     0.031 A 
ATOM     76  C   UNL A   1      38.667  30.381  31.340  1.00  0.00     0.074 A 
ATOM     77  C   UNL A   1      39.294  29.019  29.378  1.00  0.00     0.049 A 
ATOM     78  N   UNL A   1      39.698  30.185  32.123  1.00  0.00    -0.248 NA
ATOM     79  C   UNL A   1      37.649  31.282  31.902  1.00  0.00    -0.034 C 
ATOM     80  C   UNL A   1      39.170  28.459  28.032  1.00  0.00    -0.036 A 
ATOM     81  N   UNL A   1      40.488  28.522  29.836  1.00  0.00    -0.354 N 
ATOM     82  C   UNL A   1      39.460  30.947  33.259  1.00  0.00     0.074 A 
ATOM     83  C   UNL A   1      38.209  31.645  33.046  1.00  0.00    -0.034 C 
ATOM     84  H   UNL A   1      36.736  31.560  31.508  1.00  0.00     0.065 H 
ATOM     85  C   UNL A   1      40.234  27.680  27.779  1.00  0.00    -0.036 A 
ATOM     86  H   UNL A   1      38.388  28.634  27.381  1.00  0.00     0.065 H 
ATOM     87  C   UNL A   1      41.130  27.711  28.933  1.00  0.00     0.049 A 
ATOM     88  H   UNL A   1      40.851  28.728  30.728  1.00  0.00     0.167 HD
ATOM     89  C   UNL A   1      40.206  31.040  34.385  1.00  0.00     0.037 A 
ATOM     90  H   UNL A   1      37.809  32.335  33.700  1.00  0.00     0.065 H 
ATOM     91  H   UNL A   1      40.394  27.147  26.911  1.00  0.00     0.065 H 
ATOM     92  C   UNL A   1      42.308  27.066  29.025  1.00  0.00     0.037 A 
ATOM     93  C   UNL A   1      41.434  30.324  34.607  1.00  0.00     0.049 A 
ATOM     94  C   UNL A   1      43.115  27.183  30.289  1.00  0.00     0.074 A 
ATOM     95  C   UNL A   1      42.232  30.306  35.738  1.00  0.00    -0.036 A 
ATOM     96  N   UNL A   1      42.043  29.496  33.675  1.00  0.00    -0.354 N 
ATOM     97  N   UNL A   1      42.849  27.857  31.381  1.00  0.00    -0.248 NA
ATOM     98  C   UNL A   1      44.384  26.444  30.333  1.00  0.00    -0.034 C 
ATOM     99  C   UNL A   1      43.343  29.496  35.478  1.00  0.00    -0.036 A 
ATOM    100  H   UNL A   1      42.041  30.804  36.622  1.00  0.00     0.065 H 
ATOM    101  C   UNL A   1      43.216  28.977  34.200  1.00  0.00     0.049 A 
ATOM    102  H   UNL A   1      41.694  29.307  32.774  1.00  0.00     0.167 HD
ATOM    103  C   UNL A   1      43.900  27.604  32.250  1.00  0.00     0.074 A 
ATOM    104  C   UNL A   1      44.803  26.703  31.565  1.00  0.00    -0.034 C 
ATOM    105  H   UNL A   1      44.832  25.873  29.600  1.00  0.00     0.065 H 
ATOM    106  H   UNL A   1      44.124  29.316  36.127  1.00  0.00     0.065 H 
ATOM    107  C   UNL A   1      44.099  28.075  33.505  1.00  0.00     0.037 A 
ATOM    108  H   UNL A   1      45.663  26.312  31.981  1.00  0.00     0.065 H 
BRANCH  89 109
ATOM    109  C   UNL A   1      39.708  31.945  35.473  1.00  0.00     0.064 A 
ATOM    110  C   UNL A   1      38.760  31.511  36.413  1.00  0.00     0.173 A 
ATOM    111  C   UNL A   1      40.209  33.250  35.602  1.00  0.00     0.173 A 
ATOM    112  F   UNL A   1      38.242  30.277  36.326  1.00  0.00    -0.203 F 
ATOM    113  C   UNL A   1      38.314  32.357  37.424  1.00  0.00     0.198 A 
ATOM    114  C   UNL A   1      39.781  34.084  36.630  1.00  0.00     0.198 A 
ATOM    115  F   UNL A   1      41.122  33.713  34.734  1.00  0.00    -0.203 F 
ATOM    116  F   UNL A   1      37.375  31.935  38.283  1.00  0.00    -0.200 F 
ATOM    117  C   UNL A   1      38.829  33.640  37.537  1.00  0.00     0.200 A 
ATOM    118  F   UNL A   1      40.288  35.319  36.746  1.00  0.00    -0.200 F 
ATOM    119  F   UNL A   1      38.402  34.452  38.514  1.00  0.00    -0.200 F 
ENDBRANCH  89 109
BRANCH  92 120
ATOM    120  C   UNL A   1      42.782  26.227  27.895  1.00  0.00     0.064 A 
ATOM    121  C   UNL A   1      42.394  24.884  27.789  1.00  0.00     0.173 A 
ATOM    122  C   UNL A   1      43.629  26.744  26.905  1.00  0.00     0.173 A 
ATOM    123  F   UNL A   1      41.602  24.340  28.724  1.00  0.00    -0.203 F 
ATOM    124  C   UNL A   1      42.850  24.085  26.742  1.00  0.00     0.198 A 
ATOM    125  C   UNL A   1      44.064  25.950  25.846  1.00  0.00     0.198 A 
ATOM    126  F   UNL A   1      44.024  28.023  26.961  1.00  0.00    -0.203 F 
ATOM    127  F   UNL A   1      42.497  22.794  26.686  1.00  0.00    -0.200 F 
ATOM    128  C   UNL A   1      43.679  24.620  25.769  1.00  0.00     0.200 A 
ATOM    129  F   UNL A   1      44.856  26.474  24.900  1.00  0.00    -0.200 F 
ATOM    130  F   UNL A   1      44.115  23.852  24.761  1.00  0.00    -0.200 F 
ENDBRANCH  92 120
BRANCH 107 131
ATOM    131  C   UNL A   1      45.324  27.602  34.229  1.00  0.00     0.064 A 
ATOM    132  C   UNL A   1      46.531  28.314  34.172  1.00  0.00     0.173 A 
ATOM    133  C   UNL A   1      45.279  26.443  35.020  1.00  0.00     0.173 A 
ATOM    134  F   UNL A   1      46.628  29.418  33.416  1.00  0.00    -0.203 F 
ATOM    135  C   UNL A   1      47.656  27.871  34.862  1.00  0.00     0.198 A 
ATOM    136  C   UNL A   1      46.398  26.018  35.729  1.00  0.00     0.198 A 
ATOM    137  F   UNL A   1      44.146  25.731  35.111  1.00  0.00    -0.203 F 
ATOM    138  F   UNL A   1      48.811  28.542  34.759  1.00  0.00    -0.200 F 
ATOM    139  C   UNL A   1      47.586  26.728  35.646  1.00  0.00     0.200 A 
ATOM    140  F   UNL A   1      46.327  24.920  36.494  1.00  0.00    -0.200 F 
ATOM    141  F   UNL A   1      48.668  26.306  36.314  1.00  0.00    -0.200 F 
ENDBRANCH 107 131
ENDBRANCH  72  75
ENDBRANCH  62  65
ENDBRANCH  58  61
ENDBRANCH  55  58
ENDBRANCH  52  55
ENDBRANCH  49  52
ENDBRANCH   1  49
TORSDOF 20
ENDMDL
MODEL 2
REMARK VINA RESULT:     -11.9      4.439      8.633
REMARK SMILES COc1ccc(-c2noc(CC(=O)NCCCCCCNC(=O)c3ccc(-c4c5nc(c(-c6c(F)c(F)c(F)c(F)c6F)c6ccc([nH]6)c(-c6c(F)c(F)c(F)c(F)c6F)c6nc(c(-c7c(F)c(F)c(F)c(F)c7F)c7ccc4[nH]7)C=C6)C=C5)cc3)c2-c2ccc(OC)cc2)cc1
REMARK SMILES IDX 16 1 15 4 14 7 12 8 13 9 11 11 10 14 7 15 8 16 87 17 9 18
REMARK SMILES IDX 6 19 3 20 4 21 97 22 5 23 96 25 2 29 1 30 88 34 89 35 95 36
REMARK SMILES IDX 90 37 94 39 91 41 92 44 93 45 17 49 18 52 19 55 20 58 21 61
REMARK SMILES IDX 22 62 23 64 24 65 25 66 86 67 26 68 85 70 27 72 28 75 29 76
REMARK SMILES IDX 79 77 30 78 84 79 78 80 80 81 31 82 83 83 77 85 76 87 32 89
REMARK SMILES IDX 64 92 44 93 63 94 45 95 48 96 62 97 81 98 46 99 47 101
REMARK SMILES IDX 61 103 82 104 49 107 33 109 34 110 42 111 35 112 36 113
REMARK SMILES IDX 40 114 43 115 37 116 38 117 41 118 39 119 65 120 66 121
REMARK SMILES IDX 74 122 67 123 68 124 72 125 75 126 69 127 70 128 73 129
REMARK SMILES IDX 71 130 50 131 51 132 59 133 52 134 53 135 57 136 60 137
REMARK SMILES IDX 54 138 55 139 58 140 56 141
REMARK H PARENT 16 2 16 3 15 5 15 6 14 10 11 12 11 13 4 24 97 26 5 27 96 28
REMARK H PARENT 1 31 1 32 1 33 89 38 95 40 90 42 94 43 93 46 93 47 93 48 17 50
REMARK H PARENT 17 51 18 53 18 54 19 56 19 57 20 59 20 60 21 63 25 69 86 71
REMARK H PARENT 26 73 85 74 84 84 78 86 80 88 83 90 77 91 45 100 48 102 81 105
REMARK H PARENT 46 106 82 108
REMARK Flexibility Score: inf
ROOT
ATOM      1  C   UNL A   1      34.281  20.437  25.004  1.00  0.00    -0.036 C 
ATOM      2  H   UNL A   1      34.060  19.747  24.217  1.00  0.00     0.028 H 
ATOM      3  H   UNL A   1      34.036  20.043  25.970  1.00  0.00     0.028 H 
ENDROOT
BRANCH   1   4
ATOM      4  C   UNL A   1      33.432  21.692  24.802  1.00  0.00     0.017 C 
ATOM      5  H   UNL A   1      34.077  22.540  24.700  1.00  0.00     0.049 H 
ATOM      6  H   UNL A   1      32.840  21.566  23.919  1.00  0.00     0.049 H 
BRANCH   4   7
ATOM      7  N   UNL A   1      32.545  21.903  25.928  1.00  0.00    -0.356 N 
ATOM      8  C   UNL A   1      32.307  23.051  26.628  1.00  0.00     0.227 C 
ATOM      9  O   UNL A   1      31.587  22.984  27.627  1.00  0.00    -0.275 OA
ATOM     10  H   UNL A   1      32.048  21.110  26.231  1.00  0.00     0.163 HD
BRANCH   8  11
ATOM     11  C   UNL A   1      32.825  24.379  26.117  1.00  0.00     0.088 C 
ATOM     12  H   UNL A   1      33.050  25.004  26.956  1.00  0.00     0.045 H 
ATOM     13  H   UNL A   1      33.695  24.179  25.527  1.00  0.00     0.045 H 
BRANCH  11  14
ATOM     14  C   UNL A   1      31.851  25.083  25.249  1.00  0.00     0.154 A 
ATOM     15  C   UNL A   1      30.511  26.364  24.031  1.00  0.00     0.122 A 
ATOM     16  N   UNL A   1      30.187  25.096  23.742  1.00  0.00    -0.079 NA
ATOM     17  C   UNL A   1      31.550  26.409  25.008  1.00  0.00     0.053 A 
ATOM     18  O   UNL A   1      31.042  24.302  24.482  1.00  0.00    -0.360 OA
BRANCH  15  19
ATOM     19  C   UNL A   1      29.854  27.492  23.385  1.00  0.00     0.005 A 
ATOM     20  C   UNL A   1      28.630  29.711  22.190  1.00  0.00     0.118 A 
ATOM     21  C   UNL A   1      27.868  28.794  22.916  1.00  0.00    -0.019 A 
ATOM     22  C   UNL A   1      30.008  29.537  22.082  1.00  0.00    -0.019 A 
ATOM     23  C   UNL A   1      28.472  27.677  23.500  1.00  0.00    -0.049 A 
ATOM     24  H   UNL A   1      26.852  28.943  23.024  1.00  0.00     0.066 H 
ATOM     25  C   UNL A   1      30.618  28.429  22.676  1.00  0.00    -0.049 A 
ATOM     26  H   UNL A   1      30.578  30.225  21.565  1.00  0.00     0.066 H 
ATOM     27  H   UNL A   1      27.899  26.989  24.014  1.00  0.00     0.063 H 
ATOM     28  H   UNL A   1      31.638  28.299  22.592  1.00  0.00     0.063 H 
BRANCH  20  29
ATOM     29  O   UNL A   1      27.950  30.774  21.662  1.00  0.00    -0.497 OA
BRANCH  29  30
ATOM     30  C   UNL A   1      28.532  32.040  21.963  1.00  0.00     0.078 C 
ATOM     31  H   UNL A   1      29.247  31.926  22.750  1.00  0.00     0.067 H 
ATOM     32  H   UNL A   1      27.767  32.720  22.272  1.00  0.00     0.067 H 
ATOM     33  H   UNL A   1      29.020  32.424  21.091  1.00  0.00     0.067 H 
ENDBRANCH  29  30
ENDBRANCH  20  29
ENDBRANCH  15  19
BRANCH  17  34
ATOM     34  C   UNL A   1      32.137  27.542  25.696  1.00  0.00    -0.012 A 
ATOM     35  C   UNL A   1      33.469  27.889  25.437  1.00  0.00    -0.050 A 
ATOM     36  C   UNL A   1      31.403  28.295  26.616  1.00  0.00    -0.050 A 
ATOM     37  C   UNL A   1      34.048  28.983  26.080  1.00  0.00    -0.019 A 
ATOM     38  H   UNL A   1      34.024  27.333  24.768  1.00  0.00     0.063 H 
ATOM     39  C   UNL A   1      31.989  29.393  27.260  1.00  0.00    -0.019 A 
ATOM     40  H   UNL A   1      30.424  28.042  26.822  1.00  0.00     0.063 H 
ATOM     41  C   UNL A   1      33.314  29.742  26.993  1.00  0.00     0.118 A 
ATOM     42  H   UNL A   1      35.029  29.235  25.878  1.00  0.00     0.066 H 
ATOM     43  H   UNL A   1      31.439  29.947  27.936  1.00  0.00     0.066 H 
BRANCH  41  44
ATOM     44  O   UNL A   1      34.002  30.785  27.545  1.00  0.00    -0.497 OA
BRANCH  44  45
ATOM     45  C   UNL A   1      33.326  32.034  27.625  1.00  0.00     0.078 C 
ATOM     46  H   UNL A   1      33.922  32.725  28.184  1.00  0.00     0.067 H 
ATOM     47  H   UNL A   1      32.384  31.899  28.112  1.00  0.00     0.067 H 
ATOM     48  H   UNL A   1      33.167  32.418  26.639  1.00  0.00     0.067 H 
ENDBRANCH  44  45
ENDBRANCH  41  44
ENDBRANCH  17  34
ENDBRANCH  11  14
ENDBRANCH   8  11
ENDBRANCH   4   7
ENDBRANCH   1   4
BRANCH   1  49
ATOM     49  C   UNL A   1      35.791  20.711  25.000  1.00  0.00    -0.052 C 
ATOM     50  H   UNL A   1      36.026  21.285  25.872  1.00  0.00     0.027 H 
ATOM     51  H   UNL A   1      35.999  21.223  24.085  1.00  0.00     0.027 H 
BRANCH  49  52
ATOM     52  C   UNL A   1      36.677  19.459  25.001  1.00  0.00    -0.052 C 
ATOM     53  H   UNL A   1      36.267  18.763  24.299  1.00  0.00     0.027 H 
ATOM     54  H   UNL A   1      36.680  19.098  26.008  1.00  0.00     0.027 H 
BRANCH  52  55
ATOM     55  C   UNL A   1      38.143  19.698  24.629  1.00  0.00    -0.036 C 
ATOM     56  H   UNL A   1      38.183  20.513  23.938  1.00  0.00     0.028 H 
ATOM     57  H   UNL A   1      38.505  18.779  24.220  1.00  0.00     0.028 H 
BRANCH  55  58
ATOM     58  C   UNL A   1      39.054  20.032  25.808  1.00  0.00     0.018 C 
ATOM     59  H   UNL A   1      38.472  20.028  26.706  1.00  0.00     0.049 H 
ATOM     60  H   UNL A   1      39.486  20.995  25.630  1.00  0.00     0.049 H 
BRANCH  58  61
ATOM     61  N   UNL A   1      40.139  19.073  25.948  1.00  0.00    -0.352 N 
ATOM     62  C   UNL A   1      41.480  19.288  26.121  1.00  0.00     0.251 C 
ATOM     63  H   UNL A   1      39.868  18.127  25.913  1.00  0.00     0.163 HD
ATOM     64  O   UNL A   1      42.271  18.348  26.024  1.00  0.00    -0.269 OA
BRANCH  62  65
ATOM     65  C   UNL A   1      41.995  20.643  26.410  1.00  0.00     0.039 A 
ATOM     66  C   UNL A   1      42.259  21.503  25.340  1.00  0.00    -0.049 A 
ATOM     67  C   UNL A   1      42.261  21.053  27.720  1.00  0.00    -0.049 A 
ATOM     68  C   UNL A   1      42.743  22.791  25.585  1.00  0.00    -0.053 A 
ATOM     69  H   UNL A   1      42.095  21.189  24.371  1.00  0.00     0.063 H 
ATOM     70  C   UNL A   1      42.687  22.356  27.968  1.00  0.00    -0.053 A 
ATOM     71  H   UNL A   1      42.141  20.391  28.502  1.00  0.00     0.063 H 
ATOM     72  C   UNL A   1      42.939  23.235  26.903  1.00  0.00    -0.014 A 
ATOM     73  H   UNL A   1      42.958  23.418  24.795  1.00  0.00     0.063 H 
ATOM     74  H   UNL A   1      42.818  22.677  28.940  1.00  0.00     0.063 H 
BRANCH  72  75
ATOM     75  C   UNL A   1      43.417  24.612  27.181  1.00  0.00     0.031 A 
ATOM     76  C   UNL A   1      42.476  25.641  27.741  1.00  0.00     0.074 A 
ATOM     77  C   UNL A   1      44.685  24.949  26.881  1.00  0.00     0.049 A 
ATOM     78  N   UNL A   1      42.692  26.906  28.003  1.00  0.00    -0.248 NA
ATOM     79  C   UNL A   1      41.103  25.195  28.026  1.00  0.00    -0.034 C 
ATOM     80  C   UNL A   1      45.681  24.052  26.294  1.00  0.00    -0.036 A 
ATOM     81  N   UNL A   1      45.351  26.141  27.019  1.00  0.00    -0.354 N 
ATOM     82  C   UNL A   1      41.484  27.408  28.467  1.00  0.00     0.074 A 
ATOM     83  C   UNL A   1      40.525  26.324  28.409  1.00  0.00    -0.034 C 
ATOM     84  H   UNL A   1      40.696  24.251  27.947  1.00  0.00     0.065 H 
ATOM     85  C   UNL A   1      46.837  24.718  26.141  1.00  0.00    -0.036 A 
ATOM     86  H   UNL A   1      45.521  23.065  26.039  1.00  0.00     0.065 H 
ATOM     87  C   UNL A   1      46.654  26.097  26.589  1.00  0.00     0.049 A 
ATOM     88  H   UNL A   1      44.934  26.951  27.393  1.00  0.00     0.167 HD
ATOM     89  C   UNL A   1      41.204  28.653  28.920  1.00  0.00     0.037 A 
ATOM     90  H   UNL A   1      39.523  26.420  28.636  1.00  0.00     0.065 H 
ATOM     91  H   UNL A   1      47.712  24.322  25.767  1.00  0.00     0.065 H 
ATOM     92  C   UNL A   1      47.594  27.060  26.559  1.00  0.00     0.037 A 
ATOM     93  C   UNL A   1      42.165  29.721  29.004  1.00  0.00     0.049 A 
ATOM     94  C   UNL A   1      47.259  28.433  27.072  1.00  0.00     0.074 A 
ATOM     95  C   UNL A   1      41.993  31.001  29.503  1.00  0.00    -0.036 A 
ATOM     96  N   UNL A   1      43.481  29.633  28.576  1.00  0.00    -0.354 N 
ATOM     97  N   UNL A   1      46.130  28.878  27.567  1.00  0.00    -0.248 NA
ATOM     98  C   UNL A   1      48.332  29.436  27.027  1.00  0.00    -0.034 C 
ATOM     99  C   UNL A   1      43.196  31.698  29.345  1.00  0.00    -0.036 A 
ATOM    100  H   UNL A   1      41.128  31.376  29.921  1.00  0.00     0.065 H 
ATOM    101  C   UNL A   1      44.128  30.840  28.784  1.00  0.00     0.049 A 
ATOM    102  H   UNL A   1      43.894  28.830  28.181  1.00  0.00     0.167 HD
ATOM    103  C   UNL A   1      46.362  30.201  27.916  1.00  0.00     0.074 A 
ATOM    104  C   UNL A   1      47.745  30.484  27.588  1.00  0.00    -0.034 C 
ATOM    105  H   UNL A   1      49.291  29.349  26.656  1.00  0.00     0.065 H 
ATOM    106  H   UNL A   1      43.360  32.684  29.601  1.00  0.00     0.065 H 
ATOM    107  C   UNL A   1      45.507  31.101  28.459  1.00  0.00     0.037 A 
ATOM    108  H   UNL A   1      48.213  31.386  27.770  1.00  0.00     0.065 H 
BRANCH  89 109
ATOM    109  C   UNL A   1      39.800  28.927  29.370  1.00  0.00     0.064 A 
ATOM    110  C   UNL A   1      38.828  29.420  28.485  1.00  0.00     0.173 A 
ATOM    111  C   UNL A   1      39.409  28.662  30.692  1.00  0.00     0.173 A 
ATOM    112  F   UNL A   1      39.154  29.700  27.215  1.00  0.00    -0.203 F 
ATOM    113  C   UNL A   1      37.525  29.661  28.912  1.00  0.00     0.198 A 
ATOM    114  C   UNL A   1      38.098  28.879  31.108  1.00  0.00     0.198 A 
ATOM    115  F   UNL A   1      40.296  28.184  31.577  1.00  0.00    -0.203 F 
ATOM    116  F   UNL A   1      36.627  30.174  28.060  1.00  0.00    -0.200 F 
ATOM    117  C   UNL A   1      37.159  29.385  30.221  1.00  0.00     0.200 A 
ATOM    118  F   UNL A   1      37.742  28.600  32.370  1.00  0.00    -0.200 F 
ATOM    119  F   UNL A   1      35.903  29.612  30.630  1.00  0.00    -0.200 F 
ENDBRANCH  89 109
BRANCH  92 120
ATOM    120  C   UNL A   1      48.955  26.749  26.051  1.00  0.00     0.064 A 
ATOM    121  C   UNL A   1      49.925  26.192  26.895  1.00  0.00     0.173 A 
ATOM    122  C   UNL A   1      49.313  27.003  24.720  1.00  0.00     0.173 A 
ATOM    123  F   UNL A   1      49.635  25.952  28.182  1.00  0.00    -0.203 F 
ATOM    124  C   UNL A   1      51.209  25.916  26.430  1.00  0.00     0.198 A 
ATOM    125  C   UNL A   1      50.590  26.703  24.250  1.00  0.00     0.198 A 
ATOM    126  F   UNL A   1      48.419  27.532  23.873  1.00  0.00    -0.203 F 
ATOM    127  F   UNL A   1      52.130  25.421  27.268  1.00  0.00    -0.200 F 
ATOM    128  C   UNL A   1      51.539  26.166  25.107  1.00  0.00     0.200 A 
ATOM    129  F   UNL A   1      50.902  26.936  22.967  1.00  0.00    -0.200 F 
ATOM    130  F   UNL A   1      52.773  25.898  24.659  1.00  0.00    -0.200 F 
ENDBRANCH  92 120
BRANCH 107 131
ATOM    131  C   UNL A   1      46.049  32.466  28.762  1.00  0.00     0.064 A 
ATOM    132  C   UNL A   1      46.663  32.756  29.989  1.00  0.00     0.173 A 
ATOM    133  C   UNL A   1      45.987  33.486  27.799  1.00  0.00     0.173 A 
ATOM    134  F   UNL A   1      46.731  31.820  30.948  1.00  0.00    -0.203 F 
ATOM    135  C   UNL A   1      47.175  34.024  30.250  1.00  0.00     0.198 A 
ATOM    136  C   UNL A   1      46.524  34.743  28.054  1.00  0.00     0.198 A 
ATOM    137  F   UNL A   1      45.415  33.256  26.608  1.00  0.00    -0.203 F 
ATOM    138  F   UNL A   1      47.719  34.292  31.445  1.00  0.00    -0.200 F 
ATOM    139  C   UNL A   1      47.112  35.014  29.280  1.00  0.00     0.200 A 
ATOM    140  F   UNL A   1      46.472  35.696  27.112  1.00  0.00    -0.200 F 
ATOM    141  F   UNL A   1      47.611  36.232  29.531  1.00  0.00    -0.200 F 
ENDBRANCH 107 131
ENDBRANCH  72  75
ENDBRANCH  62  65
ENDBRANCH  58  61
ENDBRANCH  55  58
ENDBRANCH  52  55
ENDBRANCH  49  52
ENDBRANCH   1  49
TORSDOF 20
ENDMDL
MODEL 3
REMARK VINA RESULT:     -11.8      1.499      2.237
REMARK SMILES COc1ccc(-c2noc(CC(=O)NCCCCCCNC(=O)c3ccc(-c4c5nc(c(-c6c(F)c(F)c(F)c(F)c6F)c6ccc([nH]6)c(-c6c(F)c(F)c(F)c(F)c6F)c6nc(c(-c7c(F)c(F)c(F)c(F)c7F)c7ccc4[nH]7)C=C6)C=C5)cc3)c2-c2ccc(OC)cc2)cc1
REMARK SMILES IDX 16 1 15 4 14 7 12 8 13 9 11 11 10 14 7 15 8 16 87 17 9 18
REMARK SMILES IDX 6 19 3 20 4 21 97 22 5 23 96 25 2 29 1 30 88 34 89 35 95 36
REMARK SMILES IDX 90 37 94 39 91 41 92 44 93 45 17 49 18 52 19 55 20 58 21 61
REMARK SMILES IDX 22 62 23 64 24 65 25 66 86 67 26 68 85 70 27 72 28 75 29 76
REMARK SMILES IDX 79 77 30 78 84 79 78 80 80 81 31 82 83 83 77 85 76 87 32 89
REMARK SMILES IDX 64 92 44 93 63 94 45 95 48 96 62 97 81 98 46 99 47 101
REMARK SMILES IDX 61 103 82 104 49 107 33 109 34 110 42 111 35 112 36 113
REMARK SMILES IDX 40 114 43 115 37 116 38 117 41 118 39 119 65 120 66 121
REMARK SMILES IDX 74 122 67 123 68 124 72 125 75 126 69 127 70 128 73 129
REMARK SMILES IDX 71 130 50 131 51 132 59 133 52 134 53 135 57 136 60 137
REMARK SMILES IDX 54 138 55 139 58 140 56 141
REMARK H PARENT 16 2 16 3 15 5 15 6 14 10 11 12 11 13 4 24 97 26 5 27 96 28
REMARK H PARENT 1 31 1 32 1 33 89 38 95 40 90 42 94 43 93 46 93 47 93 48 17 50
REMARK H PARENT 17 51 18 53 18 54 19 56 19 57 20 59 20 60 21 63 25 69 86 71
REMARK H PARENT 26 73 85 74 84 84 78 86 80 88 83 90 77 91 45 100 48 102 81 105
REMARK H PARENT 46 106 82 108
REMARK Flexibility Score: inf
ROOT
ATOM      1  C   UNL A   1      30.699  28.767  23.332  1.00  0.00    -0.036 C 
ATOM      2  H   UNL A   1      29.773  29.032  23.798  1.00  0.00     0.028 H 
ATOM      3  H   UNL A   1      30.883  29.333  22.442  1.00  0.00     0.028 H 
ENDROOT
BRANCH   1   4
ATOM      4  C   UNL A   1      30.633  27.295  22.924  1.00  0.00     0.017 C 
ATOM      5  H   UNL A   1      30.817  26.684  23.783  1.00  0.00     0.049 H 
ATOM      6  H   UNL A   1      29.661  27.094  22.525  1.00  0.00     0.049 H 
BRANCH   4   7
ATOM      7  N   UNL A   1      31.622  26.996  21.909  1.00  0.00    -0.356 N 
ATOM      8  C   UNL A   1      32.842  26.398  22.049  1.00  0.00     0.227 C 
ATOM      9  O   UNL A   1      33.576  26.334  21.062  1.00  0.00    -0.275 OA
ATOM     10  H   UNL A   1      31.382  27.261  20.992  1.00  0.00     0.163 HD
BRANCH   8  11
ATOM     11  C   UNL A   1      33.222  25.737  23.358  1.00  0.00     0.088 C 
ATOM     12  H   UNL A   1      34.283  25.811  23.483  1.00  0.00     0.045 H 
ATOM     13  H   UNL A   1      32.694  26.243  24.139  1.00  0.00     0.045 H 
BRANCH  11  14
ATOM     14  C   UNL A   1      32.837  24.306  23.415  1.00  0.00     0.154 A 
ATOM     15  C   UNL A   1      32.485  22.128  23.644  1.00  0.00     0.122 A 
ATOM     16  N   UNL A   1      31.417  22.618  22.998  1.00  0.00    -0.079 NA
ATOM     17  C   UNL A   1      33.431  23.162  23.908  1.00  0.00     0.053 A 
ATOM     18  O   UNL A   1      31.629  23.979  22.881  1.00  0.00    -0.360 OA
BRANCH  15  19
ATOM     19  C   UNL A   1      32.587  20.721  24.003  1.00  0.00     0.005 A 
ATOM     20  C   UNL A   1      32.709  18.003  24.672  1.00  0.00     0.118 A 
ATOM     21  C   UNL A   1      32.839  18.977  25.663  1.00  0.00    -0.019 A 
ATOM     22  C   UNL A   1      32.491  18.382  23.349  1.00  0.00    -0.019 A 
ATOM     23  C   UNL A   1      32.796  20.335  25.331  1.00  0.00    -0.049 A 
ATOM     24  H   UNL A   1      32.967  18.693  26.647  1.00  0.00     0.066 H 
ATOM     25  C   UNL A   1      32.433  19.738  23.015  1.00  0.00    -0.049 A 
ATOM     26  H   UNL A   1      32.371  17.665  22.618  1.00  0.00     0.066 H 
ATOM     27  H   UNL A   1      32.918  21.050  26.064  1.00  0.00     0.063 H 
ATOM     28  H   UNL A   1      32.274  20.018  22.035  1.00  0.00     0.063 H 
BRANCH  20  29
ATOM     29  O   UNL A   1      32.758  16.703  25.096  1.00  0.00    -0.497 OA
BRANCH  29  30
ATOM     30  C   UNL A   1      34.079  16.223  25.334  1.00  0.00     0.078 C 
ATOM     31  H   UNL A   1      34.577  16.872  26.023  1.00  0.00     0.067 H 
ATOM     32  H   UNL A   1      34.622  16.199  24.413  1.00  0.00     0.067 H 
ATOM     33  H   UNL A   1      34.031  15.236  25.747  1.00  0.00     0.067 H 
ENDBRANCH  29  30
ENDBRANCH  20  29
ENDBRANCH  15  19
BRANCH  17  34
ATOM     34  C   UNL A   1      34.763  23.086  24.477  1.00  0.00    -0.012 A 
ATOM     35  C   UNL A   1      35.728  22.276  23.866  1.00  0.00    -0.050 A 
ATOM     36  C   UNL A   1      35.105  23.804  25.626  1.00  0.00    -0.050 A 
ATOM     37  C   UNL A   1      37.018  22.201  24.391  1.00  0.00    -0.019 A 
ATOM     38  H   UNL A   1      35.483  21.733  23.023  1.00  0.00     0.063 H 
ATOM     39  C   UNL A   1      36.402  23.724  26.151  1.00  0.00    -0.019 A 
ATOM     40  H   UNL A   1      34.400  24.396  26.092  1.00  0.00     0.063 H 
ATOM     41  C   UNL A   1      37.364  22.923  25.534  1.00  0.00     0.118 A 
ATOM     42  H   UNL A   1      37.724  21.605  23.929  1.00  0.00     0.066 H 
ATOM     43  H   UNL A   1      36.648  24.261  26.999  1.00  0.00     0.066 H 
BRANCH  41  44
ATOM     44  O   UNL A   1      38.659  22.759  25.937  1.00  0.00    -0.497 OA
BRANCH  44  45
ATOM     45  C   UNL A   1      39.193  21.443  25.874  1.00  0.00     0.078 C 
ATOM     46  H   UNL A   1      38.663  20.879  25.135  1.00  0.00     0.067 H 
ATOM     47  H   UNL A   1      39.088  20.969  26.827  1.00  0.00     0.067 H 
ATOM     48  H   UNL A   1      40.229  21.490  25.611  1.00  0.00     0.067 H 
ENDBRANCH  44  45
ENDBRANCH  41  44
ENDBRANCH  17  34
ENDBRANCH  11  14
ENDBRANCH   8  11
ENDBRANCH   4   7
ENDBRANCH   1   4
BRANCH   1  49
ATOM     49  C   UNL A   1      31.841  29.082  24.309  1.00  0.00    -0.052 C 
ATOM     50  H   UNL A   1      31.908  30.145  24.409  1.00  0.00     0.027 H 
ATOM     51  H   UNL A   1      32.720  28.637  23.894  1.00  0.00     0.027 H 
BRANCH  49  52
ATOM     52  C   UNL A   1      31.678  28.481  25.711  1.00  0.00    -0.052 C 
ATOM     53  H   UNL A   1      30.858  27.795  25.684  1.00  0.00     0.027 H 
ATOM     54  H   UNL A   1      31.521  29.308  26.372  1.00  0.00     0.027 H 
BRANCH  52  55
ATOM     55  C   UNL A   1      32.903  27.735  26.246  1.00  0.00    -0.036 C 
ATOM     56  H   UNL A   1      33.078  26.887  25.618  1.00  0.00     0.028 H 
ATOM     57  H   UNL A   1      32.678  27.471  27.258  1.00  0.00     0.028 H 
BRANCH  55  58
ATOM     58  C   UNL A   1      34.185  28.563  26.293  1.00  0.00     0.018 C 
ATOM     59  H   UNL A   1      34.641  28.546  25.326  1.00  0.00     0.049 H 
ATOM     60  H   UNL A   1      34.829  28.133  27.033  1.00  0.00     0.049 H 
BRANCH  58  61
ATOM     61  N   UNL A   1      33.929  29.945  26.668  1.00  0.00    -0.352 N 
ATOM     62  C   UNL A   1      34.587  30.744  27.564  1.00  0.00     0.251 C 
ATOM     63  H   UNL A   1      33.169  30.369  26.209  1.00  0.00     0.163 HD
ATOM     64  O   UNL A   1      34.103  31.829  27.892  1.00  0.00    -0.269 OA
BRANCH  62  65
ATOM     65  C   UNL A   1      35.870  30.313  28.157  1.00  0.00     0.039 A 
ATOM     66  C   UNL A   1      35.862  29.735  29.430  1.00  0.00    -0.049 A 
ATOM     67  C   UNL A   1      37.082  30.517  27.489  1.00  0.00    -0.049 A 
ATOM     68  C   UNL A   1      37.061  29.317  30.012  1.00  0.00    -0.053 A 
ATOM     69  H   UNL A   1      34.972  29.616  29.938  1.00  0.00     0.063 H 
ATOM     70  C   UNL A   1      38.270  30.046  28.045  1.00  0.00    -0.053 A 
ATOM     71  H   UNL A   1      37.096  31.016  26.586  1.00  0.00     0.063 H 
ATOM     72  C   UNL A   1      38.272  29.448  29.314  1.00  0.00    -0.014 A 
ATOM     73  H   UNL A   1      37.056  28.909  30.960  1.00  0.00     0.063 H 
ATOM     74  H   UNL A   1      39.154  30.137  27.519  1.00  0.00     0.063 H 
BRANCH  72  75
ATOM     75  C   UNL A   1      39.549  28.973  29.904  1.00  0.00     0.031 A 
ATOM     76  C   UNL A   1      40.145  29.684  31.086  1.00  0.00     0.074 A 
ATOM     77  C   UNL A   1      40.195  27.935  29.343  1.00  0.00     0.049 A 
ATOM     78  N   UNL A   1      41.274  29.451  31.709  1.00  0.00    -0.248 NA
ATOM     79  C   UNL A   1      39.383  30.819  31.628  1.00  0.00    -0.034 C 
ATOM     80  C   UNL A   1      39.740  27.191  28.168  1.00  0.00    -0.036 A 
ATOM     81  N   UNL A   1      41.380  27.330  29.681  1.00  0.00    -0.354 N 
ATOM     82  C   UNL A   1      41.363  30.417  32.703  1.00  0.00     0.074 A 
ATOM     83  C   UNL A   1      40.198  31.267  32.573  1.00  0.00    -0.034 C 
ATOM     84  H   UNL A   1      38.457  31.175  31.347  1.00  0.00     0.065 H 
ATOM     85  C   UNL A   1      40.623  26.217  27.895  1.00  0.00    -0.036 A 
ATOM     86  H   UNL A   1      38.877  27.384  27.636  1.00  0.00     0.065 H 
ATOM     87  C   UNL A   1      41.721  26.288  28.855  1.00  0.00     0.049 A 
ATOM     88  H   UNL A   1      41.932  27.616  30.445  1.00  0.00     0.167 HD
ATOM     89  C   UNL A   1      42.318  30.569  33.650  1.00  0.00     0.037 A 
ATOM     90  H   UNL A   1      40.026  32.111  33.141  1.00  0.00     0.065 H 
ATOM     91  H   UNL A   1      40.540  25.530  27.130  1.00  0.00     0.065 H 
ATOM     92  C   UNL A   1      42.800  25.483  28.870  1.00  0.00     0.037 A 
ATOM     93  C   UNL A   1      43.461  29.706  33.796  1.00  0.00     0.049 A 
ATOM     94  C   UNL A   1      43.844  25.669  29.936  1.00  0.00     0.074 A 
ATOM     95  C   UNL A   1      44.454  29.742  34.760  1.00  0.00    -0.036 A 
ATOM     96  N   UNL A   1      43.764  28.649  32.950  1.00  0.00    -0.354 N 
ATOM     97  N   UNL A   1      43.886  26.547  30.908  1.00  0.00    -0.248 NA
ATOM     98  C   UNL A   1      44.990  24.749  29.908  1.00  0.00    -0.034 C 
ATOM     99  C   UNL A   1      45.376  28.729  34.478  1.00  0.00    -0.036 A 
ATOM    100  H   UNL A   1      44.505  30.402  35.552  1.00  0.00     0.065 H 
ATOM    101  C   UNL A   1      44.937  28.036  33.361  1.00  0.00     0.049 A 
ATOM    102  H   UNL A   1      43.225  28.375  32.173  1.00  0.00     0.167 HD
ATOM    103  C   UNL A   1      45.043  26.270  31.623  1.00  0.00     0.074 A 
ATOM    104  C   UNL A   1      45.670  25.133  30.980  1.00  0.00    -0.034 C 
ATOM    105  H   UNL A   1      45.208  24.000  29.233  1.00  0.00     0.065 H 
ATOM    106  H   UNL A   1      46.238  28.532  35.010  1.00  0.00     0.065 H 
ATOM    107  C   UNL A   1      45.542  26.901  32.714  1.00  0.00     0.037 A 
ATOM    108  H   UNL A   1      46.534  24.680  31.314  1.00  0.00     0.065 H 
BRANCH  89 109
ATOM    109  C   UNL A   1      42.164  31.709  34.613  1.00  0.00     0.064 A 
ATOM    110  C   UNL A   1      41.438  31.569  35.806  1.00  0.00     0.173 A 
ATOM    111  C   UNL A   1      42.779  32.945  34.360  1.00  0.00     0.173 A 
ATOM    112  F   UNL A   1      40.823  30.411  36.088  1.00  0.00    -0.203 F 
ATOM    113  C   UNL A   1      41.311  32.631  36.696  1.00  0.00     0.198 A 
ATOM    114  C   UNL A   1      42.673  33.996  35.266  1.00  0.00     0.198 A 
ATOM    115  F   UNL A   1      43.490  33.130  33.237  1.00  0.00    -0.203 F 
ATOM    116  F   UNL A   1      40.576  32.487  37.808  1.00  0.00    -0.200 F 
ATOM    117  C   UNL A   1      41.934  33.842  36.430  1.00  0.00     0.200 A 
ATOM    118  F   UNL A   1      43.284  35.162  35.014  1.00  0.00    -0.200 F 
ATOM    119  F   UNL A   1      41.815  34.862  37.291  1.00  0.00    -0.200 F 
ENDBRANCH  89 109
BRANCH  92 120
ATOM    120  C   UNL A   1      42.931  24.404  27.858  1.00  0.00     0.064 A 
ATOM    121  C   UNL A   1      42.546  23.089  28.159  1.00  0.00     0.173 A 
ATOM    122  C   UNL A   1      43.442  24.660  26.578  1.00  0.00     0.173 A 
ATOM    123  F   UNL A   1      42.072  22.792  29.377  1.00  0.00    -0.203 F 
ATOM    124  C   UNL A   1      42.684  22.068  27.220  1.00  0.00     0.198 A 
ATOM    125  C   UNL A   1      43.556  23.642  25.634  1.00  0.00     0.198 A 
ATOM    126  F   UNL A   1      43.820  25.901  26.242  1.00  0.00    -0.203 F 
ATOM    127  F   UNL A   1      42.347  20.813  27.547  1.00  0.00    -0.200 F 
ATOM    128  C   UNL A   1      43.183  22.346  25.958  1.00  0.00     0.200 A 
ATOM    129  F   UNL A   1      44.028  23.917  24.409  1.00  0.00    -0.200 F 
ATOM    130  F   UNL A   1      43.313  21.365  25.055  1.00  0.00    -0.200 F 
ENDBRANCH  92 120
BRANCH 107 131
ATOM    131  C   UNL A   1      46.811  26.357  33.300  1.00  0.00     0.064 A 
ATOM    132  C   UNL A   1      46.798  25.315  34.239  1.00  0.00     0.173 A 
ATOM    133  C   UNL A   1      48.055  26.859  32.889  1.00  0.00     0.173 A 
ATOM    134  F   UNL A   1      45.632  24.814  34.675  1.00  0.00    -0.203 F 
ATOM    135  C   UNL A   1      47.985  24.810  34.762  1.00  0.00     0.198 A 
ATOM    136  C   UNL A   1      49.240  26.334  33.396  1.00  0.00     0.198 A 
ATOM    137  F   UNL A   1      48.121  27.852  31.990  1.00  0.00    -0.203 F 
ATOM    138  F   UNL A   1      47.947  23.844  35.690  1.00  0.00    -0.200 F 
ATOM    139  C   UNL A   1      49.204  25.314  34.335  1.00  0.00     0.200 A 
ATOM    140  F   UNL A   1      50.418  26.815  32.974  1.00  0.00    -0.200 F 
ATOM    141  F   UNL A   1      50.346  24.824  34.837  1.00  0.00    -0.200 F 
ENDBRANCH 107 131
ENDBRANCH  72  75
ENDBRANCH  62  65
ENDBRANCH  58  61
ENDBRANCH  55  58
ENDBRANCH  52  55
ENDBRANCH  49  52
ENDBRANCH   1  49
TORSDOF 20
ENDMDL
MODEL 4
REMARK VINA RESULT:     -11.6      1.858      7.539
REMARK SMILES COc1ccc(-c2noc(CC(=O)NCCCCCCNC(=O)c3ccc(-c4c5nc(c(-c6c(F)c(F)c(F)c(F)c6F)c6ccc([nH]6)c(-c6c(F)c(F)c(F)c(F)c6F)c6nc(c(-c7c(F)c(F)c(F)c(F)c7F)c7ccc4[nH]7)C=C6)C=C5)cc3)c2-c2ccc(OC)cc2)cc1
REMARK SMILES IDX 16 1 15 4 14 7 12 8 13 9 11 11 10 14 7 15 8 16 87 17 9 18
REMARK SMILES IDX 6 19 3 20 4 21 97 22 5 23 96 25 2 29 1 30 88 34 89 35 95 36
REMARK SMILES IDX 90 37 94 39 91 41 92 44 93 45 17 49 18 52 19 55 20 58 21 61
REMARK SMILES IDX 22 62 23 64 24 65 25 66 86 67 26 68 85 70 27 72 28 75 29 76
REMARK SMILES IDX 79 77 30 78 84 79 78 80 80 81 31 82 83 83 77 85 76 87 32 89
REMARK SMILES IDX 64 92 44 93 63 94 45 95 48 96 62 97 81 98 46 99 47 101
REMARK SMILES IDX 61 103 82 104 49 107 33 109 34 110 42 111 35 112 36 113
REMARK SMILES IDX 40 114 43 115 37 116 38 117 41 118 39 119 65 120 66 121
REMARK SMILES IDX 74 122 67 123 68 124 72 125 75 126 69 127 70 128 73 129
REMARK SMILES IDX 71 130 50 131 51 132 59 133 52 134 53 135 57 136 60 137
REMARK SMILES IDX 54 138 55 139 58 140 56 141
REMARK H PARENT 16 2 16 3 15 5 15 6 14 10 11 12 11 13 4 24 97 26 5 27 96 28
REMARK H PARENT 1 31 1 32 1 33 89 38 95 40 90 42 94 43 93 46 93 47 93 48 17 50
REMARK H PARENT 17 51 18 53 18 54 19 56 19 57 20 59 20 60 21 63 25 69 86 71
REMARK H PARENT 26 73 85 74 84 84 78 86 80 88 83 90 77 91 45 100 48 102 81 105
REMARK H PARENT 46 106 82 108
REMARK Flexibility Score: inf
ROOT
ATOM      1  C   UNL A   1      32.459  28.559  26.400  1.00  0.00    -0.036 C 
ATOM      2  H   UNL A   1      33.062  28.842  25.563  1.00  0.00     0.028 H 
ATOM      3  H   UNL A   1      33.028  28.071  27.164  1.00  0.00     0.028 H 
ENDROOT
BRANCH   1   4
ATOM      4  C   UNL A   1      31.401  27.564  25.922  1.00  0.00     0.017 C 
ATOM      5  H   UNL A   1      31.746  26.568  26.112  1.00  0.00     0.049 H 
ATOM      6  H   UNL A   1      30.491  27.751  26.451  1.00  0.00     0.049 H 
BRANCH   4   7
ATOM      7  N   UNL A   1      31.153  27.717  24.502  1.00  0.00    -0.356 N 
ATOM      8  C   UNL A   1      31.899  27.272  23.449  1.00  0.00     0.227 C 
ATOM      9  O   UNL A   1      31.557  27.605  22.312  1.00  0.00    -0.275 OA
ATOM     10  H   UNL A   1      30.335  28.210  24.266  1.00  0.00     0.163 HD
BRANCH   8  11
ATOM     11  C   UNL A   1      33.044  26.306  23.676  1.00  0.00     0.088 C 
ATOM     12  H   UNL A   1      33.785  26.471  22.922  1.00  0.00     0.045 H 
ATOM     13  H   UNL A   1      33.428  26.489  24.658  1.00  0.00     0.045 H 
BRANCH  11  14
ATOM     14  C   UNL A   1      32.620  24.886  23.621  1.00  0.00     0.154 A 
ATOM     15  C   UNL A   1      32.224  22.704  23.648  1.00  0.00     0.122 A 
ATOM     16  N   UNL A   1      31.100  23.286  23.206  1.00  0.00    -0.079 NA
ATOM     17  C   UNL A   1      33.231  23.681  23.902  1.00  0.00     0.053 A 
ATOM     18  O   UNL A   1      31.342  24.646  23.216  1.00  0.00    -0.360 OA
BRANCH  15  19
ATOM     19  C   UNL A   1      32.322  21.263  23.831  1.00  0.00     0.005 A 
ATOM     20  C   UNL A   1      32.588  18.498  24.202  1.00  0.00     0.118 A 
ATOM     21  C   UNL A   1      32.319  19.015  22.933  1.00  0.00    -0.019 A 
ATOM     22  C   UNL A   1      32.751  19.362  25.283  1.00  0.00    -0.019 A 
ATOM     23  C   UNL A   1      32.169  20.392  22.747  1.00  0.00    -0.049 A 
ATOM     24  H   UNL A   1      32.232  18.375  22.127  1.00  0.00     0.066 H 
ATOM     25  C   UNL A   1      32.616  20.740  25.098  1.00  0.00    -0.049 A 
ATOM     26  H   UNL A   1      32.972  18.985  26.218  1.00  0.00     0.066 H 
ATOM     27  H   UNL A   1      31.946  20.765  21.811  1.00  0.00     0.063 H 
ATOM     28  H   UNL A   1      32.734  21.379  25.900  1.00  0.00     0.063 H 
BRANCH  20  29
ATOM     29  O   UNL A   1      32.723  17.139  24.282  1.00  0.00    -0.497 OA
BRANCH  29  30
ATOM     30  C   UNL A   1      34.071  16.699  24.425  1.00  0.00     0.078 C 
ATOM     31  H   UNL A   1      34.443  16.994  25.384  1.00  0.00     0.067 H 
ATOM     32  H   UNL A   1      34.674  17.140  23.659  1.00  0.00     0.067 H 
ATOM     33  H   UNL A   1      34.109  15.633  24.340  1.00  0.00     0.067 H 
ENDBRANCH  29  30
ENDBRANCH  20  29
ENDBRANCH  15  19
BRANCH  17  34
ATOM     34  C   UNL A   1      34.621  23.514  24.282  1.00  0.00    -0.012 A 
ATOM     35  C   UNL A   1      35.011  23.775  25.601  1.00  0.00    -0.050 A 
ATOM     36  C   UNL A   1      35.583  23.100  23.356  1.00  0.00    -0.050 A 
ATOM     37  C   UNL A   1      36.340  23.607  25.988  1.00  0.00    -0.019 A 
ATOM     38  H   UNL A   1      34.311  24.092  26.290  1.00  0.00     0.063 H 
ATOM     39  C   UNL A   1      36.918  22.933  23.749  1.00  0.00    -0.019 A 
ATOM     40  H   UNL A   1      35.309  22.915  22.378  1.00  0.00     0.063 H 
ATOM     41  C   UNL A   1      37.301  23.185  25.067  1.00  0.00     0.118 A 
ATOM     42  H   UNL A   1      36.617  23.797  26.965  1.00  0.00     0.066 H 
ATOM     43  H   UNL A   1      37.622  22.624  23.060  1.00  0.00     0.066 H 
BRANCH  41  44
ATOM     44  O   UNL A   1      38.561  23.060  25.580  1.00  0.00    -0.497 OA
BRANCH  44  45
ATOM     45  C   UNL A   1      38.942  21.773  26.050  1.00  0.00     0.078 C 
ATOM     46  H   UNL A   1      39.835  21.857  26.634  1.00  0.00     0.067 H 
ATOM     47  H   UNL A   1      39.120  21.127  25.217  1.00  0.00     0.067 H 
ATOM     48  H   UNL A   1      38.158  21.368  26.655  1.00  0.00     0.067 H 
ENDBRANCH  44  45
ENDBRANCH  41  44
ENDBRANCH  17  34
ENDBRANCH  11  14
ENDBRANCH   8  11
ENDBRANCH   4   7
ENDBRANCH   1   4
BRANCH   1  49
ATOM     49  C   UNL A   1      31.867  29.831  27.023  1.00  0.00    -0.052 C 
ATOM     50  H   UNL A   1      32.594  30.242  27.691  1.00  0.00     0.027 H 
ATOM     51  H   UNL A   1      30.963  29.533  27.509  1.00  0.00     0.027 H 
BRANCH  49  52
ATOM     52  C   UNL A   1      31.473  30.921  26.019  1.00  0.00    -0.052 C 
ATOM     53  H   UNL A   1      30.517  30.665  25.610  1.00  0.00     0.027 H 
ATOM     54  H   UNL A   1      32.255  30.950  25.289  1.00  0.00     0.027 H 
BRANCH  52  55
ATOM     55  C   UNL A   1      31.377  32.336  26.597  1.00  0.00    -0.036 C 
ATOM     56  H   UNL A   1      30.610  32.340  27.343  1.00  0.00     0.028 H 
ATOM     57  H   UNL A   1      31.167  32.985  25.773  1.00  0.00     0.028 H 
BRANCH  55  58
ATOM     58  C   UNL A   1      32.663  32.853  27.236  1.00  0.00     0.018 C 
ATOM     59  H   UNL A   1      33.443  32.833  26.504  1.00  0.00     0.049 H 
ATOM     60  H   UNL A   1      32.896  32.222  28.068  1.00  0.00     0.049 H 
BRANCH  58  61
ATOM     61  N   UNL A   1      32.518  34.213  27.731  1.00  0.00    -0.352 N 
ATOM     62  C   UNL A   1      33.133  34.830  28.787  1.00  0.00     0.251 C 
ATOM     63  H   UNL A   1      31.882  34.774  27.231  1.00  0.00     0.163 HD
ATOM     64  O   UNL A   1      32.735  35.931  29.172  1.00  0.00    -0.269 OA
BRANCH  62  65
ATOM     65  C   UNL A   1      34.263  34.182  29.484  1.00  0.00     0.039 A 
ATOM     66  C   UNL A   1      35.548  34.316  28.951  1.00  0.00    -0.049 A 
ATOM     67  C   UNL A   1      34.059  33.407  30.630  1.00  0.00    -0.049 A 
ATOM     68  C   UNL A   1      36.635  33.715  29.592  1.00  0.00    -0.053 A 
ATOM     69  H   UNL A   1      35.695  34.859  28.085  1.00  0.00     0.063 H 
ATOM     70  C   UNL A   1      35.149  32.859  31.303  1.00  0.00    -0.053 A 
ATOM     71  H   UNL A   1      33.101  33.243  30.978  1.00  0.00     0.063 H 
ATOM     72  C   UNL A   1      36.446  33.001  30.787  1.00  0.00    -0.014 A 
ATOM     73  H   UNL A   1      37.580  33.797  29.186  1.00  0.00     0.063 H 
ATOM     74  H   UNL A   1      35.002  32.345  32.186  1.00  0.00     0.063 H 
BRANCH  72  75
ATOM     75  C   UNL A   1      37.595  32.390  31.499  1.00  0.00     0.031 A 
ATOM     76  C   UNL A   1      38.333  31.231  30.891  1.00  0.00     0.074 A 
ATOM     77  C   UNL A   1      37.942  32.846  32.717  1.00  0.00     0.049 A 
ATOM     78  N   UNL A   1      39.327  30.533  31.381  1.00  0.00    -0.248 NA
ATOM     79  C   UNL A   1      37.881  30.784  29.564  1.00  0.00    -0.034 C 
ATOM     80  C   UNL A   1      37.276  33.936  33.432  1.00  0.00    -0.036 A 
ATOM     81  N   UNL A   1      38.934  32.443  33.575  1.00  0.00    -0.354 N 
ATOM     82  C   UNL A   1      39.608  29.558  30.432  1.00  0.00     0.074 A 
ATOM     83  C   UNL A   1      38.651  29.725  29.358  1.00  0.00    -0.034 C 
ATOM     84  H   UNL A   1      37.154  31.187  28.954  1.00  0.00     0.065 H 
ATOM     85  C   UNL A   1      37.891  34.130  34.610  1.00  0.00    -0.036 A 
ATOM     86  H   UNL A   1      36.465  34.471  33.085  1.00  0.00     0.065 H 
ATOM     87  C   UNL A   1      38.972  33.158  34.747  1.00  0.00     0.049 A 
ATOM     88  H   UNL A   1      39.560  31.713  33.369  1.00  0.00     0.167 HD
ATOM     89  C   UNL A   1      40.587  28.623  30.446  1.00  0.00     0.037 A 
ATOM     90  H   UNL A   1      38.578  29.100  28.540  1.00  0.00     0.065 H 
ATOM     91  H   UNL A   1      37.639  34.848  35.306  1.00  0.00     0.065 H 
ATOM     92  C   UNL A   1      39.787  33.040  35.812  1.00  0.00     0.037 A 
ATOM     93  C   UNL A   1      41.555  28.477  31.501  1.00  0.00     0.049 A 
ATOM     94  C   UNL A   1      40.869  31.995  35.800  1.00  0.00     0.074 A 
ATOM     95  C   UNL A   1      42.621  27.598  31.579  1.00  0.00    -0.036 A 
ATOM     96  N   UNL A   1      41.573  29.231  32.664  1.00  0.00    -0.354 N 
ATOM     97  N   UNL A   1      41.164  31.121  34.870  1.00  0.00    -0.248 NA
ATOM     98  C   UNL A   1      41.735  31.927  36.986  1.00  0.00    -0.034 C 
ATOM     99  C   UNL A   1      43.264  27.797  32.806  1.00  0.00    -0.036 A 
ATOM    100  H   UNL A   1      42.897  26.914  30.856  1.00  0.00     0.065 H 
ATOM    101  C   UNL A   1      42.622  28.826  33.474  1.00  0.00     0.049 A 
ATOM    102  H   UNL A   1      40.934  29.948  32.883  1.00  0.00     0.167 HD
ATOM    103  C   UNL A   1      42.262  30.417  35.344  1.00  0.00     0.074 A 
ATOM    104  C   UNL A   1      42.591  30.975  36.639  1.00  0.00    -0.034 C 
ATOM    105  H   UNL A   1      41.690  32.475  37.858  1.00  0.00     0.065 H 
ATOM    106  H   UNL A   1      44.077  27.266  33.154  1.00  0.00     0.065 H 
ATOM    107  C   UNL A   1      42.938  29.399  34.757  1.00  0.00     0.037 A 
ATOM    108  H   UNL A   1      43.389  30.671  37.218  1.00  0.00     0.065 H 
BRANCH  89 109
ATOM    109  C   UNL A   1      40.667  27.686  29.277  1.00  0.00     0.064 A 
ATOM    110  C   UNL A   1      41.616  27.863  28.258  1.00  0.00     0.173 A 
ATOM    111  C   UNL A   1      39.810  26.578  29.189  1.00  0.00     0.173 A 
ATOM    112  F   UNL A   1      42.450  28.913  28.289  1.00  0.00    -0.203 F 
ATOM    113  C   UNL A   1      41.687  26.981  27.184  1.00  0.00     0.198 A 
ATOM    114  C   UNL A   1      39.902  25.683  28.128  1.00  0.00     0.198 A 
ATOM    115  F   UNL A   1      38.888  26.359  30.140  1.00  0.00    -0.203 F 
ATOM    116  F   UNL A   1      42.573  27.196  26.200  1.00  0.00    -0.200 F 
ATOM    117  C   UNL A   1      40.835  25.888  27.122  1.00  0.00     0.200 A 
ATOM    118  F   UNL A   1      39.087  24.620  28.075  1.00  0.00    -0.200 F 
ATOM    119  F   UNL A   1      40.909  25.037  26.090  1.00  0.00    -0.200 F 
ENDBRANCH  89 109
BRANCH  92 120
ATOM    120  C   UNL A   1      39.629  33.957  36.969  1.00  0.00     0.064 A 
ATOM    121  C   UNL A   1      40.260  35.209  36.982  1.00  0.00     0.173 A 
ATOM    122  C   UNL A   1      38.850  33.605  38.080  1.00  0.00     0.173 A 
ATOM    123  F   UNL A   1      41.033  35.580  35.951  1.00  0.00    -0.203 F 
ATOM    124  C   UNL A   1      40.132  36.067  38.073  1.00  0.00     0.198 A 
ATOM    125  C   UNL A   1      38.703  34.475  39.159  1.00  0.00     0.198 A 
ATOM    126  F   UNL A   1      38.223  32.421  38.113  1.00  0.00    -0.203 F 
ATOM    127  F   UNL A   1      40.779  37.241  38.078  1.00  0.00    -0.200 F 
ATOM    128  C   UNL A   1      39.349  35.702  39.157  1.00  0.00     0.200 A 
ATOM    129  F   UNL A   1      37.935  34.124  40.200  1.00  0.00    -0.200 F 
ATOM    130  F   UNL A   1      39.223  36.529  40.204  1.00  0.00    -0.200 F 
ENDBRANCH  92 120
BRANCH 107 131
ATOM    131  C   UNL A   1      44.119  28.844  35.497  1.00  0.00     0.064 A 
ATOM    132  C   UNL A   1      43.983  27.786  36.408  1.00  0.00     0.173 A 
ATOM    133  C   UNL A   1      45.407  29.352  35.264  1.00  0.00     0.173 A 
ATOM    134  F   UNL A   1      42.770  27.278  36.676  1.00  0.00    -0.203 F 
ATOM    135  C   UNL A   1      45.091  27.270  37.075  1.00  0.00     0.198 A 
ATOM    136  C   UNL A   1      46.514  28.816  35.914  1.00  0.00     0.198 A 
ATOM    137  F   UNL A   1      45.589  30.360  34.398  1.00  0.00    -0.203 F 
ATOM    138  F   UNL A   1      44.932  26.289  37.973  1.00  0.00    -0.200 F 
ATOM    139  C   UNL A   1      46.355  27.781  36.822  1.00  0.00     0.200 A 
ATOM    140  F   UNL A   1      47.737  29.303  35.661  1.00  0.00    -0.200 F 
ATOM    141  F   UNL A   1      47.421  27.280  37.462  1.00  0.00    -0.200 F 
ENDBRANCH 107 131
ENDBRANCH  72  75
ENDBRANCH  62  65
ENDBRANCH  58  61
ENDBRANCH  55  58
ENDBRANCH  52  55
ENDBRANCH  49  52
ENDBRANCH   1  49
TORSDOF 20
ENDMDL
MODEL 5
REMARK VINA RESULT:     -11.6      4.274     10.082
REMARK SMILES COc1ccc(-c2noc(CC(=O)NCCCCCCNC(=O)c3ccc(-c4c5nc(c(-c6c(F)c(F)c(F)c(F)c6F)c6ccc([nH]6)c(-c6c(F)c(F)c(F)c(F)c6F)c6nc(c(-c7c(F)c(F)c(F)c(F)c7F)c7ccc4[nH]7)C=C6)C=C5)cc3)c2-c2ccc(OC)cc2)cc1
REMARK SMILES IDX 16 1 15 4 14 7 12 8 13 9 11 11 10 14 7 15 8 16 87 17 9 18
REMARK SMILES IDX 6 19 3 20 4 21 97 22 5 23 96 25 2 29 1 30 88 34 89 35 95 36
REMARK SMILES IDX 90 37 94 39 91 41 92 44 93 45 17 49 18 52 19 55 20 58 21 61
REMARK SMILES IDX 22 62 23 64 24 65 25 66 86 67 26 68 85 70 27 72 28 75 29 76
REMARK SMILES IDX 79 77 30 78 84 79 78 80 80 81 31 82 83 83 77 85 76 87 32 89
REMARK SMILES IDX 64 92 44 93 63 94 45 95 48 96 62 97 81 98 46 99 47 101
REMARK SMILES IDX 61 103 82 104 49 107 33 109 34 110 42 111 35 112 36 113
REMARK SMILES IDX 40 114 43 115 37 116 38 117 41 118 39 119 65 120 66 121
REMARK SMILES IDX 74 122 67 123 68 124 72 125 75 126 69 127 70 128 73 129
REMARK SMILES IDX 71 130 50 131 51 132 59 133 52 134 53 135 57 136 60 137
REMARK SMILES IDX 54 138 55 139 58 140 56 141
REMARK H PARENT 16 2 16 3 15 5 15 6 14 10 11 12 11 13 4 24 97 26 5 27 96 28
REMARK H PARENT 1 31 1 32 1 33 89 38 95 40 90 42 94 43 93 46 93 47 93 48 17 50
REMARK H PARENT 17 51 18 53 18 54 19 56 19 57 20 59 20 60 21 63 25 69 86 71
REMARK H PARENT 26 73 85 74 84 84 78 86 80 88 83 90 77 91 45 100 48 102 81 105
REMARK H PARENT 46 106 82 108
REMARK Flexibility Score: inf
ROOT
ATOM      1  C   UNL A   1      36.189  22.389  23.979  1.00  0.00    -0.036 C 
ATOM      2  H   UNL A   1      36.936  23.153  24.028  1.00  0.00     0.028 H 
ATOM      3  H   UNL A   1      36.341  21.724  23.153  1.00  0.00     0.028 H 
ENDROOT
BRANCH   1   4
ATOM      4  C   UNL A   1      34.827  23.054  23.776  1.00  0.00     0.017 C 
ATOM      5  H   UNL A   1      34.797  23.968  24.333  1.00  0.00     0.049 H 
ATOM      6  H   UNL A   1      34.693  23.249  22.733  1.00  0.00     0.049 H 
BRANCH   4   7
ATOM      7  N   UNL A   1      33.757  22.188  24.228  1.00  0.00    -0.356 N 
ATOM      8  C   UNL A   1      32.800  22.429  25.171  1.00  0.00     0.227 C 
ATOM      9  O   UNL A   1      32.041  21.507  25.479  1.00  0.00    -0.275 OA
ATOM     10  H   UNL A   1      33.715  21.305  23.795  1.00  0.00     0.163 HD
BRANCH   8  11
ATOM     11  C   UNL A   1      32.613  23.823  25.733  1.00  0.00     0.088 C 
ATOM     12  H   UNL A   1      32.230  23.743  26.728  1.00  0.00     0.045 H 
ATOM     13  H   UNL A   1      33.567  24.308  25.712  1.00  0.00     0.045 H 
BRANCH  11  14
ATOM     14  C   UNL A   1      31.678  24.648  24.930  1.00  0.00     0.154 A 
ATOM     15  C   UNL A   1      30.403  26.096  23.836  1.00  0.00     0.122 A 
ATOM     16  N   UNL A   1      30.043  24.877  23.409  1.00  0.00    -0.079 NA
ATOM     17  C   UNL A   1      31.425  26.001  24.826  1.00  0.00     0.053 A 
ATOM     18  O   UNL A   1      30.857  23.981  24.074  1.00  0.00    -0.360 OA
BRANCH  15  19
ATOM     19  C   UNL A   1      29.796  27.308  23.304  1.00  0.00     0.005 A 
ATOM     20  C   UNL A   1      28.583  29.594  22.231  1.00  0.00     0.118 A 
ATOM     21  C   UNL A   1      29.947  29.367  22.040  1.00  0.00    -0.019 A 
ATOM     22  C   UNL A   1      27.816  28.667  22.934  1.00  0.00    -0.019 A 
ATOM     23  C   UNL A   1      30.559  28.236  22.588  1.00  0.00    -0.049 A 
ATOM     24  H   UNL A   1      30.506  30.038  21.490  1.00  0.00     0.066 H 
ATOM     25  C   UNL A   1      28.422  27.528  23.471  1.00  0.00    -0.049 A 
ATOM     26  H   UNL A   1      26.803  28.821  23.057  1.00  0.00     0.066 H 
ATOM     27  H   UNL A   1      31.573  28.087  22.464  1.00  0.00     0.063 H 
ATOM     28  H   UNL A   1      27.854  26.844  23.994  1.00  0.00     0.063 H 
BRANCH  20  29
ATOM     29  O   UNL A   1      28.074  30.724  21.651  1.00  0.00    -0.497 OA
BRANCH  29  30
ATOM     30  C   UNL A   1      28.749  31.921  22.029  1.00  0.00     0.078 C 
ATOM     31  H   UNL A   1      29.200  32.365  21.167  1.00  0.00     0.067 H 
ATOM     32  H   UNL A   1      29.507  31.692  22.748  1.00  0.00     0.067 H 
ATOM     33  H   UNL A   1      28.047  32.607  22.457  1.00  0.00     0.067 H 
ENDBRANCH  29  30
ENDBRANCH  20  29
ENDBRANCH  15  19
BRANCH  17  34
ATOM     34  C   UNL A   1      32.038  27.035  25.638  1.00  0.00    -0.012 A 
ATOM     35  C   UNL A   1      33.276  27.566  25.257  1.00  0.00    -0.050 A 
ATOM     36  C   UNL A   1      31.420  27.511  26.798  1.00  0.00    -0.050 A 
ATOM     37  C   UNL A   1      33.875  28.570  26.018  1.00  0.00    -0.019 A 
ATOM     38  H   UNL A   1      33.747  27.214  24.409  1.00  0.00     0.063 H 
ATOM     39  C   UNL A   1      32.026  28.519  27.561  1.00  0.00    -0.019 A 
ATOM     40  H   UNL A   1      30.513  27.119  27.094  1.00  0.00     0.063 H 
ATOM     41  C   UNL A   1      33.256  29.053  27.172  1.00  0.00     0.118 A 
ATOM     42  H   UNL A   1      34.786  28.960  25.726  1.00  0.00     0.066 H 
ATOM     43  H   UNL A   1      31.561  28.867  28.414  1.00  0.00     0.066 H 
BRANCH  41  44
ATOM     44  O   UNL A   1      33.950  30.036  27.819  1.00  0.00    -0.497 OA
BRANCH  44  45
ATOM     45  C   UNL A   1      33.582  31.380  27.535  1.00  0.00     0.078 C 
ATOM     46  H   UNL A   1      32.718  31.641  28.111  1.00  0.00     0.067 H 
ATOM     47  H   UNL A   1      33.360  31.477  26.494  1.00  0.00     0.067 H 
ATOM     48  H   UNL A   1      34.390  32.032  27.791  1.00  0.00     0.067 H 
ENDBRANCH  44  45
ENDBRANCH  41  44
ENDBRANCH  17  34
ENDBRANCH  11  14
ENDBRANCH   8  11
ENDBRANCH   4   7
ENDBRANCH   1   4
BRANCH   1  49
ATOM     49  C   UNL A   1      36.274  21.544  25.258  1.00  0.00    -0.052 C 
ATOM     50  H   UNL A   1      35.353  21.655  25.790  1.00  0.00     0.027 H 
ATOM     51  H   UNL A   1      37.123  21.905  25.798  1.00  0.00     0.027 H 
BRANCH  49  52
ATOM     52  C   UNL A   1      36.516  20.047  25.031  1.00  0.00    -0.052 C 
ATOM     53  H   UNL A   1      35.917  19.737  24.199  1.00  0.00     0.027 H 
ATOM     54  H   UNL A   1      36.255  19.561  25.948  1.00  0.00     0.027 H 
BRANCH  52  55
ATOM     55  C   UNL A   1      37.968  19.658  24.740  1.00  0.00    -0.036 C 
ATOM     56  H   UNL A   1      38.232  20.049  23.780  1.00  0.00     0.028 H 
ATOM     57  H   UNL A   1      38.010  18.590  24.786  1.00  0.00     0.028 H 
BRANCH  55  58
ATOM     58  C   UNL A   1      38.983  20.172  25.758  1.00  0.00     0.018 C 
ATOM     59  H   UNL A   1      38.490  20.309  26.697  1.00  0.00     0.049 H 
ATOM     60  H   UNL A   1      39.381  21.095  25.390  1.00  0.00     0.049 H 
BRANCH  58  61
ATOM     61  N   UNL A   1      40.091  19.247  25.939  1.00  0.00    -0.352 N 
ATOM     62  C   UNL A   1      41.415  19.503  26.172  1.00  0.00     0.251 C 
ATOM     63  H   UNL A   1      39.852  18.294  25.887  1.00  0.00     0.163 HD
ATOM     64  O   UNL A   1      42.239  18.589  26.104  1.00  0.00    -0.269 OA
BRANCH  62  65
ATOM     65  C   UNL A   1      41.873  20.872  26.490  1.00  0.00     0.039 A 
ATOM     66  C   UNL A   1      42.005  21.796  25.450  1.00  0.00    -0.049 A 
ATOM     67  C   UNL A   1      42.217  21.235  27.796  1.00  0.00    -0.049 A 
ATOM     68  C   UNL A   1      42.433  23.097  25.724  1.00  0.00    -0.053 A 
ATOM     69  H   UNL A   1      41.784  21.518  24.481  1.00  0.00     0.063 H 
ATOM     70  C   UNL A   1      42.587  22.549  28.078  1.00  0.00    -0.053 A 
ATOM     71  H   UNL A   1      42.196  20.531  28.550  1.00  0.00     0.063 H 
ATOM     72  C   UNL A   1      42.705  23.490  27.044  1.00  0.00    -0.014 A 
ATOM     73  H   UNL A   1      42.550  23.772  24.952  1.00  0.00     0.063 H 
ATOM     74  H   UNL A   1      42.774  22.831  29.053  1.00  0.00     0.063 H 
BRANCH  72  75
ATOM     75  C   UNL A   1      43.125  24.879  27.356  1.00  0.00     0.031 A 
ATOM     76  C   UNL A   1      44.534  25.323  27.081  1.00  0.00     0.074 A 
ATOM     77  C   UNL A   1      42.251  25.724  27.932  1.00  0.00     0.049 A 
ATOM     78  N   UNL A   1      45.102  26.476  27.330  1.00  0.00    -0.248 NA
ATOM     79  C   UNL A   1      45.430  24.333  26.464  1.00  0.00    -0.034 C 
ATOM     80  C   UNL A   1      40.869  25.399  28.287  1.00  0.00    -0.036 A 
ATOM     81  N   UNL A   1      42.398  27.029  28.331  1.00  0.00    -0.354 N 
ATOM     82  C   UNL A   1      46.421  26.345  26.914  1.00  0.00     0.074 A 
ATOM     83  C   UNL A   1      46.583  24.987  26.440  1.00  0.00    -0.034 C 
ATOM     84  H   UNL A   1      45.218  23.378  26.137  1.00  0.00     0.065 H 
ATOM     85  C   UNL A   1      40.288  26.480  28.831  1.00  0.00    -0.036 A 
ATOM     86  H   UNL A   1      40.414  24.484  28.141  1.00  0.00     0.065 H 
ATOM     87  C   UNL A   1      41.265  27.564  28.893  1.00  0.00     0.049 A 
ATOM     88  H   UNL A   1      43.236  27.534  28.222  1.00  0.00     0.167 HD
ATOM     89  C   UNL A   1      47.402  27.278  26.910  1.00  0.00     0.037 A 
ATOM     90  H   UNL A   1      47.478  24.582  26.125  1.00  0.00     0.065 H 
ATOM     91  H   UNL A   1      39.311  26.536  29.155  1.00  0.00     0.065 H 
ATOM     92  C   UNL A   1      41.042  28.790  29.403  1.00  0.00     0.037 A 
ATOM     93  C   UNL A   1      47.232  28.637  27.355  1.00  0.00     0.049 A 
ATOM     94  C   UNL A   1      42.147  29.810  29.382  1.00  0.00     0.074 A 
ATOM     95  C   UNL A   1      48.149  29.673  27.336  1.00  0.00    -0.036 A 
ATOM     96  N   UNL A   1      46.064  29.147  27.902  1.00  0.00    -0.354 N 
ATOM     97  N   UNL A   1      43.372  29.693  28.929  1.00  0.00    -0.248 NA
ATOM     98  C   UNL A   1      41.836  31.134  29.938  1.00  0.00    -0.034 C 
ATOM     99  C   UNL A   1      47.547  30.802  27.903  1.00  0.00    -0.036 A 
ATOM    100  H   UNL A   1      49.112  29.624  26.965  1.00  0.00     0.065 H 
ATOM    101  C   UNL A   1      46.243  30.479  28.240  1.00  0.00     0.049 A 
ATOM    102  H   UNL A   1      45.232  28.637  28.032  1.00  0.00     0.167 HD
ATOM    103  C   UNL A   1      43.968  30.931  29.121  1.00  0.00     0.074 A 
ATOM    104  C   UNL A   1      42.968  31.790  29.719  1.00  0.00    -0.034 C 
ATOM    105  H   UNL A   1      40.967  31.466  30.382  1.00  0.00     0.065 H 
ATOM    106  H   UNL A   1      47.999  31.718  28.048  1.00  0.00     0.065 H 
ATOM    107  C   UNL A   1      45.233  31.321  28.827  1.00  0.00     0.037 A 
ATOM    108  H   UNL A   1      43.115  32.786  29.945  1.00  0.00     0.065 H 
BRANCH  89 109
ATOM    109  C   UNL A   1      48.750  26.865  26.398  1.00  0.00     0.064 A 
ATOM    110  C   UNL A   1      49.112  27.049  25.055  1.00  0.00     0.173 A 
ATOM    111  C   UNL A   1      49.704  26.311  27.265  1.00  0.00     0.173 A 
ATOM    112  F   UNL A   1      48.232  27.563  24.183  1.00  0.00    -0.203 F 
ATOM    113  C   UNL A   1      50.370  26.670  24.594  1.00  0.00     0.198 A 
ATOM    114  C   UNL A   1      50.970  25.959  26.807  1.00  0.00     0.198 A 
ATOM    115  F   UNL A   1      49.411  26.119  28.561  1.00  0.00    -0.203 F 
ATOM    116  F   UNL A   1      50.678  26.815  23.297  1.00  0.00    -0.200 F 
ATOM    117  C   UNL A   1      51.301  26.132  25.470  1.00  0.00     0.200 A 
ATOM    118  F   UNL A   1      51.873  25.450  27.657  1.00  0.00    -0.200 F 
ATOM    119  F   UNL A   1      52.513  25.773  25.026  1.00  0.00    -0.200 F 
ENDBRANCH  89 109
BRANCH  92 120
ATOM    120  C   UNL A   1      39.704  29.131  29.949  1.00  0.00     0.064 A 
ATOM    121  C   UNL A   1      39.367  28.809  31.272  1.00  0.00     0.173 A 
ATOM    122  C   UNL A   1      38.738  29.779  29.167  1.00  0.00     0.173 A 
ATOM    123  F   UNL A   1      40.251  28.169  32.051  1.00  0.00    -0.203 F 
ATOM    124  C   UNL A   1      38.107  29.109  31.785  1.00  0.00     0.198 A 
ATOM    125  C   UNL A   1      37.487  30.100  29.691  1.00  0.00     0.198 A 
ATOM    126  F   UNL A   1      39.014  30.111  27.899  1.00  0.00    -0.203 F 
ATOM    127  F   UNL A   1      37.797  28.754  33.040  1.00  0.00    -0.200 F 
ATOM    128  C   UNL A   1      37.171  29.759  30.997  1.00  0.00     0.200 A 
ATOM    129  F   UNL A   1      36.588  30.739  28.929  1.00  0.00    -0.200 F 
ATOM    130  F   UNL A   1      35.960  30.049  31.492  1.00  0.00    -0.200 F 
ENDBRANCH  92 120
BRANCH 107 131
ATOM    131  C   UNL A   1      45.596  32.747  29.120  1.00  0.00     0.064 A 
ATOM    132  C   UNL A   1      45.372  33.767  28.184  1.00  0.00     0.173 A 
ATOM    133  C   UNL A   1      46.139  33.100  30.364  1.00  0.00     0.173 A 
ATOM    134  F   UNL A   1      44.871  33.476  26.974  1.00  0.00    -0.203 F 
ATOM    135  C   UNL A   1      45.700  35.089  28.476  1.00  0.00     0.198 A 
ATOM    136  C   UNL A   1      46.441  34.426  30.662  1.00  0.00     0.198 A 
ATOM    137  F   UNL A   1      46.367  32.161  31.295  1.00  0.00    -0.203 F 
ATOM    138  F   UNL A   1      45.518  36.041  27.552  1.00  0.00    -0.200 F 
ATOM    139  C   UNL A   1      46.226  35.417  29.716  1.00  0.00     0.200 A 
ATOM    140  F   UNL A   1      46.940  34.744  31.864  1.00  0.00    -0.200 F 
ATOM    141  F   UNL A   1      46.537  36.690  29.997  1.00  0.00    -0.200 F 
ENDBRANCH 107 131
ENDBRANCH  72  75
ENDBRANCH  62  65
ENDBRANCH  58  61
ENDBRANCH  55  58
ENDBRANCH  52  55
ENDBRANCH  49  52
ENDBRANCH   1  49
TORSDOF 20
ENDMDL
MODEL 6
REMARK VINA RESULT:     -11.6      4.348      8.436
REMARK SMILES COc1ccc(-c2noc(CC(=O)NCCCCCCNC(=O)c3ccc(-c4c5nc(c(-c6c(F)c(F)c(F)c(F)c6F)c6ccc([nH]6)c(-c6c(F)c(F)c(F)c(F)c6F)c6nc(c(-c7c(F)c(F)c(F)c(F)c7F)c7ccc4[nH]7)C=C6)C=C5)cc3)c2-c2ccc(OC)cc2)cc1
REMARK SMILES IDX 16 1 15 4 14 7 12 8 13 9 11 11 10 14 7 15 8 16 87 17 9 18
REMARK SMILES IDX 6 19 3 20 4 21 97 22 5 23 96 25 2 29 1 30 88 34 89 35 95 36
REMARK SMILES IDX 90 37 94 39 91 41 92 44 93 45 17 49 18 52 19 55 20 58 21 61
REMARK SMILES IDX 22 62 23 64 24 65 25 66 86 67 26 68 85 70 27 72 28 75 29 76
REMARK SMILES IDX 79 77 30 78 84 79 78 80 80 81 31 82 83 83 77 85 76 87 32 89
REMARK SMILES IDX 64 92 44 93 63 94 45 95 48 96 62 97 81 98 46 99 47 101
REMARK SMILES IDX 61 103 82 104 49 107 33 109 34 110 42 111 35 112 36 113
REMARK SMILES IDX 40 114 43 115 37 116 38 117 41 118 39 119 65 120 66 121
REMARK SMILES IDX 74 122 67 123 68 124 72 125 75 126 69 127 70 128 73 129
REMARK SMILES IDX 71 130 50 131 51 132 59 133 52 134 53 135 57 136 60 137
REMARK SMILES IDX 54 138 55 139 58 140 56 141
REMARK H PARENT 16 2 16 3 15 5 15 6 14 10 11 12 11 13 4 24 97 26 5 27 96 28
REMARK H PARENT 1 31 1 32 1 33 89 38 95 40 90 42 94 43 93 46 93 47 93 48 17 50
REMARK H PARENT 17 51 18 53 18 54 19 56 19 57 20 59 20 60 21 63 25 69 86 71
REMARK H PARENT 26 73 85 74 84 84 78 86 80 88 83 90 77 91 45 100 48 102 81 105
REMARK H PARENT 46 106 82 108
REMARK Flexibility Score: inf
ROOT
ATOM      1  C   UNL A   1      36.381  22.274  24.079  1.00  0.00    -0.036 C 
ATOM      2  H   UNL A   1      37.127  23.032  24.190  1.00  0.00     0.028 H 
ATOM      3  H   UNL A   1      36.557  21.652  23.226  1.00  0.00     0.028 H 
ENDROOT
BRANCH   1   4
ATOM      4  C   UNL A   1      35.027  22.953  23.869  1.00  0.00     0.017 C 
ATOM      5  H   UNL A   1      35.008  23.873  24.416  1.00  0.00     0.049 H 
ATOM      6  H   UNL A   1      34.896  23.138  22.824  1.00  0.00     0.049 H 
BRANCH   4   7
ATOM      7  N   UNL A   1      33.947  22.105  24.330  1.00  0.00    -0.356 N 
ATOM      8  C   UNL A   1      32.983  22.374  25.259  1.00  0.00     0.227 C 
ATOM      9  O   UNL A   1      32.215  21.465  25.580  1.00  0.00    -0.275 OA
ATOM     10  H   UNL A   1      33.902  21.213  23.917  1.00  0.00     0.163 HD
BRANCH   8  11
ATOM     11  C   UNL A   1      32.802  23.782  25.788  1.00  0.00     0.088 C 
ATOM     12  H   UNL A   1      32.446  23.725  26.795  1.00  0.00     0.045 H 
ATOM     13  H   UNL A   1      33.751  24.271  25.728  1.00  0.00     0.045 H 
BRANCH  11  14
ATOM     14  C   UNL A   1      31.839  24.578  24.989  1.00  0.00     0.154 A 
ATOM     15  C   UNL A   1      30.514  25.987  23.904  1.00  0.00     0.122 A 
ATOM     16  N   UNL A   1      30.202  24.759  23.465  1.00  0.00    -0.079 NA
ATOM     17  C   UNL A   1      31.536  25.922  24.897  1.00  0.00     0.053 A 
ATOM     18  O   UNL A   1      31.047  23.888  24.124  1.00  0.00    -0.360 OA
BRANCH  15  19
ATOM     19  C   UNL A   1      29.863  27.180  23.380  1.00  0.00     0.005 A 
ATOM     20  C   UNL A   1      28.567  29.428  22.325  1.00  0.00     0.118 A 
ATOM     21  C   UNL A   1      29.932  29.237  22.106  1.00  0.00    -0.019 A 
ATOM     22  C   UNL A   1      27.840  28.485  23.048  1.00  0.00    -0.019 A 
ATOM     23  C   UNL A   1      30.586  28.125  22.645  1.00  0.00    -0.049 A 
ATOM     24  H   UNL A   1      30.461  29.920  21.541  1.00  0.00     0.066 H 
ATOM     25  C   UNL A   1      28.488  27.365  23.576  1.00  0.00    -0.049 A 
ATOM     26  H   UNL A   1      26.827  28.612  23.193  1.00  0.00     0.066 H 
ATOM     27  H   UNL A   1      31.600  28.002  22.500  1.00  0.00     0.063 H 
ATOM     28  H   UNL A   1      27.949  26.668  24.114  1.00  0.00     0.063 H 
BRANCH  20  29
ATOM     29  O   UNL A   1      28.016  30.542  21.753  1.00  0.00    -0.497 OA
BRANCH  29  30
ATOM     30  C   UNL A   1      27.835  31.628  22.659  1.00  0.00     0.078 C 
ATOM     31  H   UNL A   1      26.975  32.195  22.369  1.00  0.00     0.067 H 
ATOM     32  H   UNL A   1      28.699  32.258  22.638  1.00  0.00     0.067 H 
ATOM     33  H   UNL A   1      27.693  31.247  23.649  1.00  0.00     0.067 H 
ENDBRANCH  29  30
ENDBRANCH  20  29
ENDBRANCH  15  19
BRANCH  17  34
ATOM     34  C   UNL A   1      32.107  26.970  25.721  1.00  0.00    -0.012 A 
ATOM     35  C   UNL A   1      33.390  27.450  25.433  1.00  0.00    -0.050 A 
ATOM     36  C   UNL A   1      31.403  27.511  26.800  1.00  0.00    -0.050 A 
ATOM     37  C   UNL A   1      33.951  28.466  26.206  1.00  0.00    -0.019 A 
ATOM     38  H   UNL A   1      33.923  27.049  24.645  1.00  0.00     0.063 H 
ATOM     39  C   UNL A   1      31.970  28.531  27.575  1.00  0.00    -0.019 A 
ATOM     40  H   UNL A   1      30.461  27.158  27.028  1.00  0.00     0.063 H 
ATOM     41  C   UNL A   1      33.246  29.014  27.279  1.00  0.00     0.118 A 
ATOM     42  H   UNL A   1      34.896  28.818  25.982  1.00  0.00     0.066 H 
ATOM     43  H   UNL A   1      31.443  28.928  28.369  1.00  0.00     0.066 H 
BRANCH  41  44
ATOM     44  O   UNL A   1      33.911  30.002  27.948  1.00  0.00    -0.497 OA
BRANCH  44  45
ATOM     45  C   UNL A   1      33.624  31.343  27.571  1.00  0.00     0.078 C 
ATOM     46  H   UNL A   1      34.474  31.960  27.776  1.00  0.00     0.067 H 
ATOM     47  H   UNL A   1      32.782  31.698  28.127  1.00  0.00     0.067 H 
ATOM     48  H   UNL A   1      33.403  31.380  26.525  1.00  0.00     0.067 H 
ENDBRANCH  44  45
ENDBRANCH  41  44
ENDBRANCH  17  34
ENDBRANCH  11  14
ENDBRANCH   8  11
ENDBRANCH   4   7
ENDBRANCH   1   4
BRANCH   1  49
ATOM     49  C   UNL A   1      36.425  21.365  25.315  1.00  0.00    -0.052 C 
ATOM     50  H   UNL A   1      35.483  21.441  25.817  1.00  0.00     0.027 H 
ATOM     51  H   UNL A   1      37.250  21.703  25.906  1.00  0.00     0.027 H 
BRANCH  49  52
ATOM     52  C   UNL A   1      36.689  19.883  25.020  1.00  0.00    -0.052 C 
ATOM     53  H   UNL A   1      36.117  19.610  24.158  1.00  0.00     0.027 H 
ATOM     54  H   UNL A   1      36.408  19.349  25.905  1.00  0.00     0.027 H 
BRANCH  52  55
ATOM     55  C   UNL A   1      38.152  19.522  24.752  1.00  0.00    -0.036 C 
ATOM     56  H   UNL A   1      38.438  19.960  23.819  1.00  0.00     0.028 H 
ATOM     57  H   UNL A   1      38.205  18.454  24.750  1.00  0.00     0.028 H 
BRANCH  55  58
ATOM     58  C   UNL A   1      39.134  19.999  25.820  1.00  0.00     0.018 C 
ATOM     59  H   UNL A   1      38.617  20.076  26.753  1.00  0.00     0.049 H 
ATOM     60  H   UNL A   1      39.522  20.948  25.512  1.00  0.00     0.049 H 
BRANCH  58  61
ATOM     61  N   UNL A   1      40.255  19.086  25.977  1.00  0.00    -0.352 N 
ATOM     62  C   UNL A   1      41.583  19.357  26.169  1.00  0.00     0.251 C 
ATOM     63  H   UNL A   1      40.024  18.130  25.941  1.00  0.00     0.163 HD
ATOM     64  O   UNL A   1      42.414  18.450  26.085  1.00  0.00    -0.269 OA
BRANCH  62  65
ATOM     65  C   UNL A   1      42.038  20.732  26.461  1.00  0.00     0.039 A 
ATOM     66  C   UNL A   1      42.246  21.103  27.793  1.00  0.00    -0.049 A 
ATOM     67  C   UNL A   1      42.215  21.669  25.438  1.00  0.00    -0.049 A 
ATOM     68  C   UNL A   1      42.678  22.397  28.096  1.00  0.00    -0.053 A 
ATOM     69  H   UNL A   1      42.082  20.423  28.551  1.00  0.00     0.063 H 
ATOM     70  C   UNL A   1      42.703  22.940  25.736  1.00  0.00    -0.053 A 
ATOM     71  H   UNL A   1      41.985  21.419  24.464  1.00  0.00     0.063 H 
ATOM     72  C   UNL A   1      42.933  23.318  27.067  1.00  0.00    -0.014 A 
ATOM     73  H   UNL A   1      42.811  22.676  29.081  1.00  0.00     0.063 H 
ATOM     74  H   UNL A   1      42.898  23.607  24.972  1.00  0.00     0.063 H 
BRANCH  72  75
ATOM     75  C   UNL A   1      43.428  24.684  27.372  1.00  0.00     0.031 A 
ATOM     76  C   UNL A   1      42.489  25.727  27.908  1.00  0.00     0.074 A 
ATOM     77  C   UNL A   1      44.712  24.997  27.116  1.00  0.00     0.049 A 
ATOM     78  N   UNL A   1      42.722  26.985  28.187  1.00  0.00    -0.248 NA
ATOM     79  C   UNL A   1      41.100  25.306  28.144  1.00  0.00    -0.034 C 
ATOM     80  C   UNL A   1      45.709  24.085  26.556  1.00  0.00    -0.036 A 
ATOM     81  N   UNL A   1      45.396  26.175  27.286  1.00  0.00    -0.354 N 
ATOM     82  C   UNL A   1      41.508  27.507  28.615  1.00  0.00     0.074 A 
ATOM     83  C   UNL A   1      40.531  26.444  28.517  1.00  0.00    -0.034 C 
ATOM     84  H   UNL A   1      40.677  24.371  28.044  1.00  0.00     0.065 H 
ATOM     85  C   UNL A   1      46.882  24.729  26.447  1.00  0.00    -0.036 A 
ATOM     86  H   UNL A   1      45.538  23.103  26.288  1.00  0.00     0.065 H 
ATOM     87  C   UNL A   1      46.712  26.107  26.900  1.00  0.00     0.049 A 
ATOM     88  H   UNL A   1      44.983  26.990  27.652  1.00  0.00     0.167 HD
ATOM     89  C   UNL A   1      41.239  28.754  29.068  1.00  0.00     0.037 A 
ATOM     90  H   UNL A   1      39.524  26.558  28.711  1.00  0.00     0.065 H 
ATOM     91  H   UNL A   1      47.762  24.318  26.098  1.00  0.00     0.065 H 
ATOM     92  C   UNL A   1      47.671  27.052  26.908  1.00  0.00     0.037 A 
ATOM     93  C   UNL A   1      42.217  29.803  29.193  1.00  0.00     0.049 A 
ATOM     94  C   UNL A   1      47.346  28.428  27.421  1.00  0.00     0.074 A 
ATOM     95  C   UNL A   1      42.054  31.082  29.696  1.00  0.00    -0.036 A 
ATOM     96  N   UNL A   1      43.545  29.691  28.808  1.00  0.00    -0.354 N 
ATOM     97  N   UNL A   1      46.210  28.892  27.882  1.00  0.00    -0.248 NA
ATOM     98  C   UNL A   1      48.440  29.410  27.419  1.00  0.00    -0.034 C 
ATOM     99  C   UNL A   1      43.275  31.756  29.584  1.00  0.00    -0.036 A 
ATOM    100  H   UNL A   1      41.182  31.471  30.089  1.00  0.00     0.065 H 
ATOM    101  C   UNL A   1      44.208  30.884  29.047  1.00  0.00     0.049 A 
ATOM    102  H   UNL A   1      43.955  28.884  28.421  1.00  0.00     0.167 HD
ATOM    103  C   UNL A   1      46.457  30.207  28.248  1.00  0.00     0.074 A 
ATOM    104  C   UNL A   1      47.855  30.465  27.969  1.00  0.00    -0.034 C 
ATOM    105  H   UNL A   1      49.408  29.306  27.080  1.00  0.00     0.065 H 
ATOM    106  H   UNL A   1      43.450  32.736  29.853  1.00  0.00     0.065 H 
ATOM    107  C   UNL A   1      45.602  31.120  28.770  1.00  0.00     0.037 A 
ATOM    108  H   UNL A   1      48.334  31.355  28.173  1.00  0.00     0.065 H 
BRANCH  89 109
ATOM    109  C   UNL A   1      39.826  29.053  29.474  1.00  0.00     0.064 A 
ATOM    110  C   UNL A   1      39.401  28.922  30.805  1.00  0.00     0.173 A 
ATOM    111  C   UNL A   1      38.893  29.511  28.530  1.00  0.00     0.173 A 
ATOM    112  F   UNL A   1      40.250  28.477  31.743  1.00  0.00    -0.203 F 
ATOM    113  C   UNL A   1      38.089  29.212  31.171  1.00  0.00     0.198 A 
ATOM    114  C   UNL A   1      37.590  29.827  28.905  1.00  0.00     0.198 A 
ATOM    115  F   UNL A   1      39.249  29.661  27.245  1.00  0.00    -0.203 F 
ATOM    116  F   UNL A   1      37.695  29.036  32.440  1.00  0.00    -0.200 F 
ATOM    117  C   UNL A   1      37.187  29.671  30.223  1.00  0.00     0.200 A 
ATOM    118  F   UNL A   1      36.722  30.282  27.990  1.00  0.00    -0.200 F 
ATOM    119  F   UNL A   1      35.926  29.956  30.578  1.00  0.00    -0.200 F 
ENDBRANCH  89 109
BRANCH  92 120
ATOM    120  C   UNL A   1      49.041  26.718  26.443  1.00  0.00     0.064 A 
ATOM    121  C   UNL A   1      49.410  26.911  25.104  1.00  0.00     0.173 A 
ATOM    122  C   UNL A   1      50.006  26.201  27.319  1.00  0.00     0.173 A 
ATOM    123  F   UNL A   1      48.514  27.383  24.224  1.00  0.00    -0.203 F 
ATOM    124  C   UNL A   1      50.688  26.583  24.656  1.00  0.00     0.198 A 
ATOM    125  C   UNL A   1      51.290  25.897  26.874  1.00  0.00     0.198 A 
ATOM    126  F   UNL A   1      49.703  26.002  28.609  1.00  0.00    -0.203 F 
ATOM    127  F   UNL A   1      51.001  26.739  23.362  1.00  0.00    -0.200 F 
ATOM    128  C   UNL A   1      51.628  26.081  25.541  1.00  0.00     0.200 A 
ATOM    129  F   UNL A   1      52.201  25.423  27.736  1.00  0.00    -0.200 F 
ATOM    130  F   UNL A   1      52.858  25.768  25.111  1.00  0.00    -0.200 F 
ENDBRANCH  92 120
BRANCH 107 131
ATOM    131  C   UNL A   1      46.160  32.472  29.102  1.00  0.00     0.064 A 
ATOM    132  C   UNL A   1      46.175  33.511  28.160  1.00  0.00     0.173 A 
ATOM    133  C   UNL A   1      46.652  32.741  30.388  1.00  0.00     0.173 A 
ATOM    134  F   UNL A   1      45.731  33.297  26.911  1.00  0.00    -0.203 F 
ATOM    135  C   UNL A   1      46.682  34.765  28.487  1.00  0.00     0.198 A 
ATOM    136  C   UNL A   1      47.134  34.004  30.719  1.00  0.00     0.198 A 
ATOM    137  F   UNL A   1      46.655  31.782  31.326  1.00  0.00    -0.203 F 
ATOM    138  F   UNL A   1      46.726  35.731  27.559  1.00  0.00    -0.200 F 
ATOM    139  C   UNL A   1      47.154  35.013  29.768  1.00  0.00     0.200 A 
ATOM    140  F   UNL A   1      47.580  34.245  31.960  1.00  0.00    -0.200 F 
ATOM    141  F   UNL A   1      47.637  36.222  30.082  1.00  0.00    -0.200 F 
ENDBRANCH 107 131
ENDBRANCH  72  75
ENDBRANCH  62  65
ENDBRANCH  58  61
ENDBRANCH  55  58
ENDBRANCH  52  55
ENDBRANCH  49  52
ENDBRANCH   1  49
TORSDOF 20
ENDMDL
MODEL 7
REMARK VINA RESULT:     -11.6      1.521      2.273
REMARK SMILES COc1ccc(-c2noc(CC(=O)NCCCCCCNC(=O)c3ccc(-c4c5nc(c(-c6c(F)c(F)c(F)c(F)c6F)c6ccc([nH]6)c(-c6c(F)c(F)c(F)c(F)c6F)c6nc(c(-c7c(F)c(F)c(F)c(F)c7F)c7ccc4[nH]7)C=C6)C=C5)cc3)c2-c2ccc(OC)cc2)cc1
REMARK SMILES IDX 16 1 15 4 14 7 12 8 13 9 11 11 10 14 7 15 8 16 87 17 9 18
REMARK SMILES IDX 6 19 3 20 4 21 97 22 5 23 96 25 2 29 1 30 88 34 89 35 95 36
REMARK SMILES IDX 90 37 94 39 91 41 92 44 93 45 17 49 18 52 19 55 20 58 21 61
REMARK SMILES IDX 22 62 23 64 24 65 25 66 86 67 26 68 85 70 27 72 28 75 29 76
REMARK SMILES IDX 79 77 30 78 84 79 78 80 80 81 31 82 83 83 77 85 76 87 32 89
REMARK SMILES IDX 64 92 44 93 63 94 45 95 48 96 62 97 81 98 46 99 47 101
REMARK SMILES IDX 61 103 82 104 49 107 33 109 34 110 42 111 35 112 36 113
REMARK SMILES IDX 40 114 43 115 37 116 38 117 41 118 39 119 65 120 66 121
REMARK SMILES IDX 74 122 67 123 68 124 72 125 75 126 69 127 70 128 73 129
REMARK SMILES IDX 71 130 50 131 51 132 59 133 52 134 53 135 57 136 60 137
REMARK SMILES IDX 54 138 55 139 58 140 56 141
REMARK H PARENT 16 2 16 3 15 5 15 6 14 10 11 12 11 13 4 24 97 26 5 27 96 28
REMARK H PARENT 1 31 1 32 1 33 89 38 95 40 90 42 94 43 93 46 93 47 93 48 17 50
REMARK H PARENT 17 51 18 53 18 54 19 56 19 57 20 59 20 60 21 63 25 69 86 71
REMARK H PARENT 26 73 85 74 84 84 78 86 80 88 83 90 77 91 45 100 48 102 81 105
REMARK H PARENT 46 106 82 108
REMARK Flexibility Score: inf
ROOT
ATOM      1  C   UNL A   1      30.503  29.306  23.419  1.00  0.00    -0.036 C 
ATOM      2  H   UNL A   1      29.727  28.600  23.627  1.00  0.00     0.028 H 
ATOM      3  H   UNL A   1      30.496  29.628  22.398  1.00  0.00     0.028 H 
ENDROOT
BRANCH   1   4
ATOM      4  C   UNL A   1      31.852  28.630  23.668  1.00  0.00     0.017 C 
ATOM      5  H   UNL A   1      32.576  29.376  23.923  1.00  0.00     0.049 H 
ATOM      6  H   UNL A   1      31.741  27.929  24.469  1.00  0.00     0.049 H 
BRANCH   4   7
ATOM      7  N   UNL A   1      32.299  27.918  22.487  1.00  0.00    -0.356 N 
ATOM      8  C   UNL A   1      33.088  26.808  22.403  1.00  0.00     0.227 C 
ATOM      9  O   UNL A   1      33.436  26.424  21.285  1.00  0.00    -0.275 OA
ATOM     10  H   UNL A   1      31.992  28.288  21.629  1.00  0.00     0.163 HD
BRANCH   8  11
ATOM     11  C   UNL A   1      33.426  26.014  23.649  1.00  0.00     0.088 C 
ATOM     12  H   UNL A   1      34.489  26.017  23.778  1.00  0.00     0.045 H 
ATOM     13  H   UNL A   1      32.924  26.478  24.471  1.00  0.00     0.045 H 
BRANCH  11  14
ATOM     14  C   UNL A   1      32.961  24.608  23.580  1.00  0.00     0.154 A 
ATOM     15  C   UNL A   1      32.492  22.440  23.609  1.00  0.00     0.122 A 
ATOM     16  N   UNL A   1      31.432  23.049  23.058  1.00  0.00    -0.079 NA
ATOM     17  C   UNL A   1      33.505  23.389  23.935  1.00  0.00     0.053 A 
ATOM     18  O   UNL A   1      31.718  24.401  23.067  1.00  0.00    -0.360 OA
BRANCH  15  19
ATOM     19  C   UNL A   1      32.525  21.000  23.824  1.00  0.00     0.005 A 
ATOM     20  C   UNL A   1      32.667  18.235  24.253  1.00  0.00     0.118 A 
ATOM     21  C   UNL A   1      32.371  18.735  22.984  1.00  0.00    -0.019 A 
ATOM     22  C   UNL A   1      32.920  19.114  25.304  1.00  0.00    -0.019 A 
ATOM     23  C   UNL A   1      32.283  20.114  22.769  1.00  0.00    -0.049 A 
ATOM     24  H   UNL A   1      32.217  18.083  22.199  1.00  0.00     0.066 H 
ATOM     25  C   UNL A   1      32.847  20.493  25.090  1.00  0.00    -0.049 A 
ATOM     26  H   UNL A   1      33.161  18.748  26.238  1.00  0.00     0.066 H 
ATOM     27  H   UNL A   1      32.039  20.476  21.834  1.00  0.00     0.063 H 
ATOM     28  H   UNL A   1      33.031  21.143  25.870  1.00  0.00     0.063 H 
BRANCH  20  29
ATOM     29  O   UNL A   1      32.737  16.873  24.362  1.00  0.00    -0.497 OA
BRANCH  29  30
ATOM     30  C   UNL A   1      32.640  16.394  25.701  1.00  0.00     0.078 C 
ATOM     31  H   UNL A   1      31.673  15.965  25.858  1.00  0.00     0.067 H 
ATOM     32  H   UNL A   1      32.784  17.207  26.382  1.00  0.00     0.067 H 
ATOM     33  H   UNL A   1      33.392  15.651  25.869  1.00  0.00     0.067 H 
ENDBRANCH  29  30
ENDBRANCH  20  29
ENDBRANCH  15  19
BRANCH  17  34
ATOM     34  C   UNL A   1      34.850  23.185  24.439  1.00  0.00    -0.012 A 
ATOM     35  C   UNL A   1      35.808  22.578  23.618  1.00  0.00    -0.050 A 
ATOM     36  C   UNL A   1      35.210  23.579  25.731  1.00  0.00    -0.050 A 
ATOM     37  C   UNL A   1      37.110  22.386  24.081  1.00  0.00    -0.019 A 
ATOM     38  H   UNL A   1      35.550  22.273  22.667  1.00  0.00     0.063 H 
ATOM     39  C   UNL A   1      36.518  23.383  26.192  1.00  0.00    -0.019 A 
ATOM     40  H   UNL A   1      34.509  24.018  26.348  1.00  0.00     0.063 H 
ATOM     41  C   UNL A   1      37.474  22.786  25.368  1.00  0.00     0.118 A 
ATOM     42  H   UNL A   1      37.811  21.942  23.466  1.00  0.00     0.066 H 
ATOM     43  H   UNL A   1      36.777  23.680  27.146  1.00  0.00     0.066 H 
BRANCH  41  44
ATOM     44  O   UNL A   1      38.778  22.540  25.690  1.00  0.00    -0.497 OA
BRANCH  44  45
ATOM     45  C   UNL A   1      39.134  21.189  25.956  1.00  0.00     0.078 C 
ATOM     46  H   UNL A   1      38.293  20.676  26.373  1.00  0.00     0.067 H 
ATOM     47  H   UNL A   1      39.947  21.164  26.649  1.00  0.00     0.067 H 
ATOM     48  H   UNL A   1      39.426  20.711  25.044  1.00  0.00     0.067 H 
ENDBRANCH  44  45
ENDBRANCH  41  44
ENDBRANCH  17  34
ENDBRANCH  11  14
ENDBRANCH   8  11
ENDBRANCH   4   7
ENDBRANCH   1   4
BRANCH   1  49
ATOM     49  C   UNL A   1      30.272  30.551  24.286  1.00  0.00    -0.052 C 
ATOM     50  H   UNL A   1      29.264  30.523  24.645  1.00  0.00     0.027 H 
ATOM     51  H   UNL A   1      30.477  31.393  23.660  1.00  0.00     0.027 H 
BRANCH  49  52
ATOM     52  C   UNL A   1      31.205  30.680  25.496  1.00  0.00    -0.052 C 
ATOM     53  H   UNL A   1      32.210  30.551  25.155  1.00  0.00     0.027 H 
ATOM     54  H   UNL A   1      30.891  29.932  26.195  1.00  0.00     0.027 H 
BRANCH  52  55
ATOM     55  C   UNL A   1      31.126  32.016  26.240  1.00  0.00    -0.036 C 
ATOM     56  H   UNL A   1      30.349  31.946  26.971  1.00  0.00     0.028 H 
ATOM     57  H   UNL A   1      30.941  32.765  25.498  1.00  0.00     0.028 H 
BRANCH  55  58
ATOM     58  C   UNL A   1      32.412  32.427  26.953  1.00  0.00     0.018 C 
ATOM     59  H   UNL A   1      33.234  32.301  26.281  1.00  0.00     0.049 H 
ATOM     60  H   UNL A   1      32.521  31.809  27.820  1.00  0.00     0.049 H 
BRANCH  58  61
ATOM     61  N   UNL A   1      32.373  33.813  27.393  1.00  0.00    -0.352 N 
ATOM     62  C   UNL A   1      33.112  34.447  28.355  1.00  0.00     0.251 C 
ATOM     63  H   UNL A   1      31.718  34.381  26.927  1.00  0.00     0.163 HD
ATOM     64  O   UNL A   1      32.801  35.581  28.722  1.00  0.00    -0.269 OA
BRANCH  62  65
ATOM     65  C   UNL A   1      34.275  33.777  28.975  1.00  0.00     0.039 A 
ATOM     66  C   UNL A   1      35.560  34.219  28.646  1.00  0.00    -0.049 A 
ATOM     67  C   UNL A   1      34.109  32.691  29.840  1.00  0.00    -0.049 A 
ATOM     68  C   UNL A   1      36.676  33.604  29.220  1.00  0.00    -0.053 A 
ATOM     69  H   UNL A   1      35.684  34.997  27.981  1.00  0.00     0.063 H 
ATOM     70  C   UNL A   1      35.218  32.118  30.459  1.00  0.00    -0.053 A 
ATOM     71  H   UNL A   1      33.165  32.315  30.021  1.00  0.00     0.063 H 
ATOM     72  C   UNL A   1      36.512  32.564  30.149  1.00  0.00    -0.014 A 
ATOM     73  H   UNL A   1      37.624  33.917  28.960  1.00  0.00     0.063 H 
ATOM     74  H   UNL A   1      35.088  31.361  31.148  1.00  0.00     0.063 H 
BRANCH  72  75
ATOM     75  C   UNL A   1      37.686  31.927  30.796  1.00  0.00     0.031 A 
ATOM     76  C   UNL A   1      38.106  32.342  32.178  1.00  0.00     0.074 A 
ATOM     77  C   UNL A   1      38.404  31.013  30.118  1.00  0.00     0.049 A 
ATOM     78  N   UNL A   1      39.130  31.939  32.888  1.00  0.00    -0.248 NA
ATOM     79  C   UNL A   1      37.277  33.359  32.843  1.00  0.00    -0.034 C 
ATOM     80  C   UNL A   1      38.123  30.558  28.756  1.00  0.00    -0.036 A 
ATOM     81  N   UNL A   1      39.524  30.307  30.480  1.00  0.00    -0.354 N 
ATOM     82  C   UNL A   1      39.076  32.662  34.073  1.00  0.00     0.074 A 
ATOM     83  C   UNL A   1      37.946  33.562  33.969  1.00  0.00    -0.034 C 
ATOM     84  H   UNL A   1      36.403  33.801  32.518  1.00  0.00     0.065 H 
ATOM     85  C   UNL A   1      39.033  29.636  28.403  1.00  0.00    -0.036 A 
ATOM     86  H   UNL A   1      37.349  30.893  28.162  1.00  0.00     0.065 H 
ATOM     87  C   UNL A   1      39.979  29.458  29.502  1.00  0.00     0.049 A 
ATOM     88  H   UNL A   1      39.959  30.400  31.358  1.00  0.00     0.167 HD
ATOM     89  C   UNL A   1      39.883  32.570  35.156  1.00  0.00     0.037 A 
ATOM     90  H   UNL A   1      37.696  34.268  34.678  1.00  0.00     0.065 H 
ATOM     91  H   UNL A   1      39.061  29.135  27.502  1.00  0.00     0.065 H 
ATOM     92  C   UNL A   1      41.041  28.630  29.492  1.00  0.00     0.037 A 
ATOM     93  C   UNL A   1      40.989  31.656  35.270  1.00  0.00     0.049 A 
ATOM     94  C   UNL A   1      41.919  28.543  30.711  1.00  0.00     0.074 A 
ATOM     95  C   UNL A   1      41.829  31.446  36.349  1.00  0.00    -0.036 A 
ATOM     96  N   UNL A   1      41.408  30.798  34.264  1.00  0.00    -0.354 N 
ATOM     97  N   UNL A   1      41.820  29.186  31.848  1.00  0.00    -0.248 NA
ATOM     98  C   UNL A   1      43.052  27.610  30.644  1.00  0.00    -0.034 C 
ATOM     99  C   UNL A   1      42.779  30.486  35.985  1.00  0.00    -0.036 A 
ATOM    100  H   UNL A   1      41.766  31.916  37.266  1.00  0.00     0.065 H 
ATOM    101  C   UNL A   1      42.506  30.069  34.692  1.00  0.00     0.049 A 
ATOM    102  H   UNL A   1      40.988  30.719  33.377  1.00  0.00     0.167 HD
ATOM    103  C   UNL A   1      42.859  28.719  32.641  1.00  0.00     0.074 A 
ATOM    104  C   UNL A   1      43.569  27.727  31.860  1.00  0.00    -0.034 C 
ATOM    105  H   UNL A   1      43.364  27.019  29.858  1.00  0.00     0.065 H 
ATOM    106  H   UNL A   1      43.553  30.147  36.577  1.00  0.00     0.065 H 
ATOM    107  C   UNL A   1      43.195  29.080  33.903  1.00  0.00     0.037 A 
ATOM    108  H   UNL A   1      44.373  27.182  32.205  1.00  0.00     0.065 H 
BRANCH  89 109
ATOM    109  C   UNL A   1      39.594  33.478  36.314  1.00  0.00     0.064 A 
ATOM    110  C   UNL A   1      38.773  33.073  37.378  1.00  0.00     0.173 A 
ATOM    111  C   UNL A   1      40.171  34.756  36.382  1.00  0.00     0.173 A 
ATOM    112  F   UNL A   1      38.189  31.866  37.356  1.00  0.00    -0.203 F 
ATOM    113  C   UNL A   1      38.521  33.921  38.453  1.00  0.00     0.198 A 
ATOM    114  C   UNL A   1      39.939  35.591  37.471  1.00  0.00     0.198 A 
ATOM    115  F   UNL A   1      40.969  35.191  35.394  1.00  0.00    -0.203 F 
ATOM    116  F   UNL A   1      37.698  33.528  39.436  1.00  0.00    -0.200 F 
ATOM    117  C   UNL A   1      39.108  35.176  38.502  1.00  0.00     0.200 A 
ATOM    118  F   UNL A   1      40.517  36.799  37.524  1.00  0.00    -0.200 F 
ATOM    119  F   UNL A   1      38.869  35.990  39.540  1.00  0.00    -0.200 F 
ENDBRANCH  89 109
BRANCH  92 120
ATOM    120  C   UNL A   1      41.315  27.792  28.297  1.00  0.00     0.064 A 
ATOM    121  C   UNL A   1      42.116  28.275  27.252  1.00  0.00     0.173 A 
ATOM    122  C   UNL A   1      40.785  26.501  28.172  1.00  0.00     0.173 A 
ATOM    123  F   UNL A   1      42.627  29.513  27.318  1.00  0.00    -0.203 F 
ATOM    124  C   UNL A   1      42.362  27.502  26.120  1.00  0.00     0.198 A 
ATOM    125  C   UNL A   1      41.052  25.720  27.049  1.00  0.00     0.198 A 
ATOM    126  F   UNL A   1      40.016  25.993  29.145  1.00  0.00    -0.203 F 
ATOM    127  F   UNL A   1      43.098  28.003  25.118  1.00  0.00    -0.200 F 
ATOM    128  C   UNL A   1      41.835  26.224  26.021  1.00  0.00     0.200 A 
ATOM    129  F   UNL A   1      40.550  24.480  26.962  1.00  0.00    -0.200 F 
ATOM    130  F   UNL A   1      42.074  25.480  24.933  1.00  0.00    -0.200 F 
ENDBRANCH  92 120
BRANCH 107 131
ATOM    131  C   UNL A   1      44.362  28.376  34.530  1.00  0.00     0.064 A 
ATOM    132  C   UNL A   1      45.661  28.901  34.455  1.00  0.00     0.173 A 
ATOM    133  C   UNL A   1      44.173  27.184  35.245  1.00  0.00     0.173 A 
ATOM    134  F   UNL A   1      45.895  30.029  33.768  1.00  0.00    -0.203 F 
ATOM    135  C   UNL A   1      46.732  28.245  35.055  1.00  0.00     0.198 A 
ATOM    136  C   UNL A   1      45.242  26.545  35.865  1.00  0.00     0.198 A 
ATOM    137  F   UNL A   1      42.949  26.645  35.350  1.00  0.00    -0.203 F 
ATOM    138  F   UNL A   1      47.971  28.740  34.935  1.00  0.00    -0.200 F 
ATOM    139  C   UNL A   1      46.521  27.072  35.766  1.00  0.00     0.200 A 
ATOM    140  F   UNL A   1      45.035  25.418  36.560  1.00  0.00    -0.200 F 
ATOM    141  F   UNL A   1      47.552  26.445  36.347  1.00  0.00    -0.200 F 
ENDBRANCH 107 131
ENDBRANCH  72  75
ENDBRANCH  62  65
ENDBRANCH  58  61
ENDBRANCH  55  58
ENDBRANCH  52  55
ENDBRANCH  49  52
ENDBRANCH   1  49
TORSDOF 20
ENDMDL
MODEL 8
REMARK VINA RESULT:     -11.6      1.492      2.160
REMARK SMILES COc1ccc(-c2noc(CC(=O)NCCCCCCNC(=O)c3ccc(-c4c5nc(c(-c6c(F)c(F)c(F)c(F)c6F)c6ccc([nH]6)c(-c6c(F)c(F)c(F)c(F)c6F)c6nc(c(-c7c(F)c(F)c(F)c(F)c7F)c7ccc4[nH]7)C=C6)C=C5)cc3)c2-c2ccc(OC)cc2)cc1
REMARK SMILES IDX 16 1 15 4 14 7 12 8 13 9 11 11 10 14 7 15 8 16 87 17 9 18
REMARK SMILES IDX 6 19 3 20 4 21 97 22 5 23 96 25 2 29 1 30 88 34 89 35 95 36
REMARK SMILES IDX 90 37 94 39 91 41 92 44 93 45 17 49 18 52 19 55 20 58 21 61
REMARK SMILES IDX 22 62 23 64 24 65 25 66 86 67 26 68 85 70 27 72 28 75 29 76
REMARK SMILES IDX 79 77 30 78 84 79 78 80 80 81 31 82 83 83 77 85 76 87 32 89
REMARK SMILES IDX 64 92 44 93 63 94 45 95 48 96 62 97 81 98 46 99 47 101
REMARK SMILES IDX 61 103 82 104 49 107 33 109 34 110 42 111 35 112 36 113
REMARK SMILES IDX 40 114 43 115 37 116 38 117 41 118 39 119 65 120 66 121
REMARK SMILES IDX 74 122 67 123 68 124 72 125 75 126 69 127 70 128 73 129
REMARK SMILES IDX 71 130 50 131 51 132 59 133 52 134 53 135 57 136 60 137
REMARK SMILES IDX 54 138 55 139 58 140 56 141
REMARK H PARENT 16 2 16 3 15 5 15 6 14 10 11 12 11 13 4 24 97 26 5 27 96 28
REMARK H PARENT 1 31 1 32 1 33 89 38 95 40 90 42 94 43 93 46 93 47 93 48 17 50
REMARK H PARENT 17 51 18 53 18 54 19 56 19 57 20 59 20 60 21 63 25 69 86 71
REMARK H PARENT 26 73 85 74 84 84 78 86 80 88 83 90 77 91 45 100 48 102 81 105
REMARK H PARENT 46 106 82 108
REMARK Flexibility Score: inf
ROOT
ATOM      1  C   UNL A   1      30.767  29.579  23.737  1.00  0.00    -0.036 C 
ATOM      2  H   UNL A   1      29.726  29.822  23.720  1.00  0.00     0.028 H 
ATOM      3  H   UNL A   1      31.298  30.006  22.910  1.00  0.00     0.028 H 
ENDROOT
BRANCH   1   4
ATOM      4  C   UNL A   1      30.912  28.061  23.628  1.00  0.00     0.017 C 
ATOM      5  H   UNL A   1      31.352  27.685  24.529  1.00  0.00     0.049 H 
ATOM      6  H   UNL A   1      29.943  27.633  23.481  1.00  0.00     0.049 H 
BRANCH   4   7
ATOM      7  N   UNL A   1      31.753  27.701  22.504  1.00  0.00    -0.356 N 
ATOM      8  C   UNL A   1      32.870  26.915  22.486  1.00  0.00     0.227 C 
ATOM      9  O   UNL A   1      33.499  26.824  21.430  1.00  0.00    -0.275 OA
ATOM     10  H   UNL A   1      31.483  28.076  21.636  1.00  0.00     0.163 HD
BRANCH   8  11
ATOM     11  C   UNL A   1      33.248  26.096  23.702  1.00  0.00     0.088 C 
ATOM     12  H   UNL A   1      34.314  26.098  23.798  1.00  0.00     0.045 H 
ATOM     13  H   UNL A   1      32.773  26.542  24.550  1.00  0.00     0.045 H 
BRANCH  11  14
ATOM     14  C   UNL A   1      32.783  24.691  23.619  1.00  0.00     0.154 A 
ATOM     15  C   UNL A   1      32.320  22.522  23.611  1.00  0.00     0.122 A 
ATOM     16  N   UNL A   1      31.231  23.143  23.136  1.00  0.00    -0.079 NA
ATOM     17  C   UNL A   1      33.348  23.465  23.909  1.00  0.00     0.053 A 
ATOM     18  O   UNL A   1      31.514  24.494  23.168  1.00  0.00    -0.360 OA
BRANCH  15  19
ATOM     19  C   UNL A   1      32.368  21.077  23.783  1.00  0.00     0.005 A 
ATOM     20  C   UNL A   1      32.536  18.302  24.131  1.00  0.00     0.118 A 
ATOM     21  C   UNL A   1      32.259  18.837  22.871  1.00  0.00    -0.019 A 
ATOM     22  C   UNL A   1      32.757  19.151  25.213  1.00  0.00    -0.019 A 
ATOM     23  C   UNL A   1      32.157  20.220  22.697  1.00  0.00    -0.049 A 
ATOM     24  H   UNL A   1      32.129  18.206  22.064  1.00  0.00     0.066 H 
ATOM     25  C   UNL A   1      32.670  20.535  25.039  1.00  0.00    -0.049 A 
ATOM     26  H   UNL A   1      32.984  18.760  26.140  1.00  0.00     0.066 H 
ATOM     27  H   UNL A   1      31.927  20.608  21.769  1.00  0.00     0.063 H 
ATOM     28  H   UNL A   1      32.830  21.163  25.842  1.00  0.00     0.063 H 
BRANCH  20  29
ATOM     29  O   UNL A   1      32.621  16.938  24.199  1.00  0.00    -0.497 OA
BRANCH  29  30
ATOM     30  C   UNL A   1      33.931  16.427  23.964  1.00  0.00     0.078 C 
ATOM     31  H   UNL A   1      34.003  15.434  24.353  1.00  0.00     0.067 H 
ATOM     32  H   UNL A   1      34.650  17.052  24.449  1.00  0.00     0.067 H 
ATOM     33  H   UNL A   1      34.124  16.412  22.911  1.00  0.00     0.067 H 
ENDBRANCH  29  30
ENDBRANCH  20  29
ENDBRANCH  15  19
BRANCH  17  34
ATOM     34  C   UNL A   1      34.718  23.251  24.334  1.00  0.00    -0.012 A 
ATOM     35  C   UNL A   1      35.038  23.342  25.694  1.00  0.00    -0.050 A 
ATOM     36  C   UNL A   1      35.728  22.958  23.414  1.00  0.00    -0.050 A 
ATOM     37  C   UNL A   1      36.348  23.127  26.124  1.00  0.00    -0.019 A 
ATOM     38  H   UNL A   1      34.302  23.569  26.382  1.00  0.00     0.063 H 
ATOM     39  C   UNL A   1      37.042  22.744  23.850  1.00  0.00    -0.019 A 
ATOM     40  H   UNL A   1      35.505  22.899  22.408  1.00  0.00     0.063 H 
ATOM     41  C   UNL A   1      37.356  22.826  25.208  1.00  0.00     0.118 A 
ATOM     42  H   UNL A   1      36.573  23.191  27.130  1.00  0.00     0.066 H 
ATOM     43  H   UNL A   1      37.782  22.525  23.164  1.00  0.00     0.066 H 
BRANCH  41  44
ATOM     44  O   UNL A   1      38.590  22.637  25.764  1.00  0.00    -0.497 OA
BRANCH  44  45
ATOM     45  C   UNL A   1      38.962  21.299  26.070  1.00  0.00     0.078 C 
ATOM     46  H   UNL A   1      39.798  21.306  26.738  1.00  0.00     0.067 H 
ATOM     47  H   UNL A   1      39.228  20.788  25.170  1.00  0.00     0.067 H 
ATOM     48  H   UNL A   1      38.139  20.798  26.535  1.00  0.00     0.067 H 
ENDBRANCH  44  45
ENDBRANCH  41  44
ENDBRANCH  17  34
ENDBRANCH  11  14
ENDBRANCH   8  11
ENDBRANCH   4   7
ENDBRANCH   1   4
BRANCH   1  49
ATOM     49  C   UNL A   1      31.381  30.164  25.016  1.00  0.00    -0.052 C 
ATOM     50  H   UNL A   1      32.411  30.380  24.820  1.00  0.00     0.027 H 
ATOM     51  H   UNL A   1      31.239  29.429  25.779  1.00  0.00     0.027 H 
BRANCH  49  52
ATOM     52  C   UNL A   1      30.714  31.447  25.527  1.00  0.00    -0.052 C 
ATOM     53  H   UNL A   1      29.662  31.267  25.599  1.00  0.00     0.027 H 
ATOM     54  H   UNL A   1      30.969  32.214  24.826  1.00  0.00     0.027 H 
BRANCH  52  55
ATOM     55  C   UNL A   1      31.205  31.937  26.892  1.00  0.00    -0.036 C 
ATOM     56  H   UNL A   1      31.259  31.095  27.549  1.00  0.00     0.028 H 
ATOM     57  H   UNL A   1      30.506  32.680  27.215  1.00  0.00     0.028 H 
BRANCH  55  58
ATOM     58  C   UNL A   1      32.574  32.613  26.873  1.00  0.00     0.018 C 
ATOM     59  H   UNL A   1      32.919  32.665  25.862  1.00  0.00     0.049 H 
ATOM     60  H   UNL A   1      33.237  32.033  27.480  1.00  0.00     0.049 H 
BRANCH  58  61
ATOM     61  N   UNL A   1      32.525  33.960  27.422  1.00  0.00    -0.352 N 
ATOM     62  C   UNL A   1      33.233  34.509  28.457  1.00  0.00     0.251 C 
ATOM     63  H   UNL A   1      31.887  34.567  26.983  1.00  0.00     0.163 HD
ATOM     64  O   UNL A   1      32.913  35.612  28.904  1.00  0.00    -0.269 OA
BRANCH  62  65
ATOM     65  C   UNL A   1      34.372  33.784  29.058  1.00  0.00     0.039 A 
ATOM     66  C   UNL A   1      35.671  34.204  28.756  1.00  0.00    -0.049 A 
ATOM     67  C   UNL A   1      34.169  32.670  29.879  1.00  0.00    -0.049 A 
ATOM     68  C   UNL A   1      36.765  33.538  29.314  1.00  0.00    -0.053 A 
ATOM     69  H   UNL A   1      35.822  35.004  28.123  1.00  0.00     0.063 H 
ATOM     70  C   UNL A   1      35.258  32.044  30.482  1.00  0.00    -0.053 A 
ATOM     71  H   UNL A   1      33.214  32.313  30.037  1.00  0.00     0.063 H 
ATOM     72  C   UNL A   1      36.566  32.467  30.201  1.00  0.00    -0.014 A 
ATOM     73  H   UNL A   1      37.723  33.835  29.074  1.00  0.00     0.063 H 
ATOM     74  H   UNL A   1      35.101  31.264  31.141  1.00  0.00     0.063 H 
BRANCH  72  75
ATOM     75  C   UNL A   1      37.717  31.774  30.831  1.00  0.00     0.031 A 
ATOM     76  C   UNL A   1      38.145  32.133  32.226  1.00  0.00     0.074 A 
ATOM     77  C   UNL A   1      38.408  30.858  30.127  1.00  0.00     0.049 A 
ATOM     78  N   UNL A   1      39.153  31.677  32.926  1.00  0.00    -0.248 NA
ATOM     79  C   UNL A   1      37.346  33.155  32.919  1.00  0.00    -0.034 C 
ATOM     80  C   UNL A   1      38.118  30.454  28.751  1.00  0.00    -0.036 A 
ATOM     81  N   UNL A   1      39.504  30.107  30.470  1.00  0.00    -0.354 N 
ATOM     82  C   UNL A   1      39.118  32.365  34.132  1.00  0.00     0.074 A 
ATOM     83  C   UNL A   1      38.017  33.302  34.052  1.00  0.00    -0.034 C 
ATOM     84  H   UNL A   1      36.488  33.634  32.605  1.00  0.00     0.065 H 
ATOM     85  C   UNL A   1      38.999  29.515  28.373  1.00  0.00    -0.036 A 
ATOM     86  H   UNL A   1      37.356  30.831  28.165  1.00  0.00     0.065 H 
ATOM     87  C   UNL A   1      39.936  29.273  29.468  1.00  0.00     0.049 A 
ATOM     88  H   UNL A   1      39.939  30.159  31.352  1.00  0.00     0.167 HD
ATOM     89  C   UNL A   1      39.918  32.215  35.214  1.00  0.00     0.037 A 
ATOM     90  H   UNL A   1      37.787  33.994  34.782  1.00  0.00     0.065 H 
ATOM     91  H   UNL A   1      39.015  29.041  27.457  1.00  0.00     0.065 H 
ATOM     92  C   UNL A   1      40.970  28.413  29.436  1.00  0.00     0.037 A 
ATOM     93  C   UNL A   1      40.994  31.263  35.302  1.00  0.00     0.049 A 
ATOM     94  C   UNL A   1      41.841  28.262  30.653  1.00  0.00     0.074 A 
ATOM     95  C   UNL A   1      41.824  30.994  36.377  1.00  0.00    -0.036 A 
ATOM     96  N   UNL A   1      41.389  30.422  34.272  1.00  0.00    -0.354 N 
ATOM     97  N   UNL A   1      41.759  28.873  31.809  1.00  0.00    -0.248 NA
ATOM     98  C   UNL A   1      42.945  27.295  30.561  1.00  0.00    -0.034 C 
ATOM     99  C   UNL A   1      42.744  30.015  35.986  1.00  0.00    -0.036 A 
ATOM    100  H   UNL A   1      41.772  31.438  37.308  1.00  0.00     0.065 H 
ATOM    101  C   UNL A   1      42.462  29.646  34.681  1.00  0.00     0.049 A 
ATOM    102  H   UNL A   1      40.970  30.384  33.382  1.00  0.00     0.167 HD
ATOM    103  C   UNL A   1      42.780  28.349  32.590  1.00  0.00     0.074 A 
ATOM    104  C   UNL A   1      43.461  27.360  31.781  1.00  0.00    -0.034 C 
ATOM    105  H   UNL A   1      43.240  26.719  29.759  1.00  0.00     0.065 H 
ATOM    106  H   UNL A   1      43.505  29.634  36.570  1.00  0.00     0.065 H 
ATOM    107  C   UNL A   1      43.123  28.661  33.864  1.00  0.00     0.037 A 
ATOM    108  H   UNL A   1      44.246  26.779  32.111  1.00  0.00     0.065 H 
BRANCH  89 109
ATOM    109  C   UNL A   1      39.654  33.096  36.398  1.00  0.00     0.064 A 
ATOM    110  C   UNL A   1      40.324  34.317  36.569  1.00  0.00     0.173 A 
ATOM    111  C   UNL A   1      38.695  32.735  37.357  1.00  0.00     0.173 A 
ATOM    112  F   UNL A   1      41.258  34.702  35.686  1.00  0.00    -0.203 F 
ATOM    113  C   UNL A   1      40.063  35.131  37.667  1.00  0.00     0.198 A 
ATOM    114  C   UNL A   1      38.416  33.565  38.440  1.00  0.00     0.198 A 
ATOM    115  F   UNL A   1      38.020  31.581  37.239  1.00  0.00    -0.203 F 
ATOM    116  F   UNL A   1      40.748  36.272  37.832  1.00  0.00    -0.200 F 
ATOM    117  C   UNL A   1      39.105  34.758  38.599  1.00  0.00     0.200 A 
ATOM    118  F   UNL A   1      37.482  33.209  39.333  1.00  0.00    -0.200 F 
ATOM    119  F   UNL A   1      38.851  35.546  39.653  1.00  0.00    -0.200 F 
ENDBRANCH  89 109
BRANCH  92 120
ATOM    120  C   UNL A   1      41.222  27.604  28.216  1.00  0.00     0.064 A 
ATOM    121  C   UNL A   1      40.720  26.299  28.105  1.00  0.00     0.173 A 
ATOM    122  C   UNL A   1      41.966  28.112  27.142  1.00  0.00     0.173 A 
ATOM    123  F   UNL A   1      40.021  25.763  29.116  1.00  0.00    -0.203 F 
ATOM    124  C   UNL A   1      40.969  25.528  26.972  1.00  0.00     0.198 A 
ATOM    125  C   UNL A   1      42.192  27.348  26.000  1.00  0.00     0.198 A 
ATOM    126  F   UNL A   1      42.464  29.355  27.199  1.00  0.00    -0.203 F 
ATOM    127  F   UNL A   1      40.511  24.270  26.909  1.00  0.00    -0.200 F 
ATOM    128  C   UNL A   1      41.699  26.054  25.918  1.00  0.00     0.200 A 
ATOM    129  F   UNL A   1      42.890  27.864  24.978  1.00  0.00    -0.200 F 
ATOM    130  F   UNL A   1      41.935  25.313  24.827  1.00  0.00    -0.200 F 
ENDBRANCH  92 120
BRANCH 107 131
ATOM    131  C   UNL A   1      44.265  27.902  34.472  1.00  0.00     0.064 A 
ATOM    132  C   UNL A   1      45.582  28.380  34.404  1.00  0.00     0.173 A 
ATOM    133  C   UNL A   1      44.034  26.702  35.162  1.00  0.00     0.173 A 
ATOM    134  F   UNL A   1      45.855  29.514  33.740  1.00  0.00    -0.203 F 
ATOM    135  C   UNL A   1      46.630  27.673  34.986  1.00  0.00     0.198 A 
ATOM    136  C   UNL A   1      45.080  26.012  35.766  1.00  0.00     0.198 A 
ATOM    137  F   UNL A   1      42.791  26.207  35.259  1.00  0.00    -0.203 F 
ATOM    138  F   UNL A   1      47.886  28.125  34.872  1.00  0.00    -0.200 F 
ATOM    139  C   UNL A   1      46.377  26.494  35.673  1.00  0.00     0.200 A 
ATOM    140  F   UNL A   1      44.834  24.879  36.437  1.00  0.00    -0.200 F 
ATOM    141  F   UNL A   1      47.387  25.817  36.237  1.00  0.00    -0.200 F 
ENDBRANCH 107 131
ENDBRANCH  72  75
ENDBRANCH  62  65
ENDBRANCH  58  61
ENDBRANCH  55  58
ENDBRANCH  52  55
ENDBRANCH  49  52
ENDBRANCH   1  49
TORSDOF 20
ENDMDL
MODEL 9
REMARK VINA RESULT:     -11.4      3.974      9.774
REMARK SMILES COc1ccc(-c2noc(CC(=O)NCCCCCCNC(=O)c3ccc(-c4c5nc(c(-c6c(F)c(F)c(F)c(F)c6F)c6ccc([nH]6)c(-c6c(F)c(F)c(F)c(F)c6F)c6nc(c(-c7c(F)c(F)c(F)c(F)c7F)c7ccc4[nH]7)C=C6)C=C5)cc3)c2-c2ccc(OC)cc2)cc1
REMARK SMILES IDX 16 1 15 4 14 7 12 8 13 9 11 11 10 14 7 15 8 16 87 17 9 18
REMARK SMILES IDX 6 19 3 20 4 21 97 22 5 23 96 25 2 29 1 30 88 34 89 35 95 36
REMARK SMILES IDX 90 37 94 39 91 41 92 44 93 45 17 49 18 52 19 55 20 58 21 61
REMARK SMILES IDX 22 62 23 64 24 65 25 66 86 67 26 68 85 70 27 72 28 75 29 76
REMARK SMILES IDX 79 77 30 78 84 79 78 80 80 81 31 82 83 83 77 85 76 87 32 89
REMARK SMILES IDX 64 92 44 93 63 94 45 95 48 96 62 97 81 98 46 99 47 101
REMARK SMILES IDX 61 103 82 104 49 107 33 109 34 110 42 111 35 112 36 113
REMARK SMILES IDX 40 114 43 115 37 116 38 117 41 118 39 119 65 120 66 121
REMARK SMILES IDX 74 122 67 123 68 124 72 125 75 126 69 127 70 128 73 129
REMARK SMILES IDX 71 130 50 131 51 132 59 133 52 134 53 135 57 136 60 137
REMARK SMILES IDX 54 138 55 139 58 140 56 141
REMARK H PARENT 16 2 16 3 15 5 15 6 14 10 11 12 11 13 4 24 97 26 5 27 96 28
REMARK H PARENT 1 31 1 32 1 33 89 38 95 40 90 42 94 43 93 46 93 47 93 48 17 50
REMARK H PARENT 17 51 18 53 18 54 19 56 19 57 20 59 20 60 21 63 25 69 86 71
REMARK H PARENT 26 73 85 74 84 84 78 86 80 88 83 90 77 91 45 100 48 102 81 105
REMARK H PARENT 46 106 82 108
REMARK Flexibility Score: inf
ROOT
ATOM      1  C   UNL A   1      32.744  20.181  23.947  1.00  0.00    -0.036 C 
ATOM      2  H   UNL A   1      33.572  19.836  23.364  1.00  0.00     0.028 H 
ATOM      3  H   UNL A   1      31.944  19.470  23.977  1.00  0.00     0.028 H 
ENDROOT
BRANCH   1   4
ATOM      4  C   UNL A   1      32.192  21.452  23.302  1.00  0.00     0.017 C 
ATOM      5  H   UNL A   1      31.778  21.208  22.345  1.00  0.00     0.049 H 
ATOM      6  H   UNL A   1      31.437  21.860  23.941  1.00  0.00     0.049 H 
BRANCH   4   7
ATOM      7  N   UNL A   1      33.237  22.440  23.129  1.00  0.00    -0.356 N 
ATOM      8  C   UNL A   1      33.330  23.693  23.663  1.00  0.00     0.227 C 
ATOM      9  O   UNL A   1      34.261  24.413  23.299  1.00  0.00    -0.275 OA
ATOM     10  H   UNL A   1      33.982  22.170  22.545  1.00  0.00     0.163 HD
BRANCH   8  11
ATOM     11  C   UNL A   1      32.376  24.130  24.755  1.00  0.00     0.088 C 
ATOM     12  H   UNL A   1      31.865  23.268  25.129  1.00  0.00     0.045 H 
ATOM     13  H   UNL A   1      32.956  24.610  25.515  1.00  0.00     0.045 H 
BRANCH  11  14
ATOM     14  C   UNL A   1      31.367  25.109  24.281  1.00  0.00     0.154 A 
ATOM     15  C   UNL A   1      30.011  26.761  23.691  1.00  0.00     0.122 A 
ATOM     16  N   UNL A   1      29.517  25.648  23.130  1.00  0.00    -0.079 NA
ATOM     17  C   UNL A   1      31.177  26.465  24.457  1.00  0.00     0.053 A 
ATOM     18  O   UNL A   1      30.379  24.627  23.479  1.00  0.00    -0.360 OA
BRANCH  15  19
ATOM     19  C   UNL A   1      29.392  28.064  23.489  1.00  0.00     0.005 A 
ATOM     20  C   UNL A   1      28.219  30.589  23.174  1.00  0.00     0.118 A 
ATOM     21  C   UNL A   1      27.432  29.437  23.125  1.00  0.00    -0.019 A 
ATOM     22  C   UNL A   1      29.589  30.485  23.407  1.00  0.00    -0.019 A 
ATOM     23  C   UNL A   1      28.015  28.175  23.265  1.00  0.00    -0.049 A 
ATOM     24  H   UNL A   1      26.412  29.519  22.986  1.00  0.00     0.066 H 
ATOM     25  C   UNL A   1      30.174  29.225  23.561  1.00  0.00    -0.049 A 
ATOM     26  H   UNL A   1      30.170  31.335  23.466  1.00  0.00     0.066 H 
ATOM     27  H   UNL A   1      27.431  27.326  23.203  1.00  0.00     0.063 H 
ATOM     28  H   UNL A   1      31.189  29.148  23.730  1.00  0.00     0.063 H 
BRANCH  20  29
ATOM     29  O   UNL A   1      27.556  31.777  23.033  1.00  0.00    -0.497 OA
BRANCH  29  30
ATOM     30  C   UNL A   1      28.403  32.877  22.706  1.00  0.00     0.078 C 
ATOM     31  H   UNL A   1      28.188  33.698  23.357  1.00  0.00     0.067 H 
ATOM     32  H   UNL A   1      28.230  33.172  21.693  1.00  0.00     0.067 H 
ATOM     33  H   UNL A   1      29.426  32.586  22.825  1.00  0.00     0.067 H 
ENDBRANCH  29  30
ENDBRANCH  20  29
ENDBRANCH  15  19
BRANCH  17  34
ATOM     34  C   UNL A   1      31.973  27.321  25.316  1.00  0.00    -0.012 A 
ATOM     35  C   UNL A   1      33.236  27.744  24.885  1.00  0.00    -0.050 A 
ATOM     36  C   UNL A   1      31.508  27.729  26.568  1.00  0.00    -0.050 A 
ATOM     37  C   UNL A   1      34.011  28.578  25.691  1.00  0.00    -0.019 A 
ATOM     38  H   UNL A   1      33.595  27.439  23.966  1.00  0.00     0.063 H 
ATOM     39  C   UNL A   1      32.290  28.566  27.376  1.00  0.00    -0.019 A 
ATOM     40  H   UNL A   1      30.583  27.415  26.901  1.00  0.00     0.063 H 
ATOM     41  C   UNL A   1      33.545  28.994  26.939  1.00  0.00     0.118 A 
ATOM     42  H   UNL A   1      34.939  28.890  25.362  1.00  0.00     0.066 H 
ATOM     43  H   UNL A   1      31.937  28.866  28.299  1.00  0.00     0.066 H 
BRANCH  41  44
ATOM     44  O   UNL A   1      34.403  29.809  27.622  1.00  0.00    -0.497 OA
BRANCH  44  45
ATOM     45  C   UNL A   1      34.106  31.200  27.628  1.00  0.00     0.078 C 
ATOM     46  H   UNL A   1      34.846  31.724  27.060  1.00  0.00     0.067 H 
ATOM     47  H   UNL A   1      34.105  31.561  28.634  1.00  0.00     0.067 H 
ATOM     48  H   UNL A   1      33.143  31.360  27.190  1.00  0.00     0.067 H 
ENDBRANCH  44  45
ENDBRANCH  41  44
ENDBRANCH  17  34
ENDBRANCH  11  14
ENDBRANCH   8  11
ENDBRANCH   4   7
ENDBRANCH   1   4
BRANCH   1  49
ATOM     49  C   UNL A   1      33.220  20.384  25.392  1.00  0.00    -0.052 C 
ATOM     50  H   UNL A   1      32.931  19.525  25.960  1.00  0.00     0.027 H 
ATOM     51  H   UNL A   1      32.767  21.291  25.732  1.00  0.00     0.027 H 
BRANCH  49  52
ATOM     52  C   UNL A   1      34.733  20.574  25.555  1.00  0.00    -0.052 C 
ATOM     53  H   UNL A   1      35.184  20.492  24.588  1.00  0.00     0.027 H 
ATOM     54  H   UNL A   1      35.056  19.820  26.242  1.00  0.00     0.027 H 
BRANCH  52  55
ATOM     55  C   UNL A   1      35.160  21.913  26.163  1.00  0.00    -0.036 C 
ATOM     56  H   UNL A   1      35.148  21.815  27.228  1.00  0.00     0.028 H 
ATOM     57  H   UNL A   1      34.468  22.644  25.799  1.00  0.00     0.028 H 
BRANCH  55  58
ATOM     58  C   UNL A   1      36.549  22.391  25.745  1.00  0.00     0.018 C 
ATOM     59  H   UNL A   1      36.826  23.223  26.358  1.00  0.00     0.049 H 
ATOM     60  H   UNL A   1      36.507  22.666  24.712  1.00  0.00     0.049 H 
BRANCH  58  61
ATOM     61  N   UNL A   1      37.551  21.346  25.891  1.00  0.00    -0.352 N 
ATOM     62  C   UNL A   1      38.895  21.451  26.127  1.00  0.00     0.251 C 
ATOM     63  H   UNL A   1      37.211  20.426  25.808  1.00  0.00     0.163 HD
ATOM     64  O   UNL A   1      39.617  20.457  26.025  1.00  0.00    -0.269 OA
BRANCH  62  65
ATOM     65  C   UNL A   1      39.498  22.751  26.490  1.00  0.00     0.039 A 
ATOM     66  C   UNL A   1      40.408  22.798  27.550  1.00  0.00    -0.049 A 
ATOM     67  C   UNL A   1      39.138  23.927  25.823  1.00  0.00    -0.049 A 
ATOM     68  C   UNL A   1      40.994  24.014  27.911  1.00  0.00    -0.053 A 
ATOM     69  H   UNL A   1      40.647  21.936  28.065  1.00  0.00     0.063 H 
ATOM     70  C   UNL A   1      39.768  25.128  26.144  1.00  0.00    -0.053 A 
ATOM     71  H   UNL A   1      38.408  23.904  25.094  1.00  0.00     0.063 H 
ATOM     72  C   UNL A   1      40.696  25.184  27.195  1.00  0.00    -0.014 A 
ATOM     73  H   UNL A   1      41.649  24.051  28.707  1.00  0.00     0.063 H 
ATOM     74  H   UNL A   1      39.550  25.981  25.605  1.00  0.00     0.063 H 
BRANCH  72  75
ATOM     75  C   UNL A   1      41.339  26.476  27.543  1.00  0.00     0.031 A 
ATOM     76  C   UNL A   1      42.763  26.743  27.143  1.00  0.00     0.074 A 
ATOM     77  C   UNL A   1      40.657  27.386  28.262  1.00  0.00     0.049 A 
ATOM     78  N   UNL A   1      43.512  27.787  27.398  1.00  0.00    -0.248 NA
ATOM     79  C   UNL A   1      43.442  25.690  26.373  1.00  0.00    -0.034 C 
ATOM     80  C   UNL A   1      39.285  27.226  28.745  1.00  0.00    -0.036 A 
ATOM     81  N   UNL A   1      41.028  28.625  28.720  1.00  0.00    -0.354 N 
ATOM     82  C   UNL A   1      44.750  27.509  26.834  1.00  0.00     0.074 A 
ATOM     83  C   UNL A   1      44.667  26.181  26.263  1.00  0.00    -0.034 C 
ATOM     84  H   UNL A   1      43.063  24.800  26.013  1.00  0.00     0.065 H 
ATOM     85  C   UNL A   1      38.922  28.332  29.414  1.00  0.00    -0.036 A 
ATOM     86  H   UNL A   1      38.691  26.395  28.594  1.00  0.00     0.065 H 
ATOM     87  C   UNL A   1      40.046  29.265  29.435  1.00  0.00     0.049 A 
ATOM     88  H   UNL A   1      41.915  29.018  28.552  1.00  0.00     0.167 HD
ATOM     89  C   UNL A   1      45.849  28.298  26.779  1.00  0.00     0.037 A 
ATOM     90  H   UNL A   1      45.460  25.683  25.828  1.00  0.00     0.065 H 
ATOM     91  H   UNL A   1      38.000  28.496  29.846  1.00  0.00     0.065 H 
ATOM     92  C   UNL A   1      40.052  30.468  30.039  1.00  0.00     0.037 A 
ATOM     93  C   UNL A   1      45.921  29.629  27.322  1.00  0.00     0.049 A 
ATOM     94  C   UNL A   1      41.284  31.326  29.960  1.00  0.00     0.074 A 
ATOM     95  C   UNL A   1      46.971  30.530  27.265  1.00  0.00    -0.036 A 
ATOM     96  N   UNL A   1      44.899  30.251  28.023  1.00  0.00    -0.354 N 
ATOM     97  N   UNL A   1      42.428  31.079  29.370  1.00  0.00    -0.248 NA
ATOM     98  C   UNL A   1      41.223  32.635  30.626  1.00  0.00    -0.034 C 
ATOM     99  C   UNL A   1      46.596  31.684  27.963  1.00  0.00    -0.036 A 
ATOM    100  H   UNL A   1      47.874  30.378  26.790  1.00  0.00     0.065 H 
ATOM    101  C   UNL A   1      45.299  31.517  28.420  1.00  0.00     0.049 A 
ATOM    102  H   UNL A   1      44.019  29.851  28.212  1.00  0.00     0.167 HD
ATOM    103  C   UNL A   1      43.212  32.206  29.570  1.00  0.00     0.074 A 
ATOM    104  C   UNL A   1      42.409  33.146  30.325  1.00  0.00    -0.034 C 
ATOM    105  H   UNL A   1      40.459  33.048  31.182  1.00  0.00     0.065 H 
ATOM    106  H   UNL A   1      47.186  32.517  28.113  1.00  0.00     0.065 H 
ATOM    107  C   UNL A   1      44.484  32.442  29.164  1.00  0.00     0.037 A 
ATOM    108  H   UNL A   1      42.720  34.092  30.594  1.00  0.00     0.065 H 
BRANCH  89 109
ATOM    109  C   UNL A   1      47.066  27.745  26.098  1.00  0.00     0.064 A 
ATOM    110  C   UNL A   1      47.234  27.835  24.708  1.00  0.00     0.173 A 
ATOM    111  C   UNL A   1      48.094  27.149  26.846  1.00  0.00     0.173 A 
ATOM    112  F   UNL A   1      46.275  28.384  23.948  1.00  0.00    -0.203 F 
ATOM    113  C   UNL A   1      48.373  27.326  24.089  1.00  0.00     0.198 A 
ATOM    114  C   UNL A   1      49.243  26.667  26.227  1.00  0.00     0.198 A 
ATOM    115  F   UNL A   1      47.987  27.044  28.179  1.00  0.00    -0.203 F 
ATOM    116  F   UNL A   1      48.490  27.384  22.755  1.00  0.00    -0.200 F 
ATOM    117  C   UNL A   1      49.379  26.749  24.849  1.00  0.00     0.200 A 
ATOM    118  F   UNL A   1      50.221  26.121  26.963  1.00  0.00    -0.200 F 
ATOM    119  F   UNL A   1      50.478  26.266  24.252  1.00  0.00    -0.200 F 
ENDBRANCH  89 109
BRANCH  92 120
ATOM    120  C   UNL A   1      38.838  30.945  30.749  1.00  0.00     0.064 A 
ATOM    121  C   UNL A   1      38.683  30.734  32.126  1.00  0.00     0.173 A 
ATOM    122  C   UNL A   1      37.811  31.617  30.070  1.00  0.00     0.173 A 
ATOM    123  F   UNL A   1      39.629  30.077  32.813  1.00  0.00    -0.203 F 
ATOM    124  C   UNL A   1      37.538  31.163  32.794  1.00  0.00     0.198 A 
ATOM    125  C   UNL A   1      36.678  32.066  30.745  1.00  0.00     0.198 A 
ATOM    126  F   UNL A   1      37.914  31.846  28.754  1.00  0.00    -0.203 F 
ATOM    127  F   UNL A   1      37.397  30.912  34.104  1.00  0.00    -0.200 F 
ATOM    128  C   UNL A   1      36.540  31.833  32.106  1.00  0.00     0.200 A 
ATOM    129  F   UNL A   1      35.720  32.724  30.078  1.00  0.00    -0.200 F 
ATOM    130  F   UNL A   1      35.440  32.247  32.749  1.00  0.00    -0.200 F 
ENDBRANCH  92 120
BRANCH 107 131
ATOM    131  C   UNL A   1      45.074  33.778  29.501  1.00  0.00     0.064 A 
ATOM    132  C   UNL A   1      45.798  33.983  30.685  1.00  0.00     0.173 A 
ATOM    133  C   UNL A   1      44.947  34.857  28.612  1.00  0.00     0.173 A 
ATOM    134  F   UNL A   1      45.933  32.987  31.575  1.00  0.00    -0.203 F 
ATOM    135  C   UNL A   1      46.354  35.225  30.977  1.00  0.00     0.198 A 
ATOM    136  C   UNL A   1      45.526  36.089  28.896  1.00  0.00     0.198 A 
ATOM    137  F   UNL A   1      44.268  34.710  27.464  1.00  0.00    -0.203 F 
ATOM    138  F   UNL A   1      47.005  35.410  32.134  1.00  0.00    -0.200 F 
ATOM    139  C   UNL A   1      46.225  36.274  30.079  1.00  0.00     0.200 A 
ATOM    140  F   UNL A   1      45.409  37.099  28.022  1.00  0.00    -0.200 F 
ATOM    141  F   UNL A   1      46.765  37.468  30.360  1.00  0.00    -0.200 F 
ENDBRANCH 107 131
ENDBRANCH  72  75
ENDBRANCH  62  65
ENDBRANCH  58  61
ENDBRANCH  55  58
ENDBRANCH  52  55
ENDBRANCH  49  52
ENDBRANCH   1  49
TORSDOF 20
ENDMDL
MODEL 10
REMARK VINA RESULT:     -11.2      1.990      7.553
REMARK SMILES COc1ccc(-c2noc(CC(=O)NCCCCCCNC(=O)c3ccc(-c4c5nc(c(-c6c(F)c(F)c(F)c(F)c6F)c6ccc([nH]6)c(-c6c(F)c(F)c(F)c(F)c6F)c6nc(c(-c7c(F)c(F)c(F)c(F)c7F)c7ccc4[nH]7)C=C6)C=C5)cc3)c2-c2ccc(OC)cc2)cc1
REMARK SMILES IDX 16 1 15 4 14 7 12 8 13 9 11 11 10 14 7 15 8 16 87 17 9 18
REMARK SMILES IDX 6 19 3 20 4 21 97 22 5 23 96 25 2 29 1 30 88 34 89 35 95 36
REMARK SMILES IDX 90 37 94 39 91 41 92 44 93 45 17 49 18 52 19 55 20 58 21 61
REMARK SMILES IDX 22 62 23 64 24 65 25 66 86 67 26 68 85 70 27 72 28 75 29 76
REMARK SMILES IDX 79 77 30 78 84 79 78 80 80 81 31 82 83 83 77 85 76 87 32 89
REMARK SMILES IDX 64 92 44 93 63 94 45 95 48 96 62 97 81 98 46 99 47 101
REMARK SMILES IDX 61 103 82 104 49 107 33 109 34 110 42 111 35 112 36 113
REMARK SMILES IDX 40 114 43 115 37 116 38 117 41 118 39 119 65 120 66 121
REMARK SMILES IDX 74 122 67 123 68 124 72 125 75 126 69 127 70 128 73 129
REMARK SMILES IDX 71 130 50 131 51 132 59 133 52 134 53 135 57 136 60 137
REMARK SMILES IDX 54 138 55 139 58 140 56 141
REMARK H PARENT 16 2 16 3 15 5 15 6 14 10 11 12 11 13 4 24 97 26 5 27 96 28
REMARK H PARENT 1 31 1 32 1 33 89 38 95 40 90 42 94 43 93 46 93 47 93 48 17 50
REMARK H PARENT 17 51 18 53 18 54 19 56 19 57 20 59 20 60 21 63 25 69 86 71
REMARK H PARENT 26 73 85 74 84 84 78 86 80 88 83 90 77 91 45 100 48 102 81 105
REMARK H PARENT 46 106 82 108
REMARK Flexibility Score: inf
ROOT
ATOM      1  C   UNL A   1      30.079  29.454  23.879  1.00  0.00    -0.036 C 
ATOM      2  H   UNL A   1      29.485  28.758  24.433  1.00  0.00     0.028 H 
ATOM      3  H   UNL A   1      29.507  30.289  23.531  1.00  0.00     0.028 H 
ENDROOT
BRANCH   1   4
ATOM      4  C   UNL A   1      30.634  28.743  22.645  1.00  0.00     0.017 C 
ATOM      5  H   UNL A   1      30.301  27.726  22.647  1.00  0.00     0.049 H 
ATOM      6  H   UNL A   1      30.283  29.249  21.771  1.00  0.00     0.049 H 
BRANCH   4   7
ATOM      7  N   UNL A   1      32.083  28.767  22.643  1.00  0.00    -0.356 N 
ATOM      8  C   UNL A   1      32.955  27.888  22.067  1.00  0.00     0.227 C 
ATOM      9  O   UNL A   1      34.159  28.039  22.278  1.00  0.00    -0.275 OA
ATOM     10  H   UNL A   1      32.495  29.519  23.124  1.00  0.00     0.163 HD
BRANCH   8  11
ATOM     11  C   UNL A   1      32.450  26.829  21.107  1.00  0.00     0.088 C 
ATOM     12  H   UNL A   1      31.391  26.940  21.003  1.00  0.00     0.045 H 
ATOM     13  H   UNL A   1      32.958  26.971  20.177  1.00  0.00     0.045 H 
BRANCH  11  14
ATOM     14  C   UNL A   1      32.739  25.449  21.567  1.00  0.00     0.154 A 
ATOM     15  C   UNL A   1      33.053  23.455  22.485  1.00  0.00     0.122 A 
ATOM     16  N   UNL A   1      33.499  23.365  21.224  1.00  0.00    -0.079 NA
ATOM     17  C   UNL A   1      32.581  24.772  22.760  1.00  0.00     0.053 A 
ATOM     18  O   UNL A   1      33.278  24.601  20.649  1.00  0.00    -0.360 OA
BRANCH  15  19
ATOM     19  C   UNL A   1      33.067  22.313  23.389  1.00  0.00     0.005 A 
ATOM     20  C   UNL A   1      33.170  20.101  25.105  1.00  0.00     0.118 A 
ATOM     21  C   UNL A   1      32.291  20.109  24.020  1.00  0.00    -0.019 A 
ATOM     22  C   UNL A   1      34.019  21.185  25.320  1.00  0.00    -0.019 A 
ATOM     23  C   UNL A   1      32.225  21.218  23.172  1.00  0.00    -0.049 A 
ATOM     24  H   UNL A   1      31.687  19.290  23.844  1.00  0.00     0.066 H 
ATOM     25  C   UNL A   1      33.965  22.289  24.465  1.00  0.00    -0.049 A 
ATOM     26  H   UNL A   1      34.685  21.173  26.107  1.00  0.00     0.066 H 
ATOM     27  H   UNL A   1      31.555  21.228  22.387  1.00  0.00     0.063 H 
ATOM     28  H   UNL A   1      34.592  23.093  24.627  1.00  0.00     0.063 H 
BRANCH  20  29
ATOM     29  O   UNL A   1      33.166  18.970  25.874  1.00  0.00    -0.497 OA
BRANCH  29  30
ATOM     30  C   UNL A   1      32.527  17.854  25.259  1.00  0.00     0.078 C 
ATOM     31  H   UNL A   1      31.468  17.930  25.394  1.00  0.00     0.067 H 
ATOM     32  H   UNL A   1      32.879  16.949  25.707  1.00  0.00     0.067 H 
ATOM     33  H   UNL A   1      32.752  17.847  24.212  1.00  0.00     0.067 H 
ENDBRANCH  29  30
ENDBRANCH  20  29
ENDBRANCH  15  19
BRANCH  17  34
ATOM     34  C   UNL A   1      32.115  25.359  24.002  1.00  0.00    -0.012 A 
ATOM     35  C   UNL A   1      33.047  25.875  24.911  1.00  0.00    -0.050 A 
ATOM     36  C   UNL A   1      30.755  25.416  24.314  1.00  0.00    -0.050 A 
ATOM     37  C   UNL A   1      32.618  26.455  26.105  1.00  0.00    -0.019 A 
ATOM     38  H   UNL A   1      34.056  25.828  24.696  1.00  0.00     0.063 H 
ATOM     39  C   UNL A   1      30.328  25.998  25.515  1.00  0.00    -0.019 A 
ATOM     40  H   UNL A   1      30.060  25.029  23.657  1.00  0.00     0.063 H 
ATOM     41  C   UNL A   1      31.258  26.521  26.414  1.00  0.00     0.118 A 
ATOM     42  H   UNL A   1      33.312  26.839  26.766  1.00  0.00     0.066 H 
ATOM     43  H   UNL A   1      29.320  26.040  25.737  1.00  0.00     0.066 H 
BRANCH  41  44
ATOM     44  O   UNL A   1      30.979  27.116  27.612  1.00  0.00    -0.497 OA
BRANCH  44  45
ATOM     45  C   UNL A   1      31.804  28.207  28.000  1.00  0.00     0.078 C 
ATOM     46  H   UNL A   1      32.491  28.431  27.210  1.00  0.00     0.067 H 
ATOM     47  H   UNL A   1      32.347  27.948  28.883  1.00  0.00     0.067 H 
ATOM     48  H   UNL A   1      31.194  29.065  28.193  1.00  0.00     0.067 H 
ENDBRANCH  44  45
ENDBRANCH  41  44
ENDBRANCH  17  34
ENDBRANCH  11  14
ENDBRANCH   8  11
ENDBRANCH   4   7
ENDBRANCH   1   4
BRANCH   1  49
ATOM     49  C   UNL A   1      31.167  30.009  24.808  1.00  0.00    -0.052 C 
ATOM     50  H   UNL A   1      32.083  30.055  24.256  1.00  0.00     0.027 H 
ATOM     51  H   UNL A   1      31.209  29.349  25.648  1.00  0.00     0.027 H 
BRANCH  49  52
ATOM     52  C   UNL A   1      30.883  31.405  25.376  1.00  0.00    -0.052 C 
ATOM     53  H   UNL A   1      29.823  31.551  25.382  1.00  0.00     0.027 H 
ATOM     54  H   UNL A   1      31.406  32.095  24.745  1.00  0.00     0.027 H 
BRANCH  52  55
ATOM     55  C   UNL A   1      31.403  31.650  26.796  1.00  0.00    -0.036 C 
ATOM     56  H   UNL A   1      31.573  30.699  27.256  1.00  0.00     0.028 H 
ATOM     57  H   UNL A   1      30.657  32.232  27.294  1.00  0.00     0.028 H 
BRANCH  55  58
ATOM     58  C   UNL A   1      32.699  32.453  26.872  1.00  0.00     0.018 C 
ATOM     59  H   UNL A   1      33.137  32.494  25.897  1.00  0.00     0.049 H 
ATOM     60  H   UNL A   1      33.349  31.966  27.569  1.00  0.00     0.049 H 
BRANCH  58  61
ATOM     61  N   UNL A   1      32.472  33.811  27.343  1.00  0.00    -0.352 N 
ATOM     62  C   UNL A   1      33.053  34.484  28.384  1.00  0.00     0.251 C 
ATOM     63  H   UNL A   1      31.801  34.322  26.837  1.00  0.00     0.163 HD
ATOM     64  O   UNL A   1      32.590  35.565  28.752  1.00  0.00    -0.269 OA
BRANCH  62  65
ATOM     65  C   UNL A   1      34.225  33.919  29.086  1.00  0.00     0.039 A 
ATOM     66  C   UNL A   1      34.011  33.022  30.136  1.00  0.00    -0.049 A 
ATOM     67  C   UNL A   1      35.526  34.303  28.748  1.00  0.00    -0.049 A 
ATOM     68  C   UNL A   1      35.102  32.472  30.814  1.00  0.00    -0.053 A 
ATOM     69  H   UNL A   1      33.050  32.764  30.409  1.00  0.00     0.063 H 
ATOM     70  C   UNL A   1      36.615  33.709  29.384  1.00  0.00    -0.053 A 
ATOM     71  H   UNL A   1      35.680  35.025  28.026  1.00  0.00     0.063 H 
ATOM     72  C   UNL A   1      36.413  32.794  30.428  1.00  0.00    -0.014 A 
ATOM     73  H   UNL A   1      34.943  31.825  31.603  1.00  0.00     0.063 H 
ATOM     74  H   UNL A   1      37.574  33.944  29.085  1.00  0.00     0.063 H 
BRANCH  72  75
ATOM     75  C   UNL A   1      37.581  32.188  31.114  1.00  0.00     0.031 A 
ATOM     76  C   UNL A   1      38.358  31.084  30.453  1.00  0.00     0.074 A 
ATOM     77  C   UNL A   1      37.911  32.598  32.353  1.00  0.00     0.049 A 
ATOM     78  N   UNL A   1      39.374  30.398  30.912  1.00  0.00    -0.248 NA
ATOM     79  C   UNL A   1      37.923  30.685  29.106  1.00  0.00    -0.034 C 
ATOM     80  C   UNL A   1      37.208  33.630  33.116  1.00  0.00    -0.036 A 
ATOM     81  N   UNL A   1      38.916  32.189  33.193  1.00  0.00    -0.354 N 
ATOM     82  C   UNL A   1      39.689  29.479  29.920  1.00  0.00     0.074 A 
ATOM     83  C   UNL A   1      38.728  29.663  28.852  1.00  0.00    -0.034 C 
ATOM     84  H   UNL A   1      37.183  31.092  28.514  1.00  0.00     0.065 H 
ATOM     85  C   UNL A   1      37.815  33.789  34.303  1.00  0.00    -0.036 A 
ATOM     86  H   UNL A   1      36.380  34.154  32.792  1.00  0.00     0.065 H 
ATOM     87  C   UNL A   1      38.928  32.848  34.398  1.00  0.00     0.049 A 
ATOM     88  H   UNL A   1      39.566  31.490  32.954  1.00  0.00     0.167 HD
ATOM     89  C   UNL A   1      40.698  28.578  29.892  1.00  0.00     0.037 A 
ATOM     90  H   UNL A   1      38.677  29.076  28.006  1.00  0.00     0.065 H 
ATOM     91  H   UNL A   1      37.539  34.465  35.032  1.00  0.00     0.065 H 
ATOM     92  C   UNL A   1      39.745  32.707  35.458  1.00  0.00     0.037 A 
ATOM     93  C   UNL A   1      41.670  28.414  30.942  1.00  0.00     0.049 A 
ATOM     94  C   UNL A   1      40.862  31.702  35.400  1.00  0.00     0.074 A 
ATOM     95  C   UNL A   1      42.765  27.569  30.981  1.00  0.00    -0.036 A 
ATOM     96  N   UNL A   1      41.661  29.113  32.140  1.00  0.00    -0.354 N 
ATOM     97  N   UNL A   1      41.187  30.882  34.431  1.00  0.00    -0.248 NA
ATOM     98  C   UNL A   1      41.729  31.607  36.583  1.00  0.00    -0.034 C 
ATOM     99  C   UNL A   1      43.400  27.731  32.218  1.00  0.00    -0.036 A 
ATOM    100  H   UNL A   1      43.064  26.930  30.228  1.00  0.00     0.065 H 
ATOM    101  C   UNL A   1      42.723  28.706  32.932  1.00  0.00     0.049 A 
ATOM    102  H   UNL A   1      40.998  29.797  32.390  1.00  0.00     0.167 HD
ATOM    103  C   UNL A   1      42.308  30.194  34.873  1.00  0.00     0.074 A 
ATOM    104  C   UNL A   1      42.616  30.701  36.194  1.00  0.00    -0.034 C 
ATOM    105  H   UNL A   1      41.664  32.111  37.480  1.00  0.00     0.065 H 
ATOM    106  H   UNL A   1      44.230  27.212  32.543  1.00  0.00     0.065 H 
ATOM    107  C   UNL A   1      43.018  29.228  34.242  1.00  0.00     0.037 A 
ATOM    108  H   UNL A   1      43.424  30.398  36.760  1.00  0.00     0.065 H 
BRANCH  89 109
ATOM    109  C   UNL A   1      40.811  27.700  28.681  1.00  0.00     0.064 A 
ATOM    110  C   UNL A   1      41.656  28.031  27.610  1.00  0.00     0.173 A 
ATOM    111  C   UNL A   1      40.095  26.496  28.602  1.00  0.00     0.173 A 
ATOM    112  F   UNL A   1      42.353  29.177  27.632  1.00  0.00    -0.203 F 
ATOM    113  C   UNL A   1      41.760  27.204  26.496  1.00  0.00     0.198 A 
ATOM    114  C   UNL A   1      40.222  25.657  27.499  1.00  0.00     0.198 A 
ATOM    115  F   UNL A   1      39.277  26.128  29.601  1.00  0.00    -0.203 F 
ATOM    116  F   UNL A   1      42.540  27.563  25.467  1.00  0.00    -0.200 F 
ATOM    117  C   UNL A   1      41.048  26.014  26.443  1.00  0.00     0.200 A 
ATOM    118  F   UNL A   1      39.543  24.502  27.454  1.00  0.00    -0.200 F 
ATOM    119  F   UNL A   1      41.154  25.215  25.372  1.00  0.00    -0.200 F 
ENDBRANCH  89 109
BRANCH  92 120
ATOM    120  C   UNL A   1      39.555  33.564  36.657  1.00  0.00     0.064 A 
ATOM    121  C   UNL A   1      38.750  33.136  37.722  1.00  0.00     0.173 A 
ATOM    122  C   UNL A   1      40.168  34.820  36.762  1.00  0.00     0.173 A 
ATOM    123  F   UNL A   1      38.126  31.951  37.656  1.00  0.00    -0.203 F 
ATOM    124  C   UNL A   1      38.552  33.943  38.841  1.00  0.00     0.198 A 
ATOM    125  C   UNL A   1      39.988  35.614  37.893  1.00  0.00     0.198 A 
ATOM    126  F   UNL A   1      40.950  35.271  35.771  1.00  0.00    -0.203 F 
ATOM    127  F   UNL A   1      37.745  33.527  39.828  1.00  0.00    -0.200 F 
ATOM    128  C   UNL A   1      39.175  35.177  38.929  1.00  0.00     0.200 A 
ATOM    129  F   UNL A   1      40.602  36.802  37.979  1.00  0.00    -0.200 F 
ATOM    130  F   UNL A   1      38.987  35.951  40.006  1.00  0.00    -0.200 F 
ENDBRANCH  92 120
BRANCH 107 131
ATOM    131  C   UNL A   1      44.216  28.678  34.958  1.00  0.00     0.064 A 
ATOM    132  C   UNL A   1      45.485  29.260  34.818  1.00  0.00     0.173 A 
ATOM    133  C   UNL A   1      44.086  27.580  35.822  1.00  0.00     0.173 A 
ATOM    134  F   UNL A   1      45.663  30.301  33.990  1.00  0.00    -0.203 F 
ATOM    135  C   UNL A   1      46.585  28.748  35.501  1.00  0.00     0.198 A 
ATOM    136  C   UNL A   1      45.182  27.089  36.523  1.00  0.00     0.198 A 
ATOM    137  F   UNL A   1      42.892  26.993  35.993  1.00  0.00    -0.203 F 
ATOM    138  F   UNL A   1      47.796  29.292  35.320  1.00  0.00    -0.200 F 
ATOM    139  C   UNL A   1      46.431  27.669  36.359  1.00  0.00     0.200 A 
ATOM    140  F   UNL A   1      45.031  26.052  37.359  1.00  0.00    -0.200 F 
ATOM    141  F   UNL A   1      47.490  27.181  37.019  1.00  0.00    -0.200 F 
ENDBRANCH 107 131
ENDBRANCH  72  75
ENDBRANCH  62  65
ENDBRANCH  58  61
ENDBRANCH  55  58
ENDBRANCH  52  55
ENDBRANCH  49  52
ENDBRANCH   1  49
TORSDOF 20
ENDMDL
