MODEL 1
REMARK VINA RESULT:     -12.3      0.000      0.000
REMARK SMILES Cc1c(C)c2c(c(C)c1O)CC[C@@](C)(C(=O)NCCCCCCNC(=O)c1ccc(-c3c4nc(c(-c5c(F)c(F)c(F)c(F)c5F)c5ccc([nH]5)c(-c5c(F)c(F)c(F)c(F)c5F)c5nc(c(-c6c(F)c(F)c(F)c(F)c6F)c6ccc3[nH]6)C=C5)C=C4)cc1)O2
REMARK SMILES IDX 21 1 20 4 19 7 18 10 17 13 15 14 16 15 13 17 2 18 3 19 9 20
REMARK SMILES IDX 5 21 7 22 6 23 90 24 11 25 12 26 1 31 4 35 10 39 8 41 14 45
REMARK SMILES IDX 22 49 23 52 24 55 25 56 26 58 27 59 28 60 89 61 29 62 88 64
REMARK SMILES IDX 30 66 31 69 32 70 82 71 33 72 87 73 81 74 83 75 34 76 86 77
REMARK SMILES IDX 80 79 79 81 35 83 67 86 47 87 66 88 48 89 51 90 65 91 84 92
REMARK SMILES IDX 49 93 50 95 64 97 85 98 52 101 36 103 37 104 45 105 38 106
REMARK SMILES IDX 39 107 43 108 46 109 40 110 41 111 44 112 42 113 68 114
REMARK SMILES IDX 69 115 77 116 70 117 71 118 75 119 78 120 72 121 73 122
REMARK SMILES IDX 76 123 74 124 53 125 54 126 62 127 55 128 56 129 60 130
REMARK SMILES IDX 63 131 57 132 58 133 61 134 59 135
REMARK H PARENT 21 2 21 3 20 5 20 6 19 8 19 9 18 11 18 12 17 16 11 27 11 28
REMARK H PARENT 12 29 12 30 1 32 1 33 1 34 4 36 4 37 4 38 10 40 8 42 8 43 8 44
REMARK H PARENT 14 46 14 47 14 48 22 50 22 51 23 53 23 54 24 57 28 63 89 65
REMARK H PARENT 29 67 88 68 87 78 81 80 83 82 86 84 80 85 48 94 51 96 84 99
REMARK H PARENT 49 100 85 102
REMARK Flexibility Score: inf
ROOT
ATOM      1  C   UNL A   1      31.410  30.735  26.372  1.00  0.00    -0.052 C 
ATOM      2  H   UNL A   1      31.205  30.310  27.333  1.00  0.00     0.027 H 
ATOM      3  H   UNL A   1      30.667  30.503  25.638  1.00  0.00     0.027 H 
ENDROOT
BRANCH   1   4
ATOM      4  C   UNL A   1      32.724  30.137  25.858  1.00  0.00    -0.052 C 
ATOM      5  H   UNL A   1      33.387  30.943  25.622  1.00  0.00     0.027 H 
ATOM      6  H   UNL A   1      33.093  29.502  26.637  1.00  0.00     0.027 H 
BRANCH   4   7
ATOM      7  C   UNL A   1      32.582  29.256  24.615  1.00  0.00    -0.036 C 
ATOM      8  H   UNL A   1      31.624  28.780  24.645  1.00  0.00     0.028 H 
ATOM      9  H   UNL A   1      32.691  29.896  23.764  1.00  0.00     0.028 H 
BRANCH   7  10
ATOM     10  C   UNL A   1      33.655  28.176  24.504  1.00  0.00     0.017 C 
ATOM     11  H   UNL A   1      34.614  28.622  24.663  1.00  0.00     0.049 H 
ATOM     12  H   UNL A   1      33.457  27.428  25.242  1.00  0.00     0.049 H 
BRANCH  10  13
ATOM     13  N   UNL A   1      33.638  27.544  23.196  1.00  0.00    -0.353 N 
ATOM     14  C   UNL A   1      33.532  26.228  22.830  1.00  0.00     0.263 C 
ATOM     15  O   UNL A   1      33.586  25.987  21.621  1.00  0.00    -0.270 OA
ATOM     16  H   UNL A   1      33.717  28.171  22.441  1.00  0.00     0.163 HD
BRANCH  14  17
ATOM     17  C   UNL A   1      33.326  25.120  23.899  1.00  0.00     0.184 C 
ATOM     18  C   UNL A   1      32.733  20.370  24.347  1.00  0.00    -0.002 A 
ATOM     19  C   UNL A   1      32.759  21.530  23.533  1.00  0.00    -0.002 A 
ATOM     20  C   UNL A   1      33.161  20.468  25.685  1.00  0.00     0.122 A 
ATOM     21  C   UNL A   1      33.268  22.729  24.063  1.00  0.00     0.127 A 
ATOM     22  C   UNL A   1      33.685  21.656  26.213  1.00  0.00    -0.002 A 
ATOM     23  C   UNL A   1      33.771  22.787  25.378  1.00  0.00     0.001 A 
ATOM     24  O   UNL A   1      33.235  23.836  23.239  1.00  0.00    -0.477 OA
ATOM     25  C   UNL A   1      34.354  24.067  25.909  1.00  0.00    -0.019 C 
ATOM     26  C   UNL A   1      34.571  25.057  24.790  1.00  0.00     0.000 C 
ATOM     27  H   UNL A   1      35.293  23.858  26.380  1.00  0.00     0.032 H 
ATOM     28  H   UNL A   1      33.672  24.489  26.616  1.00  0.00     0.032 H 
ATOM     29  H   UNL A   1      35.411  24.751  24.202  1.00  0.00     0.032 H 
ATOM     30  H   UNL A   1      34.753  26.025  25.206  1.00  0.00     0.032 H 
BRANCH  18  31
ATOM     31  C   UNL A   1      32.196  19.071  23.799  1.00  0.00    -0.036 C 
ATOM     32  H   UNL A   1      31.821  18.473  24.602  1.00  0.00     0.028 H 
ATOM     33  H   UNL A   1      32.980  18.544  23.298  1.00  0.00     0.028 H 
ATOM     34  H   UNL A   1      31.405  19.276  23.107  1.00  0.00     0.028 H 
ENDBRANCH  18  31
BRANCH  19  35
ATOM     35  C   UNL A   1      32.246  21.485  22.114  1.00  0.00    -0.036 C 
ATOM     36  H   UNL A   1      32.199  20.469  21.783  1.00  0.00     0.028 H 
ATOM     37  H   UNL A   1      32.906  22.037  21.478  1.00  0.00     0.028 H 
ATOM     38  H   UNL A   1      31.267  21.918  22.074  1.00  0.00     0.028 H 
ENDBRANCH  19  35
BRANCH  20  39
ATOM     39  O   UNL A   1      33.081  19.400  26.542  1.00  0.00    -0.507 OA
ATOM     40  H   UNL A   1      33.860  18.953  26.806  1.00  0.00     0.293 HD
ENDBRANCH  20  39
BRANCH  22  41
ATOM     41  C   UNL A   1      34.137  21.743  27.650  1.00  0.00    -0.036 C 
ATOM     42  H   UNL A   1      33.290  21.642  28.297  1.00  0.00     0.028 H 
ATOM     43  H   UNL A   1      34.605  22.690  27.820  1.00  0.00     0.028 H 
ATOM     44  H   UNL A   1      34.835  20.959  27.853  1.00  0.00     0.028 H 
ENDBRANCH  22  41
BRANCH  17  45
ATOM     45  C   UNL A   1      31.954  25.373  24.561  1.00  0.00    -0.016 C 
ATOM     46  H   UNL A   1      31.434  26.137  24.023  1.00  0.00     0.028 H 
ATOM     47  H   UNL A   1      32.098  25.685  25.574  1.00  0.00     0.028 H 
ATOM     48  H   UNL A   1      31.379  24.471  24.545  1.00  0.00     0.028 H 
ENDBRANCH  17  45
ENDBRANCH  14  17
ENDBRANCH  10  13
ENDBRANCH   7  10
ENDBRANCH   4   7
ENDBRANCH   1   4
BRANCH   1  49
ATOM     49  C   UNL A   1      31.409  32.259  26.516  1.00  0.00    -0.036 C 
ATOM     50  H   UNL A   1      30.529  32.545  27.053  1.00  0.00     0.028 H 
ATOM     51  H   UNL A   1      31.439  32.661  25.525  1.00  0.00     0.028 H 
BRANCH  49  52
ATOM     52  C   UNL A   1      32.620  32.818  27.251  1.00  0.00     0.018 C 
ATOM     53  H   UNL A   1      33.476  32.746  26.613  1.00  0.00     0.049 H 
ATOM     54  H   UNL A   1      32.759  32.246  28.146  1.00  0.00     0.049 H 
BRANCH  52  55
ATOM     55  N   UNL A   1      32.431  34.208  27.630  1.00  0.00    -0.352 N 
ATOM     56  C   UNL A   1      33.025  34.921  28.637  1.00  0.00     0.251 C 
ATOM     57  H   UNL A   1      31.783  34.710  27.083  1.00  0.00     0.163 HD
ATOM     58  O   UNL A   1      32.596  36.027  28.958  1.00  0.00    -0.269 OA
BRANCH  56  59
ATOM     59  C   UNL A   1      34.180  34.343  29.353  1.00  0.00     0.039 A 
ATOM     60  C   UNL A   1      33.955  33.614  30.521  1.00  0.00    -0.049 A 
ATOM     61  C   UNL A   1      35.479  34.522  28.867  1.00  0.00    -0.049 A 
ATOM     62  C   UNL A   1      35.033  33.017  31.177  1.00  0.00    -0.053 A 
ATOM     63  H   UNL A   1      33.000  33.516  30.898  1.00  0.00     0.063 H 
ATOM     64  C   UNL A   1      36.540  33.862  29.474  1.00  0.00    -0.053 A 
ATOM     65  H   UNL A   1      35.649  35.143  28.060  1.00  0.00     0.063 H 
ATOM     66  C   UNL A   1      36.328  33.113  30.641  1.00  0.00    -0.014 A 
ATOM     67  H   UNL A   1      34.878  32.502  32.057  1.00  0.00     0.063 H 
ATOM     68  H   UNL A   1      37.485  33.922  29.066  1.00  0.00     0.063 H 
BRANCH  66  69
ATOM     69  C   UNL A   1      37.478  32.452  31.305  1.00  0.00     0.031 A 
ATOM     70  C   UNL A   1      38.209  31.339  30.611  1.00  0.00     0.074 A 
ATOM     71  C   UNL A   1      37.837  32.829  32.547  1.00  0.00     0.049 A 
ATOM     72  N   UNL A   1      39.219  30.623  31.035  1.00  0.00    -0.248 NA
ATOM     73  C   UNL A   1      37.727  30.965  29.273  1.00  0.00    -0.034 C 
ATOM     74  C   UNL A   1      37.178  33.872  33.332  1.00  0.00    -0.036 A 
ATOM     75  N   UNL A   1      38.842  32.378  33.363  1.00  0.00    -0.354 N 
ATOM     76  C   UNL A   1      39.488  29.717  30.019  1.00  0.00     0.074 A 
ATOM     77  C   UNL A   1      38.494  29.924  28.990  1.00  0.00    -0.034 C 
ATOM     78  H   UNL A   1      36.983  31.399  28.704  1.00  0.00     0.065 H 
ATOM     79  C   UNL A   1      37.819  34.008  34.504  1.00  0.00    -0.036 A 
ATOM     80  H   UNL A   1      36.353  34.416  33.035  1.00  0.00     0.065 H 
ATOM     81  C   UNL A   1      38.907  33.036  34.567  1.00  0.00     0.049 A 
ATOM     82  H   UNL A   1      39.459  31.654  33.111  1.00  0.00     0.167 HD
ATOM     83  C   UNL A   1      40.495  28.814  29.939  1.00  0.00     0.037 A 
ATOM     84  H   UNL A   1      38.396  29.338  28.146  1.00  0.00     0.065 H 
ATOM     85  H   UNL A   1      37.581  34.689  35.241  1.00  0.00     0.065 H 
ATOM     86  C   UNL A   1      39.750  32.873  35.605  1.00  0.00     0.037 A 
ATOM     87  C   UNL A   1      41.488  28.623  30.963  1.00  0.00     0.049 A 
ATOM     88  C   UNL A   1      40.839  31.839  35.511  1.00  0.00     0.074 A 
ATOM     89  C   UNL A   1      42.576  27.769  30.958  1.00  0.00    -0.036 A 
ATOM     90  N   UNL A   1      41.509  29.292  32.178  1.00  0.00    -0.354 N 
ATOM     91  N   UNL A   1      41.126  31.030  34.520  1.00  0.00    -0.248 NA
ATOM     92  C   UNL A   1      41.723  31.698  36.677  1.00  0.00    -0.034 C 
ATOM     93  C   UNL A   1      43.220  27.878  32.194  1.00  0.00    -0.036 A 
ATOM     94  H   UNL A   1      42.863  27.158  30.177  1.00  0.00     0.065 H 
ATOM     95  C   UNL A   1      42.572  28.845  32.947  1.00  0.00     0.049 A 
ATOM     96  H   UNL A   1      40.864  29.983  32.455  1.00  0.00     0.167 HD
ATOM     97  C   UNL A   1      42.231  30.297  34.931  1.00  0.00     0.074 A 
ATOM     98  C   UNL A   1      42.574  30.771  36.257  1.00  0.00    -0.034 C 
ATOM     99  H   UNL A   1      41.690  32.191  37.582  1.00  0.00     0.065 H 
ATOM    100  H   UNL A   1      44.040  27.329  32.496  1.00  0.00     0.065 H 
ATOM    101  C   UNL A   1      42.898  29.320  34.269  1.00  0.00     0.037 A 
ATOM    102  H   UNL A   1      43.378  30.429  36.806  1.00  0.00     0.065 H 
BRANCH  83 103
ATOM    103  C   UNL A   1      40.571  27.968  28.700  1.00  0.00     0.064 A 
ATOM    104  C   UNL A   1      41.325  28.364  27.584  1.00  0.00     0.173 A 
ATOM    105  C   UNL A   1      39.908  26.734  28.637  1.00  0.00     0.173 A 
ATOM    106  F   UNL A   1      41.969  29.541  27.586  1.00  0.00    -0.203 F 
ATOM    107  C   UNL A   1      41.384  27.572  26.440  1.00  0.00     0.198 A 
ATOM    108  C   UNL A   1      39.999  25.928  27.505  1.00  0.00     0.198 A 
ATOM    109  F   UNL A   1      39.177  26.304  29.677  1.00  0.00    -0.203 F 
ATOM    110  F   UNL A   1      42.064  27.999  25.367  1.00  0.00    -0.200 F 
ATOM    111  C   UNL A   1      40.729  26.351  26.405  1.00  0.00     0.200 A 
ATOM    112  F   UNL A   1      39.377  24.741  27.478  1.00  0.00    -0.200 F 
ATOM    113  F   UNL A   1      40.794  25.586  25.307  1.00  0.00    -0.200 F 
ENDBRANCH  83 103
BRANCH  86 114
ATOM    114  C   UNL A   1      39.614  33.751  36.797  1.00  0.00     0.064 A 
ATOM    115  C   UNL A   1      40.213  35.017  36.825  1.00  0.00     0.173 A 
ATOM    116  C   UNL A   1      38.834  33.372  37.899  1.00  0.00     0.173 A 
ATOM    117  F   UNL A   1      40.983  35.417  35.802  1.00  0.00    -0.203 F 
ATOM    118  C   UNL A   1      40.033  35.874  37.909  1.00  0.00     0.198 A 
ATOM    119  C   UNL A   1      38.634  34.240  38.971  1.00  0.00     0.198 A 
ATOM    120  F   UNL A   1      38.235  32.173  37.917  1.00  0.00    -0.203 F 
ATOM    121  F   UNL A   1      40.631  37.073  37.918  1.00  0.00    -0.200 F 
ATOM    122  C   UNL A   1      39.234  35.490  38.975  1.00  0.00     0.200 A 
ATOM    123  F   UNL A   1      37.846  33.871  39.990  1.00  0.00    -0.200 F 
ATOM    124  F   UNL A   1      39.042  36.324  40.006  1.00  0.00    -0.200 F 
ENDBRANCH  86 114
BRANCH 101 125
ATOM    125  C   UNL A   1      44.075  28.690  34.957  1.00  0.00     0.064 A 
ATOM    126  C   UNL A   1      43.935  27.529  35.732  1.00  0.00     0.173 A 
ATOM    127  C   UNL A   1      45.369  29.202  34.768  1.00  0.00     0.173 A 
ATOM    128  F   UNL A   1      42.720  27.007  35.952  1.00  0.00    -0.203 F 
ATOM    129  C   UNL A   1      45.047  26.912  36.302  1.00  0.00     0.198 A 
ATOM    130  C   UNL A   1      46.479  28.564  35.313  1.00  0.00     0.198 A 
ATOM    131  F   UNL A   1      45.558  30.305  34.028  1.00  0.00    -0.203 F 
ATOM    132  F   UNL A   1      44.886  25.823  37.067  1.00  0.00    -0.200 F 
ATOM    133  C   UNL A   1      46.317  27.422  36.082  1.00  0.00     0.200 A 
ATOM    134  F   UNL A   1      47.708  29.048  35.083  1.00  0.00    -0.200 F 
ATOM    135  F   UNL A   1      47.386  26.813  36.613  1.00  0.00    -0.200 F 
ENDBRANCH 101 125
ENDBRANCH  66  69
ENDBRANCH  56  59
ENDBRANCH  52  55
ENDBRANCH  49  52
ENDBRANCH   1  49
TORSDOF 18
ENDMDL
MODEL 2
REMARK VINA RESULT:     -12.3      5.426     11.050
REMARK SMILES Cc1c(C)c2c(c(C)c1O)CC[C@@](C)(C(=O)NCCCCCCNC(=O)c1ccc(-c3c4nc(c(-c5c(F)c(F)c(F)c(F)c5F)c5ccc([nH]5)c(-c5c(F)c(F)c(F)c(F)c5F)c5nc(c(-c6c(F)c(F)c(F)c(F)c6F)c6ccc3[nH]6)C=C5)C=C4)cc1)O2
REMARK SMILES IDX 21 1 20 4 19 7 18 10 17 13 15 14 16 15 13 17 2 18 3 19 9 20
REMARK SMILES IDX 5 21 7 22 6 23 90 24 11 25 12 26 1 31 4 35 10 39 8 41 14 45
REMARK SMILES IDX 22 49 23 52 24 55 25 56 26 58 27 59 28 60 89 61 29 62 88 64
REMARK SMILES IDX 30 66 31 69 32 70 82 71 33 72 87 73 81 74 83 75 34 76 86 77
REMARK SMILES IDX 80 79 79 81 35 83 67 86 47 87 66 88 48 89 51 90 65 91 84 92
REMARK SMILES IDX 49 93 50 95 64 97 85 98 52 101 36 103 37 104 45 105 38 106
REMARK SMILES IDX 39 107 43 108 46 109 40 110 41 111 44 112 42 113 68 114
REMARK SMILES IDX 69 115 77 116 70 117 71 118 75 119 78 120 72 121 73 122
REMARK SMILES IDX 76 123 74 124 53 125 54 126 62 127 55 128 56 129 60 130
REMARK SMILES IDX 63 131 57 132 58 133 61 134 59 135
REMARK H PARENT 21 2 21 3 20 5 20 6 19 8 19 9 18 11 18 12 17 16 11 27 11 28
REMARK H PARENT 12 29 12 30 1 32 1 33 1 34 4 36 4 37 4 38 10 40 8 42 8 43 8 44
REMARK H PARENT 14 46 14 47 14 48 22 50 22 51 23 53 23 54 24 57 28 63 89 65
REMARK H PARENT 29 67 88 68 87 78 81 80 83 82 86 84 80 85 48 94 51 96 84 99
REMARK H PARENT 49 100 85 102
REMARK Flexibility Score: inf
ROOT
ATOM      1  C   UNL A   1      36.904  20.666  24.653  1.00  0.00    -0.052 C 
ATOM      2  H   UNL A   1      37.281  21.253  23.841  1.00  0.00     0.027 H 
ATOM      3  H   UNL A   1      36.010  20.130  24.409  1.00  0.00     0.027 H 
ENDROOT
BRANCH   1   4
ATOM      4  C   UNL A   1      36.536  21.618  25.797  1.00  0.00    -0.052 C 
ATOM      5  H   UNL A   1      36.989  21.250  26.694  1.00  0.00     0.027 H 
ATOM      6  H   UNL A   1      36.890  22.586  25.511  1.00  0.00     0.027 H 
BRANCH   4   7
ATOM      7  C   UNL A   1      35.033  21.764  26.047  1.00  0.00    -0.036 C 
ATOM      8  H   UNL A   1      34.527  21.714  25.106  1.00  0.00     0.028 H 
ATOM      9  H   UNL A   1      34.746  20.971  26.706  1.00  0.00     0.028 H 
BRANCH   7  10
ATOM     10  C   UNL A   1      34.652  23.075  26.732  1.00  0.00     0.017 C 
ATOM     11  H   UNL A   1      35.253  23.196  27.608  1.00  0.00     0.049 H 
ATOM     12  H   UNL A   1      34.820  23.876  26.042  1.00  0.00     0.049 H 
BRANCH  10  13
ATOM     13  N   UNL A   1      33.251  23.085  27.112  1.00  0.00    -0.353 N 
ATOM     14  C   UNL A   1      32.202  23.853  26.678  1.00  0.00     0.263 C 
ATOM     15  O   UNL A   1      31.113  23.656  27.224  1.00  0.00    -0.270 OA
ATOM     16  H   UNL A   1      33.012  22.427  27.805  1.00  0.00     0.163 HD
BRANCH  14  17
ATOM     17  C   UNL A   1      32.395  24.889  25.536  1.00  0.00     0.184 C 
ATOM     18  C   UNL A   1      30.029  28.264  23.061  1.00  0.00    -0.002 A 
ATOM     19  C   UNL A   1      30.015  27.161  23.950  1.00  0.00    -0.002 A 
ATOM     20  C   UNL A   1      31.267  28.839  22.710  1.00  0.00     0.122 A 
ATOM     21  C   UNL A   1      31.226  26.709  24.505  1.00  0.00     0.127 A 
ATOM     22  C   UNL A   1      32.475  28.404  23.274  1.00  0.00    -0.002 A 
ATOM     23  C   UNL A   1      32.444  27.352  24.209  1.00  0.00     0.001 A 
ATOM     24  O   UNL A   1      31.156  25.608  25.335  1.00  0.00    -0.477 OA
ATOM     25  C   UNL A   1      33.721  26.883  24.851  1.00  0.00    -0.019 C 
ATOM     26  C   UNL A   1      33.428  25.927  25.983  1.00  0.00     0.000 C 
ATOM     27  H   UNL A   1      34.254  27.729  25.233  1.00  0.00     0.032 H 
ATOM     28  H   UNL A   1      34.311  26.376  24.115  1.00  0.00     0.032 H 
ATOM     29  H   UNL A   1      33.042  26.475  26.818  1.00  0.00     0.032 H 
ATOM     30  H   UNL A   1      34.330  25.427  26.264  1.00  0.00     0.032 H 
BRANCH  18  31
ATOM     31  C   UNL A   1      28.743  28.768  22.457  1.00  0.00    -0.036 C 
ATOM     32  H   UNL A   1      28.289  27.988  21.881  1.00  0.00     0.028 H 
ATOM     33  H   UNL A   1      28.950  29.604  21.823  1.00  0.00     0.028 H 
ATOM     34  H   UNL A   1      28.075  29.069  23.238  1.00  0.00     0.028 H 
ENDBRANCH  18  31
BRANCH  19  35
ATOM     35  C   UNL A   1      28.717  26.472  24.299  1.00  0.00    -0.036 C 
ATOM     36  H   UNL A   1      28.923  25.500  24.694  1.00  0.00     0.028 H 
ATOM     37  H   UNL A   1      28.114  26.379  23.419  1.00  0.00     0.028 H 
ATOM     38  H   UNL A   1      28.192  27.051  25.031  1.00  0.00     0.028 H 
ENDBRANCH  19  35
BRANCH  20  39
ATOM     39  O   UNL A   1      31.350  29.854  21.792  1.00  0.00    -0.507 OA
ATOM     40  H   UNL A   1      31.991  30.529  21.897  1.00  0.00     0.293 HD
ENDBRANCH  20  39
BRANCH  22  41
ATOM     41  C   UNL A   1      33.791  29.031  22.884  1.00  0.00    -0.036 C 
ATOM     42  H   UNL A   1      34.104  28.643  21.937  1.00  0.00     0.028 H 
ATOM     43  H   UNL A   1      34.529  28.800  23.626  1.00  0.00     0.028 H 
ATOM     44  H   UNL A   1      33.675  30.091  22.815  1.00  0.00     0.028 H 
ENDBRANCH  22  41
BRANCH  17  45
ATOM     45  C   UNL A   1      32.658  24.094  24.238  1.00  0.00    -0.016 C 
ATOM     46  H   UNL A   1      32.430  24.707  23.392  1.00  0.00     0.028 H 
ATOM     47  H   UNL A   1      32.039  23.221  24.223  1.00  0.00     0.028 H 
ATOM     48  H   UNL A   1      33.686  23.802  24.201  1.00  0.00     0.028 H 
ENDBRANCH  17  45
ENDBRANCH  14  17
ENDBRANCH  10  13
ENDBRANCH   7  10
ENDBRANCH   4   7
ENDBRANCH   1   4
BRANCH   1  49
ATOM     49  C   UNL A   1      37.955  19.611  25.006  1.00  0.00    -0.036 C 
ATOM     50  H   UNL A   1      38.300  19.164  24.097  1.00  0.00     0.028 H 
ATOM     51  H   UNL A   1      37.479  18.909  25.658  1.00  0.00     0.028 H 
BRANCH  49  52
ATOM     52  C   UNL A   1      39.161  20.158  25.758  1.00  0.00     0.018 C 
ATOM     53  H   UNL A   1      38.843  20.496  26.722  1.00  0.00     0.049 H 
ATOM     54  H   UNL A   1      39.574  20.963  25.184  1.00  0.00     0.049 H 
BRANCH  52  55
ATOM     55  N   UNL A   1      40.195  19.151  25.930  1.00  0.00    -0.352 N 
ATOM     56  C   UNL A   1      41.543  19.314  26.111  1.00  0.00     0.251 C 
ATOM     57  H   UNL A   1      39.881  18.217  25.915  1.00  0.00     0.163 HD
ATOM     58  O   UNL A   1      42.306  18.355  26.026  1.00  0.00    -0.269 OA
BRANCH  56  59
ATOM     59  C   UNL A   1      42.080  20.660  26.392  1.00  0.00     0.039 A 
ATOM     60  C   UNL A   1      42.369  21.511  25.324  1.00  0.00    -0.049 A 
ATOM     61  C   UNL A   1      42.295  21.078  27.710  1.00  0.00    -0.049 A 
ATOM     62  C   UNL A   1      42.825  22.804  25.580  1.00  0.00    -0.053 A 
ATOM     63  H   UNL A   1      42.245  21.186  24.353  1.00  0.00     0.063 H 
ATOM     64  C   UNL A   1      42.673  22.391  27.965  1.00  0.00    -0.053 A 
ATOM     65  H   UNL A   1      42.174  20.413  28.490  1.00  0.00     0.063 H 
ATOM     66  C   UNL A   1      42.952  23.262  26.902  1.00  0.00    -0.014 A 
ATOM     67  H   UNL A   1      43.070  23.427  24.795  1.00  0.00     0.063 H 
ATOM     68  H   UNL A   1      42.747  22.725  28.937  1.00  0.00     0.063 H 
BRANCH  66  69
ATOM     69  C   UNL A   1      43.400  24.646  27.190  1.00  0.00     0.031 A 
ATOM     70  C   UNL A   1      42.436  25.645  27.761  1.00  0.00     0.074 A 
ATOM     71  C   UNL A   1      44.663  25.012  26.898  1.00  0.00     0.049 A 
ATOM     72  N   UNL A   1      42.629  26.905  28.057  1.00  0.00    -0.248 NA
ATOM     73  C   UNL A   1      41.066  25.172  28.012  1.00  0.00    -0.034 C 
ATOM     74  C   UNL A   1      45.676  24.139  26.308  1.00  0.00    -0.036 A 
ATOM     75  N   UNL A   1      45.307  26.212  27.061  1.00  0.00    -0.354 N 
ATOM     76  C   UNL A   1      41.409  27.371  28.524  1.00  0.00     0.074 A 
ATOM     77  C   UNL A   1      40.464  26.283  28.407  1.00  0.00    -0.034 C 
ATOM     78  H   UNL A   1      40.675  24.223  27.906  1.00  0.00     0.065 H 
ATOM     79  C   UNL A   1      46.827  24.820  26.190  1.00  0.00    -0.036 A 
ATOM     80  H   UNL A   1      45.531  23.157  26.025  1.00  0.00     0.065 H 
ATOM     81  C   UNL A   1      46.620  26.188  26.661  1.00  0.00     0.049 A 
ATOM     82  H   UNL A   1      44.871  27.013  27.429  1.00  0.00     0.167 HD
ATOM     83  C   UNL A   1      41.111  28.590  29.036  1.00  0.00     0.037 A 
ATOM     84  H   UNL A   1      39.454  26.362  28.606  1.00  0.00     0.065 H 
ATOM     85  H   UNL A   1      47.714  24.440  25.826  1.00  0.00     0.065 H 
ATOM     86  C   UNL A   1      47.553  27.159  26.672  1.00  0.00     0.037 A 
ATOM     87  C   UNL A   1      42.061  29.664  29.160  1.00  0.00     0.049 A 
ATOM     88  C   UNL A   1      47.193  28.517  27.210  1.00  0.00     0.074 A 
ATOM     89  C   UNL A   1      41.873  30.921  29.707  1.00  0.00    -0.036 A 
ATOM     90  N   UNL A   1      43.377  29.610  28.723  1.00  0.00    -0.354 N 
ATOM     91  N   UNL A   1      46.053  28.931  27.710  1.00  0.00    -0.248 NA
ATOM     92  C   UNL A   1      48.247  29.541  27.189  1.00  0.00    -0.034 C 
ATOM     93  C   UNL A   1      43.057  31.647  29.548  1.00  0.00    -0.036 A 
ATOM     94  H   UNL A   1      41.008  31.262  30.156  1.00  0.00     0.065 H 
ATOM     95  C   UNL A   1      44.003  30.824  28.957  1.00  0.00     0.049 A 
ATOM     96  H   UNL A   1      43.803  28.826  28.308  1.00  0.00     0.167 HD
ATOM     97  C   UNL A   1      46.255  30.253  28.079  1.00  0.00     0.074 A 
ATOM     98  C   UNL A   1      47.633  30.568  27.762  1.00  0.00    -0.034 C 
ATOM     99  H   UNL A   1      49.209  29.477  26.825  1.00  0.00     0.065 H 
ATOM    100  H   UNL A   1      43.201  32.631  29.822  1.00  0.00     0.065 H 
ATOM    101  C   UNL A   1      45.375  31.126  28.630  1.00  0.00     0.037 A 
ATOM    102  H   UNL A   1      48.081  31.478  27.956  1.00  0.00     0.065 H 
BRANCH  83 103
ATOM    103  C   UNL A   1      39.701  28.822  29.500  1.00  0.00     0.064 A 
ATOM    104  C   UNL A   1      39.305  28.541  30.817  1.00  0.00     0.173 A 
ATOM    105  C   UNL A   1      38.742  29.359  28.629  1.00  0.00     0.173 A 
ATOM    106  F   UNL A   1      40.180  28.015  31.688  1.00  0.00    -0.203 F 
ATOM    107  C   UNL A   1      37.994  28.759  31.234  1.00  0.00     0.198 A 
ATOM    108  C   UNL A   1      37.442  29.608  29.059  1.00  0.00     0.198 A 
ATOM    109  F   UNL A   1      39.068  29.651  27.360  1.00  0.00    -0.203 F 
ATOM    110  F   UNL A   1      37.627  28.429  32.480  1.00  0.00    -0.200 F 
ATOM    111  C   UNL A   1      37.067  29.299  30.358  1.00  0.00     0.200 A 
ATOM    112  F   UNL A   1      36.550  30.145  28.216  1.00  0.00    -0.200 F 
ATOM    113  F   UNL A   1      35.808  29.515  30.763  1.00  0.00    -0.200 F 
ENDBRANCH  83 103
BRANCH  86 114
ATOM    114  C   UNL A   1      48.928  26.852  26.199  1.00  0.00     0.064 A 
ATOM    115  C   UNL A   1      49.866  26.262  27.057  1.00  0.00     0.173 A 
ATOM    116  C   UNL A   1      49.312  27.080  24.869  1.00  0.00     0.173 A 
ATOM    117  F   UNL A   1      49.551  26.041  28.343  1.00  0.00    -0.203 F 
ATOM    118  C   UNL A   1      51.134  25.908  26.603  1.00  0.00     0.198 A 
ATOM    119  C   UNL A   1      50.572  26.701  24.409  1.00  0.00     0.198 A 
ATOM    120  F   UNL A   1      48.449  27.636  24.007  1.00  0.00    -0.203 F 
ATOM    121  F   UNL A   1      52.018  25.362  27.449  1.00  0.00    -0.200 F 
ATOM    122  C   UNL A   1      51.483  26.117  25.277  1.00  0.00     0.200 A 
ATOM    123  F   UNL A   1      50.896  26.888  23.123  1.00  0.00    -0.200 F 
ATOM    124  F   UNL A   1      52.694  25.753  24.835  1.00  0.00    -0.200 F 
ENDBRANCH  86 114
BRANCH 101 125
ATOM    125  C   UNL A   1      45.867  32.512  28.935  1.00  0.00     0.064 A 
ATOM    126  C   UNL A   1      46.516  32.812  30.142  1.00  0.00     0.173 A 
ATOM    127  C   UNL A   1      45.766  33.531  27.973  1.00  0.00     0.173 A 
ATOM    128  F   UNL A   1      46.628  31.877  31.097  1.00  0.00    -0.203 F 
ATOM    129  C   UNL A   1      47.034  34.083  30.379  1.00  0.00     0.198 A 
ATOM    130  C   UNL A   1      46.313  34.790  28.202  1.00  0.00     0.198 A 
ATOM    131  F   UNL A   1      45.162  33.295  26.798  1.00  0.00    -0.203 F 
ATOM    132  F   UNL A   1      47.620  34.355  31.554  1.00  0.00    -0.200 F 
ATOM    133  C   UNL A   1      46.943  35.066  29.406  1.00  0.00     0.200 A 
ATOM    134  F   UNL A   1      46.242  35.733  27.252  1.00  0.00    -0.200 F 
ATOM    135  F   UNL A   1      47.463  36.281  29.628  1.00  0.00    -0.200 F 
ENDBRANCH 101 125
ENDBRANCH  66  69
ENDBRANCH  56  59
ENDBRANCH  52  55
ENDBRANCH  49  52
ENDBRANCH   1  49
TORSDOF 18
ENDMDL
MODEL 3
REMARK VINA RESULT:     -12.2      5.406     10.988
REMARK SMILES Cc1c(C)c2c(c(C)c1O)CC[C@@](C)(C(=O)NCCCCCCNC(=O)c1ccc(-c3c4nc(c(-c5c(F)c(F)c(F)c(F)c5F)c5ccc([nH]5)c(-c5c(F)c(F)c(F)c(F)c5F)c5nc(c(-c6c(F)c(F)c(F)c(F)c6F)c6ccc3[nH]6)C=C5)C=C4)cc1)O2
REMARK SMILES IDX 21 1 20 4 19 7 18 10 17 13 15 14 16 15 13 17 2 18 3 19 9 20
REMARK SMILES IDX 5 21 7 22 6 23 90 24 11 25 12 26 1 31 4 35 10 39 8 41 14 45
REMARK SMILES IDX 22 49 23 52 24 55 25 56 26 58 27 59 28 60 89 61 29 62 88 64
REMARK SMILES IDX 30 66 31 69 32 70 82 71 33 72 87 73 81 74 83 75 34 76 86 77
REMARK SMILES IDX 80 79 79 81 35 83 67 86 47 87 66 88 48 89 51 90 65 91 84 92
REMARK SMILES IDX 49 93 50 95 64 97 85 98 52 101 36 103 37 104 45 105 38 106
REMARK SMILES IDX 39 107 43 108 46 109 40 110 41 111 44 112 42 113 68 114
REMARK SMILES IDX 69 115 77 116 70 117 71 118 75 119 78 120 72 121 73 122
REMARK SMILES IDX 76 123 74 124 53 125 54 126 62 127 55 128 56 129 60 130
REMARK SMILES IDX 63 131 57 132 58 133 61 134 59 135
REMARK H PARENT 21 2 21 3 20 5 20 6 19 8 19 9 18 11 18 12 17 16 11 27 11 28
REMARK H PARENT 12 29 12 30 1 32 1 33 1 34 4 36 4 37 4 38 10 40 8 42 8 43 8 44
REMARK H PARENT 14 46 14 47 14 48 22 50 22 51 23 53 23 54 24 57 28 63 89 65
REMARK H PARENT 29 67 88 68 87 78 81 80 83 82 86 84 80 85 48 94 51 96 84 99
REMARK H PARENT 49 100 85 102
REMARK Flexibility Score: inf
ROOT
ATOM      1  C   UNL A   1      36.675  19.935  25.021  1.00  0.00    -0.052 C 
ATOM      2  H   UNL A   1      36.161  19.313  24.318  1.00  0.00     0.027 H 
ATOM      3  H   UNL A   1      36.604  19.584  26.029  1.00  0.00     0.027 H 
ENDROOT
BRANCH   1   4
ATOM      4  C   UNL A   1      36.017  21.320  25.000  1.00  0.00    -0.052 C 
ATOM      5  H   UNL A   1      36.714  22.026  25.402  1.00  0.00     0.027 H 
ATOM      6  H   UNL A   1      35.758  21.516  23.981  1.00  0.00     0.027 H 
BRANCH   4   7
ATOM      7  C   UNL A   1      34.719  21.422  25.804  1.00  0.00    -0.036 C 
ATOM      8  H   UNL A   1      33.897  21.236  25.144  1.00  0.00     0.028 H 
ATOM      9  H   UNL A   1      34.780  20.700  26.591  1.00  0.00     0.028 H 
BRANCH   7  10
ATOM     10  C   UNL A   1      34.512  22.785  26.460  1.00  0.00     0.017 C 
ATOM     11  H   UNL A   1      35.198  22.886  27.274  1.00  0.00     0.049 H 
ATOM     12  H   UNL A   1      34.681  23.542  25.724  1.00  0.00     0.049 H 
BRANCH  10  13
ATOM     13  N   UNL A   1      33.157  22.930  26.963  1.00  0.00    -0.353 N 
ATOM     14  C   UNL A   1      32.162  23.815  26.637  1.00  0.00     0.263 C 
ATOM     15  O   UNL A   1      31.109  23.717  27.273  1.00  0.00    -0.270 OA
ATOM     16  H   UNL A   1      32.910  22.280  27.660  1.00  0.00     0.163 HD
BRANCH  14  17
ATOM     17  C   UNL A   1      32.366  24.858  25.504  1.00  0.00     0.184 C 
ATOM     18  C   UNL A   1      30.037  28.283  23.063  1.00  0.00    -0.002 A 
ATOM     19  C   UNL A   1      30.010  27.173  23.942  1.00  0.00    -0.002 A 
ATOM     20  C   UNL A   1      31.281  28.845  22.714  1.00  0.00     0.122 A 
ATOM     21  C   UNL A   1      31.217  26.701  24.491  1.00  0.00     0.127 A 
ATOM     22  C   UNL A   1      32.485  28.391  23.272  1.00  0.00    -0.002 A 
ATOM     23  C   UNL A   1      32.443  27.331  24.198  1.00  0.00     0.001 A 
ATOM     24  O   UNL A   1      31.136  25.594  25.312  1.00  0.00    -0.477 OA
ATOM     25  C   UNL A   1      33.715  26.841  24.833  1.00  0.00    -0.019 C 
ATOM     26  C   UNL A   1      33.412  25.880  25.957  1.00  0.00     0.000 C 
ATOM     27  H   UNL A   1      34.259  27.677  25.221  1.00  0.00     0.032 H 
ATOM     28  H   UNL A   1      34.297  26.333  24.092  1.00  0.00     0.032 H 
ATOM     29  H   UNL A   1      33.035  26.424  26.798  1.00  0.00     0.032 H 
ATOM     30  H   UNL A   1      34.309  25.366  26.232  1.00  0.00     0.032 H 
BRANCH  18  31
ATOM     31  C   UNL A   1      28.756  28.809  22.465  1.00  0.00    -0.036 C 
ATOM     32  H   UNL A   1      28.981  29.401  21.604  1.00  0.00     0.028 H 
ATOM     33  H   UNL A   1      28.246  29.409  23.188  1.00  0.00     0.028 H 
ATOM     34  H   UNL A   1      28.132  27.986  22.180  1.00  0.00     0.028 H 
ENDBRANCH  18  31
BRANCH  19  35
ATOM     35  C   UNL A   1      28.705  26.497  24.288  1.00  0.00    -0.036 C 
ATOM     36  H   UNL A   1      27.890  27.107  23.960  1.00  0.00     0.028 H 
ATOM     37  H   UNL A   1      28.644  26.360  25.348  1.00  0.00     0.028 H 
ATOM     38  H   UNL A   1      28.656  25.545  23.802  1.00  0.00     0.028 H 
ENDBRANCH  19  35
BRANCH  20  39
ATOM     39  O   UNL A   1      31.375  29.867  21.804  1.00  0.00    -0.507 OA
ATOM     40  H   UNL A   1      31.962  29.794  21.078  1.00  0.00     0.293 HD
ENDBRANCH  20  39
BRANCH  22  41
ATOM     41  C   UNL A   1      33.808  29.004  22.885  1.00  0.00    -0.036 C 
ATOM     42  H   UNL A   1      34.479  28.233  22.567  1.00  0.00     0.028 H 
ATOM     43  H   UNL A   1      34.224  29.515  23.728  1.00  0.00     0.028 H 
ATOM     44  H   UNL A   1      33.659  29.698  22.086  1.00  0.00     0.028 H 
ENDBRANCH  22  41
BRANCH  17  45
ATOM     45  C   UNL A   1      32.616  24.071  24.199  1.00  0.00    -0.016 C 
ATOM     46  H   UNL A   1      33.253  24.640  23.555  1.00  0.00     0.028 H 
ATOM     47  H   UNL A   1      31.683  23.889  23.707  1.00  0.00     0.028 H 
ATOM     48  H   UNL A   1      33.084  23.137  24.429  1.00  0.00     0.028 H 
ENDBRANCH  17  45
ENDBRANCH  14  17
ENDBRANCH  10  13
ENDBRANCH   7  10
ENDBRANCH   4   7
ENDBRANCH   1   4
BRANCH   1  49
ATOM     49  C   UNL A   1      38.164  19.925  24.666  1.00  0.00    -0.036 C 
ATOM     50  H   UNL A   1      38.335  20.667  23.914  1.00  0.00     0.028 H 
ATOM     51  H   UNL A   1      38.393  18.935  24.330  1.00  0.00     0.028 H 
BRANCH  49  52
ATOM     52  C   UNL A   1      39.088  20.213  25.842  1.00  0.00     0.018 C 
ATOM     53  H   UNL A   1      38.509  20.229  26.742  1.00  0.00     0.049 H 
ATOM     54  H   UNL A   1      39.559  21.159  25.670  1.00  0.00     0.049 H 
BRANCH  52  55
ATOM     55  N   UNL A   1      40.130  19.207  25.971  1.00  0.00    -0.352 N 
ATOM     56  C   UNL A   1      41.482  19.373  26.114  1.00  0.00     0.251 C 
ATOM     57  H   UNL A   1      39.819  18.272  25.954  1.00  0.00     0.163 HD
ATOM     58  O   UNL A   1      42.245  18.418  25.995  1.00  0.00    -0.269 OA
BRANCH  56  59
ATOM     59  C   UNL A   1      42.023  20.718  26.396  1.00  0.00     0.039 A 
ATOM     60  C   UNL A   1      42.240  21.596  25.334  1.00  0.00    -0.049 A 
ATOM     61  C   UNL A   1      42.312  21.106  27.709  1.00  0.00    -0.049 A 
ATOM     62  C   UNL A   1      42.700  22.888  25.594  1.00  0.00    -0.053 A 
ATOM     63  H   UNL A   1      42.062  21.294  24.364  1.00  0.00     0.063 H 
ATOM     64  C   UNL A   1      42.693  22.416  27.973  1.00  0.00    -0.053 A 
ATOM     65  H   UNL A   1      42.244  20.421  28.478  1.00  0.00     0.063 H 
ATOM     66  C   UNL A   1      42.901  23.315  26.916  1.00  0.00    -0.014 A 
ATOM     67  H   UNL A   1      42.891  23.531  24.811  1.00  0.00     0.063 H 
ATOM     68  H   UNL A   1      42.822  22.728  28.947  1.00  0.00     0.063 H 
BRANCH  66  69
ATOM     69  C   UNL A   1      43.352  24.697  27.211  1.00  0.00     0.031 A 
ATOM     70  C   UNL A   1      42.391  25.697  27.783  1.00  0.00     0.074 A 
ATOM     71  C   UNL A   1      44.618  25.059  26.925  1.00  0.00     0.049 A 
ATOM     72  N   UNL A   1      42.587  26.955  28.084  1.00  0.00    -0.248 NA
ATOM     73  C   UNL A   1      41.018  25.228  28.028  1.00  0.00    -0.034 C 
ATOM     74  C   UNL A   1      45.630  24.184  26.335  1.00  0.00    -0.036 A 
ATOM     75  N   UNL A   1      45.266  26.256  27.095  1.00  0.00    -0.354 N 
ATOM     76  C   UNL A   1      41.367  27.424  28.549  1.00  0.00     0.074 A 
ATOM     77  C   UNL A   1      40.418  26.339  28.425  1.00  0.00    -0.034 C 
ATOM     78  H   UNL A   1      40.624  24.280  27.917  1.00  0.00     0.065 H 
ATOM     79  C   UNL A   1      46.783  24.863  26.223  1.00  0.00    -0.036 A 
ATOM     80  H   UNL A   1      45.482  23.204  26.048  1.00  0.00     0.065 H 
ATOM     81  C   UNL A   1      46.580  26.229  26.699  1.00  0.00     0.049 A 
ATOM     82  H   UNL A   1      44.831  27.058  27.465  1.00  0.00     0.167 HD
ATOM     83  C   UNL A   1      41.072  28.642  29.065  1.00  0.00     0.037 A 
ATOM     84  H   UNL A   1      39.408  26.421  28.621  1.00  0.00     0.065 H 
ATOM     85  H   UNL A   1      47.670  24.480  25.861  1.00  0.00     0.065 H 
ATOM     86  C   UNL A   1      47.517  27.197  26.717  1.00  0.00     0.037 A 
ATOM     87  C   UNL A   1      42.025  29.712  29.196  1.00  0.00     0.049 A 
ATOM     88  C   UNL A   1      47.159  28.554  27.259  1.00  0.00     0.074 A 
ATOM     89  C   UNL A   1      41.840  30.967  29.747  1.00  0.00    -0.036 A 
ATOM     90  N   UNL A   1      43.342  29.655  28.763  1.00  0.00    -0.354 N 
ATOM     91  N   UNL A   1      46.019  28.970  27.756  1.00  0.00    -0.248 NA
ATOM     92  C   UNL A   1      48.217  29.574  27.245  1.00  0.00    -0.034 C 
ATOM     93  C   UNL A   1      43.026  31.690  29.594  1.00  0.00    -0.036 A 
ATOM     94  H   UNL A   1      40.974  31.310  30.194  1.00  0.00     0.065 H 
ATOM     95  C   UNL A   1      43.972  30.865  29.004  1.00  0.00     0.049 A 
ATOM     96  H   UNL A   1      43.767  28.871  28.347  1.00  0.00     0.167 HD
ATOM     97  C   UNL A   1      46.224  30.290  28.131  1.00  0.00     0.074 A 
ATOM     98  C   UNL A   1      47.605  30.601  27.819  1.00  0.00    -0.034 C 
ATOM     99  H   UNL A   1      49.180  29.508  26.884  1.00  0.00     0.065 H 
ATOM    100  H   UNL A   1      43.173  32.672  29.873  1.00  0.00     0.065 H 
ATOM    101  C   UNL A   1      45.346  31.164  28.683  1.00  0.00     0.037 A 
ATOM    102  H   UNL A   1      48.055  31.509  28.019  1.00  0.00     0.065 H 
BRANCH  83 103
ATOM    103  C   UNL A   1      39.661  28.877  29.525  1.00  0.00     0.064 A 
ATOM    104  C   UNL A   1      38.679  29.380  28.658  1.00  0.00     0.173 A 
ATOM    105  C   UNL A   1      39.279  28.570  30.839  1.00  0.00     0.173 A 
ATOM    106  F   UNL A   1      38.994  29.702  27.394  1.00  0.00    -0.203 F 
ATOM    107  C   UNL A   1      37.375  29.596  29.098  1.00  0.00     0.198 A 
ATOM    108  C   UNL A   1      37.966  28.754  31.266  1.00  0.00     0.198 A 
ATOM    109  F   UNL A   1      40.176  28.082  31.709  1.00  0.00    -0.203 F 
ATOM    110  F   UNL A   1      36.470  30.130  28.266  1.00  0.00    -0.200 F 
ATOM    111  C   UNL A   1      37.018  29.275  30.398  1.00  0.00     0.200 A 
ATOM    112  F   UNL A   1      37.618  28.429  32.518  1.00  0.00    -0.200 F 
ATOM    113  F   UNL A   1      35.762  29.476  30.818  1.00  0.00    -0.200 F 
ENDBRANCH  83 103
BRANCH  86 114
ATOM    114  C   UNL A   1      48.892  26.886  26.247  1.00  0.00     0.064 A 
ATOM    115  C   UNL A   1      49.843  26.347  27.123  1.00  0.00     0.173 A 
ATOM    116  C   UNL A   1      49.264  27.061  24.906  1.00  0.00     0.173 A 
ATOM    117  F   UNL A   1      49.540  26.178  28.419  1.00  0.00    -0.203 F 
ATOM    118  C   UNL A   1      51.113  25.989  26.675  1.00  0.00     0.198 A 
ATOM    119  C   UNL A   1      50.525  26.678  24.453  1.00  0.00     0.198 A 
ATOM    120  F   UNL A   1      48.387  27.568  24.027  1.00  0.00    -0.203 F 
ATOM    121  F   UNL A   1      52.009  25.491  27.537  1.00  0.00    -0.200 F 
ATOM    122  C   UNL A   1      51.449  26.144  25.338  1.00  0.00     0.200 A 
ATOM    123  F   UNL A   1      50.838  26.813  23.157  1.00  0.00    -0.200 F 
ATOM    124  F   UNL A   1      52.661  25.776  24.903  1.00  0.00    -0.200 F 
ENDBRANCH  86 114
BRANCH 101 125
ATOM    125  C   UNL A   1      45.842  32.548  28.994  1.00  0.00     0.064 A 
ATOM    126  C   UNL A   1      46.486  32.840  30.204  1.00  0.00     0.173 A 
ATOM    127  C   UNL A   1      45.748  33.570  28.035  1.00  0.00     0.173 A 
ATOM    128  F   UNL A   1      46.591  31.902  31.157  1.00  0.00    -0.203 F 
ATOM    129  C   UNL A   1      47.008  34.109  30.449  1.00  0.00     0.198 A 
ATOM    130  C   UNL A   1      46.299  34.826  28.271  1.00  0.00     0.198 A 
ATOM    131  F   UNL A   1      45.149  33.340  26.857  1.00  0.00    -0.203 F 
ATOM    132  F   UNL A   1      47.591  34.375  31.626  1.00  0.00    -0.200 F 
ATOM    133  C   UNL A   1      46.926  35.095  29.478  1.00  0.00     0.200 A 
ATOM    134  F   UNL A   1      46.236  35.772  27.323  1.00  0.00    -0.200 F 
ATOM    135  F   UNL A   1      47.449  36.308  29.707  1.00  0.00    -0.200 F 
ENDBRANCH 101 125
ENDBRANCH  66  69
ENDBRANCH  56  59
ENDBRANCH  52  55
ENDBRANCH  49  52
ENDBRANCH   1  49
TORSDOF 18
ENDMDL
MODEL 4
REMARK VINA RESULT:     -12.2      5.256      9.709
REMARK SMILES Cc1c(C)c2c(c(C)c1O)CC[C@@](C)(C(=O)NCCCCCCNC(=O)c1ccc(-c3c4nc(c(-c5c(F)c(F)c(F)c(F)c5F)c5ccc([nH]5)c(-c5c(F)c(F)c(F)c(F)c5F)c5nc(c(-c6c(F)c(F)c(F)c(F)c6F)c6ccc3[nH]6)C=C5)C=C4)cc1)O2
REMARK SMILES IDX 21 1 20 4 19 7 18 10 17 13 15 14 16 15 13 17 2 18 3 19 9 20
REMARK SMILES IDX 5 21 7 22 6 23 90 24 11 25 12 26 1 31 4 35 10 39 8 41 14 45
REMARK SMILES IDX 22 49 23 52 24 55 25 56 26 58 27 59 28 60 89 61 29 62 88 64
REMARK SMILES IDX 30 66 31 69 32 70 82 71 33 72 87 73 81 74 83 75 34 76 86 77
REMARK SMILES IDX 80 79 79 81 35 83 67 86 47 87 66 88 48 89 51 90 65 91 84 92
REMARK SMILES IDX 49 93 50 95 64 97 85 98 52 101 36 103 37 104 45 105 38 106
REMARK SMILES IDX 39 107 43 108 46 109 40 110 41 111 44 112 42 113 68 114
REMARK SMILES IDX 69 115 77 116 70 117 71 118 75 119 78 120 72 121 73 122
REMARK SMILES IDX 76 123 74 124 53 125 54 126 62 127 55 128 56 129 60 130
REMARK SMILES IDX 63 131 57 132 58 133 61 134 59 135
REMARK H PARENT 21 2 21 3 20 5 20 6 19 8 19 9 18 11 18 12 17 16 11 27 11 28
REMARK H PARENT 12 29 12 30 1 32 1 33 1 34 4 36 4 37 4 38 10 40 8 42 8 43 8 44
REMARK H PARENT 14 46 14 47 14 48 22 50 22 51 23 53 23 54 24 57 28 63 89 65
REMARK H PARENT 29 67 88 68 87 78 81 80 83 82 86 84 80 85 48 94 51 96 84 99
REMARK H PARENT 49 100 85 102
REMARK Flexibility Score: inf
ROOT
ATOM      1  C   UNL A   1      36.516  19.951  25.001  1.00  0.00    -0.052 C 
ATOM      2  H   UNL A   1      35.932  19.694  24.141  1.00  0.00     0.027 H 
ATOM      3  H   UNL A   1      36.328  19.320  25.845  1.00  0.00     0.027 H 
ENDROOT
BRANCH   1   4
ATOM      4  C   UNL A   1      36.130  21.371  25.431  1.00  0.00    -0.052 C 
ATOM      5  H   UNL A   1      36.875  21.727  26.112  1.00  0.00     0.027 H 
ATOM      6  H   UNL A   1      36.066  21.952  24.535  1.00  0.00     0.027 H 
BRANCH   4   7
ATOM      7  C   UNL A   1      34.767  21.482  26.117  1.00  0.00    -0.036 C 
ATOM      8  H   UNL A   1      34.011  21.199  25.415  1.00  0.00     0.028 H 
ATOM      9  H   UNL A   1      34.792  20.837  26.970  1.00  0.00     0.028 H 
BRANCH   7  10
ATOM     10  C   UNL A   1      34.452  22.887  26.626  1.00  0.00     0.017 C 
ATOM     11  H   UNL A   1      35.095  23.110  27.450  1.00  0.00     0.049 H 
ATOM     12  H   UNL A   1      34.607  23.578  25.824  1.00  0.00     0.049 H 
BRANCH  10  13
ATOM     13  N   UNL A   1      33.070  22.995  27.061  1.00  0.00    -0.353 N 
ATOM     14  C   UNL A   1      32.059  23.829  26.661  1.00  0.00     0.263 C 
ATOM     15  O   UNL A   1      30.982  23.710  27.251  1.00  0.00    -0.270 OA
ATOM     16  H   UNL A   1      32.815  22.358  27.767  1.00  0.00     0.163 HD
BRANCH  14  17
ATOM     17  C   UNL A   1      32.276  24.843  25.504  1.00  0.00     0.184 C 
ATOM     18  C   UNL A   1      29.993  28.242  22.985  1.00  0.00    -0.002 A 
ATOM     19  C   UNL A   1      29.952  27.153  23.890  1.00  0.00    -0.002 A 
ATOM     20  C   UNL A   1      31.244  28.780  22.624  1.00  0.00     0.122 A 
ATOM     21  C   UNL A   1      31.152  26.678  24.450  1.00  0.00     0.127 A 
ATOM     22  C   UNL A   1      32.442  28.322  23.192  1.00  0.00    -0.002 A 
ATOM     23  C   UNL A   1      32.386  27.285  24.143  1.00  0.00     0.001 A 
ATOM     24  O   UNL A   1      31.056  25.591  25.295  1.00  0.00    -0.477 OA
ATOM     25  C   UNL A   1      33.652  26.793  24.789  1.00  0.00    -0.019 C 
ATOM     26  C   UNL A   1      33.337  25.861  25.935  1.00  0.00     0.000 C 
ATOM     27  H   UNL A   1      34.207  27.630  25.158  1.00  0.00     0.032 H 
ATOM     28  H   UNL A   1      34.226  26.261  24.060  1.00  0.00     0.032 H 
ATOM     29  H   UNL A   1      32.966  26.430  26.762  1.00  0.00     0.032 H 
ATOM     30  H   UNL A   1      34.226  25.342  26.221  1.00  0.00     0.032 H 
BRANCH  18  31
ATOM     31  C   UNL A   1      28.718  28.771  22.376  1.00  0.00    -0.036 C 
ATOM     32  H   UNL A   1      28.243  27.994  21.815  1.00  0.00     0.028 H 
ATOM     33  H   UNL A   1      28.946  29.590  21.729  1.00  0.00     0.028 H 
ATOM     34  H   UNL A   1      28.062  29.102  23.154  1.00  0.00     0.028 H 
ENDBRANCH  18  31
BRANCH  19  35
ATOM     35  C   UNL A   1      28.637  26.503  24.251  1.00  0.00    -0.036 C 
ATOM     36  H   UNL A   1      28.296  26.885  25.190  1.00  0.00     0.028 H 
ATOM     37  H   UNL A   1      28.771  25.443  24.324  1.00  0.00     0.028 H 
ATOM     38  H   UNL A   1      27.913  26.719  23.493  1.00  0.00     0.028 H 
ENDBRANCH  19  35
BRANCH  20  39
ATOM     39  O   UNL A   1      31.351  29.779  21.691  1.00  0.00    -0.507 OA
ATOM     40  H   UNL A   1      31.030  29.644  20.822  1.00  0.00     0.293 HD
ENDBRANCH  20  39
BRANCH  22  41
ATOM     41  C   UNL A   1      33.773  28.909  22.792  1.00  0.00    -0.036 C 
ATOM     42  H   UNL A   1      34.536  28.167  22.896  1.00  0.00     0.028 H 
ATOM     43  H   UNL A   1      33.999  29.744  23.423  1.00  0.00     0.028 H 
ATOM     44  H   UNL A   1      33.728  29.234  21.774  1.00  0.00     0.028 H 
ENDBRANCH  22  41
BRANCH  17  45
ATOM     45  C   UNL A   1      32.516  24.023  24.218  1.00  0.00    -0.016 C 
ATOM     46  H   UNL A   1      31.677  24.133  23.563  1.00  0.00     0.028 H 
ATOM     47  H   UNL A   1      32.638  22.990  24.470  1.00  0.00     0.028 H 
ATOM     48  H   UNL A   1      33.400  24.377  23.729  1.00  0.00     0.028 H 
ENDBRANCH  17  45
ENDBRANCH  14  17
ENDBRANCH  10  13
ENDBRANCH   7  10
ENDBRANCH   4   7
ENDBRANCH   1   4
BRANCH   1  49
ATOM     49  C   UNL A   1      37.993  19.765  24.645  1.00  0.00    -0.036 C 
ATOM     50  H   UNL A   1      38.206  20.355  23.779  1.00  0.00     0.028 H 
ATOM     51  H   UNL A   1      38.140  18.718  24.480  1.00  0.00     0.028 H 
BRANCH  49  52
ATOM     52  C   UNL A   1      38.958  20.172  25.751  1.00  0.00     0.018 C 
ATOM     53  H   UNL A   1      38.416  20.255  26.670  1.00  0.00     0.049 H 
ATOM     54  H   UNL A   1      39.399  21.109  25.479  1.00  0.00     0.049 H 
BRANCH  52  55
ATOM     55  N   UNL A   1      40.028  19.203  25.921  1.00  0.00    -0.352 N 
ATOM     56  C   UNL A   1      41.366  19.416  26.126  1.00  0.00     0.251 C 
ATOM     57  H   UNL A   1      39.751  18.258  25.885  1.00  0.00     0.163 HD
ATOM     58  O   UNL A   1      42.167  18.489  26.036  1.00  0.00    -0.269 OA
BRANCH  56  59
ATOM     59  C   UNL A   1      41.846  20.776  26.440  1.00  0.00     0.039 A 
ATOM     60  C   UNL A   1      42.095  21.664  25.392  1.00  0.00    -0.049 A 
ATOM     61  C   UNL A   1      42.045  21.170  27.767  1.00  0.00    -0.049 A 
ATOM     62  C   UNL A   1      42.497  22.969  25.679  1.00  0.00    -0.053 A 
ATOM     63  H   UNL A   1      41.984  21.358  24.414  1.00  0.00     0.063 H 
ATOM     64  C   UNL A   1      42.367  22.492  28.053  1.00  0.00    -0.053 A 
ATOM     65  H   UNL A   1      41.954  20.482  28.530  1.00  0.00     0.063 H 
ATOM     66  C   UNL A   1      42.607  23.400  27.011  1.00  0.00    -0.014 A 
ATOM     67  H   UNL A   1      42.713  23.621  24.909  1.00  0.00     0.063 H 
ATOM     68  H   UNL A   1      42.428  22.805  29.034  1.00  0.00     0.063 H 
BRANCH  66  69
ATOM     69  C   UNL A   1      42.995  24.794  27.333  1.00  0.00     0.031 A 
ATOM     70  C   UNL A   1      44.397  25.264  27.073  1.00  0.00     0.074 A 
ATOM     71  C   UNL A   1      42.095  25.623  27.895  1.00  0.00     0.049 A 
ATOM     72  N   UNL A   1      44.934  26.434  27.308  1.00  0.00    -0.248 NA
ATOM     73  C   UNL A   1      45.326  24.281  26.493  1.00  0.00    -0.034 C 
ATOM     74  C   UNL A   1      40.716  25.268  28.227  1.00  0.00    -0.036 A 
ATOM     75  N   UNL A   1      42.207  26.934  28.285  1.00  0.00    -0.354 N 
ATOM     76  C   UNL A   1      46.259  26.324  26.908  1.00  0.00     0.074 A 
ATOM     77  C   UNL A   1      46.464  24.958  26.482  1.00  0.00    -0.034 C 
ATOM     78  H   UNL A   1      45.140  23.316  26.179  1.00  0.00     0.065 H 
ATOM     79  C   UNL A   1      40.097  26.344  28.737  1.00  0.00    -0.036 A 
ATOM     80  H   UNL A   1      40.288  24.339  28.092  1.00  0.00     0.065 H 
ATOM     81  C   UNL A   1      41.047  27.453  28.804  1.00  0.00     0.049 A 
ATOM     82  H   UNL A   1      43.039  27.453  28.200  1.00  0.00     0.167 HD
ATOM     83  C   UNL A   1      47.210  27.288  26.869  1.00  0.00     0.037 A 
ATOM     84  H   UNL A   1      47.376  24.562  26.205  1.00  0.00     0.065 H 
ATOM     85  H   UNL A   1      39.110  26.383  29.034  1.00  0.00     0.065 H 
ATOM     86  C   UNL A   1      40.778  28.684  29.280  1.00  0.00     0.037 A 
ATOM     87  C   UNL A   1      46.994  28.649  27.284  1.00  0.00     0.049 A 
ATOM     88  C   UNL A   1      41.859  29.729  29.262  1.00  0.00     0.074 A 
ATOM     89  C   UNL A   1      47.878  29.713  27.240  1.00  0.00    -0.036 A 
ATOM     90  N   UNL A   1      45.812  29.132  27.825  1.00  0.00    -0.354 N 
ATOM     91  N   UNL A   1      43.091  29.636  28.823  1.00  0.00    -0.248 NA
ATOM     92  C   UNL A   1      41.514  31.051  29.804  1.00  0.00    -0.034 C 
ATOM     93  C   UNL A   1      47.250  30.824  27.810  1.00  0.00    -0.036 A 
ATOM     94  H   UNL A   1      48.835  29.689  26.853  1.00  0.00     0.065 H 
ATOM     95  C   UNL A   1      45.954  30.471  28.152  1.00  0.00     0.049 A 
ATOM     96  H   UNL A   1      44.993  28.603  27.957  1.00  0.00     0.167 HD
ATOM     97  C   UNL A   1      43.663  30.886  29.016  1.00  0.00     0.074 A 
ATOM     98  C   UNL A   1      42.636  31.727  29.596  1.00  0.00    -0.034 C 
ATOM     99  H   UNL A   1      40.631  31.369  30.231  1.00  0.00     0.065 H 
ATOM    100  H   UNL A   1      47.680  31.751  27.952  1.00  0.00     0.065 H 
ATOM    101  C   UNL A   1      44.925  31.296  28.736  1.00  0.00     0.037 A 
ATOM    102  H   UNL A   1      42.763  32.726  29.822  1.00  0.00     0.065 H 
BRANCH  83 103
ATOM    103  C   UNL A   1      48.569  26.901  26.359  1.00  0.00     0.064 A 
ATOM    104  C   UNL A   1      49.553  26.376  27.212  1.00  0.00     0.173 A 
ATOM    105  C   UNL A   1      48.884  27.026  24.998  1.00  0.00     0.173 A 
ATOM    106  F   UNL A   1      49.309  26.246  28.525  1.00  0.00    -0.203 F 
ATOM    107  C   UNL A   1      50.810  26.023  26.727  1.00  0.00     0.198 A 
ATOM    108  C   UNL A   1      50.129  26.640  24.510  1.00  0.00     0.198 A 
ATOM    109  F   UNL A   1      47.979  27.518  24.137  1.00  0.00    -0.203 F 
ATOM    110  F   UNL A   1      51.751  25.578  27.572  1.00  0.00    -0.200 F 
ATOM    111  C   UNL A   1      51.094  26.148  25.376  1.00  0.00     0.200 A 
ATOM    112  F   UNL A   1      50.397  26.746  23.201  1.00  0.00    -0.200 F 
ATOM    113  F   UNL A   1      52.301  25.800  24.909  1.00  0.00    -0.200 F 
ENDBRANCH  83 103
BRANCH  86 114
ATOM    114  C   UNL A   1      39.408  28.992  29.765  1.00  0.00     0.064 A 
ATOM    115  C   UNL A   1      39.055  28.771  31.103  1.00  0.00     0.173 A 
ATOM    116  C   UNL A   1      38.447  29.571  28.923  1.00  0.00     0.173 A 
ATOM    117  F   UNL A   1      39.934  28.203  31.942  1.00  0.00    -0.203 F 
ATOM    118  C   UNL A   1      37.794  29.121  31.582  1.00  0.00     0.198 A 
ATOM    119  C   UNL A   1      37.196  29.945  29.410  1.00  0.00     0.198 A 
ATOM    120  F   UNL A   1      38.737  29.809  27.636  1.00  0.00    -0.203 F 
ATOM    121  F   UNL A   1      37.477  28.883  32.862  1.00  0.00    -0.200 F 
ATOM    122  C   UNL A   1      36.870  29.719  30.739  1.00  0.00     0.200 A 
ATOM    123  F   UNL A   1      36.313  30.539  28.595  1.00  0.00    -0.200 F 
ATOM    124  F   UNL A   1      35.667  30.078  31.206  1.00  0.00    -0.200 F 
ENDBRANCH  86 114
BRANCH 101 125
ATOM    125  C   UNL A   1      45.279  32.722  29.049  1.00  0.00     0.064 A 
ATOM    126  C   UNL A   1      45.036  33.755  28.132  1.00  0.00     0.173 A 
ATOM    127  C   UNL A   1      45.786  33.070  30.312  1.00  0.00     0.173 A 
ATOM    128  F   UNL A   1      44.564  33.475  26.909  1.00  0.00    -0.203 F 
ATOM    129  C   UNL A   1      45.300  35.083  28.464  1.00  0.00     0.198 A 
ATOM    130  C   UNL A   1      46.017  34.400  30.650  1.00  0.00     0.198 A 
ATOM    131  F   UNL A   1      46.028  32.120  31.228  1.00  0.00    -0.203 F 
ATOM    132  F   UNL A   1      45.092  36.050  27.560  1.00  0.00    -0.200 F 
ATOM    133  C   UNL A   1      45.778  35.405  29.725  1.00  0.00     0.200 A 
ATOM    134  F   UNL A   1      46.460  34.710  31.877  1.00  0.00    -0.200 F 
ATOM    135  F   UNL A   1      46.008  36.684  30.049  1.00  0.00    -0.200 F 
ENDBRANCH 101 125
ENDBRANCH  66  69
ENDBRANCH  56  59
ENDBRANCH  52  55
ENDBRANCH  49  52
ENDBRANCH   1  49
TORSDOF 18
ENDMDL
MODEL 5
REMARK VINA RESULT:     -12.2      0.646      7.300
REMARK SMILES Cc1c(C)c2c(c(C)c1O)CC[C@@](C)(C(=O)NCCCCCCNC(=O)c1ccc(-c3c4nc(c(-c5c(F)c(F)c(F)c(F)c5F)c5ccc([nH]5)c(-c5c(F)c(F)c(F)c(F)c5F)c5nc(c(-c6c(F)c(F)c(F)c(F)c6F)c6ccc3[nH]6)C=C5)C=C4)cc1)O2
REMARK SMILES IDX 21 1 20 4 19 7 18 10 17 13 15 14 16 15 13 17 2 18 3 19 9 20
REMARK SMILES IDX 5 21 7 22 6 23 90 24 11 25 12 26 1 31 4 35 10 39 8 41 14 45
REMARK SMILES IDX 22 49 23 52 24 55 25 56 26 58 27 59 28 60 89 61 29 62 88 64
REMARK SMILES IDX 30 66 31 69 32 70 82 71 33 72 87 73 81 74 83 75 34 76 86 77
REMARK SMILES IDX 80 79 79 81 35 83 67 86 47 87 66 88 48 89 51 90 65 91 84 92
REMARK SMILES IDX 49 93 50 95 64 97 85 98 52 101 36 103 37 104 45 105 38 106
REMARK SMILES IDX 39 107 43 108 46 109 40 110 41 111 44 112 42 113 68 114
REMARK SMILES IDX 69 115 77 116 70 117 71 118 75 119 78 120 72 121 73 122
REMARK SMILES IDX 76 123 74 124 53 125 54 126 62 127 55 128 56 129 60 130
REMARK SMILES IDX 63 131 57 132 58 133 61 134 59 135
REMARK H PARENT 21 2 21 3 20 5 20 6 19 8 19 9 18 11 18 12 17 16 11 27 11 28
REMARK H PARENT 12 29 12 30 1 32 1 33 1 34 4 36 4 37 4 38 10 40 8 42 8 43 8 44
REMARK H PARENT 14 46 14 47 14 48 22 50 22 51 23 53 23 54 24 57 28 63 89 65
REMARK H PARENT 29 67 88 68 87 78 81 80 83 82 86 84 80 85 48 94 51 96 84 99
REMARK H PARENT 49 100 85 102
REMARK Flexibility Score: inf
ROOT
ATOM      1  C   UNL A   1      31.479  30.508  25.726  1.00  0.00    -0.052 C 
ATOM      2  H   UNL A   1      30.784  29.787  26.104  1.00  0.00     0.027 H 
ATOM      3  H   UNL A   1      31.320  30.751  24.696  1.00  0.00     0.027 H 
ENDROOT
BRANCH   1   4
ATOM      4  C   UNL A   1      32.885  29.903  25.813  1.00  0.00    -0.052 C 
ATOM      5  H   UNL A   1      33.579  30.698  25.990  1.00  0.00     0.027 H 
ATOM      6  H   UNL A   1      32.857  29.184  26.605  1.00  0.00     0.027 H 
BRANCH   4   7
ATOM      7  C   UNL A   1      33.334  29.149  24.560  1.00  0.00    -0.036 C 
ATOM      8  H   UNL A   1      33.774  29.851  23.882  1.00  0.00     0.028 H 
ATOM      9  H   UNL A   1      34.029  28.400  24.877  1.00  0.00     0.028 H 
BRANCH   7  10
ATOM     10  C   UNL A   1      32.197  28.429  23.839  1.00  0.00     0.017 C 
ATOM     11  H   UNL A   1      31.746  27.731  24.512  1.00  0.00     0.049 H 
ATOM     12  H   UNL A   1      31.486  29.160  23.517  1.00  0.00     0.049 H 
BRANCH  10  13
ATOM     13  N   UNL A   1      32.679  27.715  22.670  1.00  0.00    -0.353 N 
ATOM     14  C   UNL A   1      33.065  26.410  22.503  1.00  0.00     0.263 C 
ATOM     15  O   UNL A   1      33.473  26.096  21.381  1.00  0.00    -0.270 OA
ATOM     16  H   UNL A   1      32.742  28.264  21.855  1.00  0.00     0.163 HD
BRANCH  14  17
ATOM     17  C   UNL A   1      32.957  25.394  23.673  1.00  0.00     0.184 C 
ATOM     18  C   UNL A   1      32.831  20.672  24.572  1.00  0.00    -0.002 A 
ATOM     19  C   UNL A   1      32.752  21.746  23.651  1.00  0.00    -0.002 A 
ATOM     20  C   UNL A   1      33.231  20.939  25.896  1.00  0.00     0.122 A 
ATOM     21  C   UNL A   1      33.133  23.036  24.064  1.00  0.00     0.127 A 
ATOM     22  C   UNL A   1      33.628  22.219  26.309  1.00  0.00    -0.002 A 
ATOM     23  C   UNL A   1      33.613  23.268  25.369  1.00  0.00     0.001 A 
ATOM     24  O   UNL A   1      33.001  24.050  23.138  1.00  0.00    -0.477 OA
ATOM     25  C   UNL A   1      34.060  24.644  25.777  1.00  0.00    -0.019 C 
ATOM     26  C   UNL A   1      34.191  25.540  24.568  1.00  0.00     0.000 C 
ATOM     27  H   UNL A   1      35.009  24.575  26.268  1.00  0.00     0.032 H 
ATOM     28  H   UNL A   1      33.330  25.062  26.439  1.00  0.00     0.032 H 
ATOM     29  H   UNL A   1      35.065  25.265  24.015  1.00  0.00     0.032 H 
ATOM     30  H   UNL A   1      34.272  26.557  24.891  1.00  0.00     0.032 H 
BRANCH  18  31
ATOM     31  C   UNL A   1      32.432  19.280  24.149  1.00  0.00    -0.036 C 
ATOM     32  H   UNL A   1      33.202  18.858  23.539  1.00  0.00     0.028 H 
ATOM     33  H   UNL A   1      31.520  19.324  23.593  1.00  0.00     0.028 H 
ATOM     34  H   UNL A   1      32.291  18.671  25.018  1.00  0.00     0.028 H 
ENDBRANCH  18  31
BRANCH  19  35
ATOM     35  C   UNL A   1      32.263  21.516  22.241  1.00  0.00    -0.036 C 
ATOM     36  H   UNL A   1      31.254  21.163  22.266  1.00  0.00     0.028 H 
ATOM     37  H   UNL A   1      32.884  20.787  21.762  1.00  0.00     0.028 H 
ATOM     38  H   UNL A   1      32.306  22.435  21.694  1.00  0.00     0.028 H 
ENDBRANCH  19  35
BRANCH  20  39
ATOM     39  O   UNL A   1      33.246  19.955  26.851  1.00  0.00    -0.507 OA
ATOM     40  H   UNL A   1      32.477  19.446  27.011  1.00  0.00     0.293 HD
ENDBRANCH  20  39
BRANCH  22  41
ATOM     41  C   UNL A   1      34.052  22.486  27.732  1.00  0.00    -0.036 C 
ATOM     42  H   UNL A   1      33.462  21.891  28.398  1.00  0.00     0.028 H 
ATOM     43  H   UNL A   1      33.908  23.523  27.958  1.00  0.00     0.028 H 
ATOM     44  H   UNL A   1      35.084  22.235  27.850  1.00  0.00     0.028 H 
ENDBRANCH  22  41
BRANCH  17  45
ATOM     45  C   UNL A   1      31.559  25.570  24.304  1.00  0.00    -0.016 C 
ATOM     46  H   UNL A   1      31.642  26.145  25.202  1.00  0.00     0.028 H 
ATOM     47  H   UNL A   1      31.146  24.610  24.532  1.00  0.00     0.028 H 
ATOM     48  H   UNL A   1      30.917  26.078  23.614  1.00  0.00     0.028 H 
ENDBRANCH  17  45
ENDBRANCH  14  17
ENDBRANCH  10  13
ENDBRANCH   7  10
ENDBRANCH   4   7
ENDBRANCH   1   4
BRANCH   1  49
ATOM     49  C   UNL A   1      31.288  31.809  26.509  1.00  0.00    -0.036 C 
ATOM     50  H   UNL A   1      30.650  31.608  27.344  1.00  0.00     0.028 H 
ATOM     51  H   UNL A   1      30.868  32.519  25.828  1.00  0.00     0.028 H 
BRANCH  49  52
ATOM     52  C   UNL A   1      32.582  32.419  27.033  1.00  0.00     0.018 C 
ATOM     53  H   UNL A   1      33.324  32.370  26.263  1.00  0.00     0.049 H 
ATOM     54  H   UNL A   1      32.886  31.863  27.895  1.00  0.00     0.049 H 
BRANCH  52  55
ATOM     55  N   UNL A   1      32.406  33.806  27.429  1.00  0.00    -0.352 N 
ATOM     56  C   UNL A   1      33.043  34.513  28.414  1.00  0.00     0.251 C 
ATOM     57  H   UNL A   1      31.733  34.310  26.916  1.00  0.00     0.163 HD
ATOM     58  O   UNL A   1      32.625  35.615  28.762  1.00  0.00    -0.269 OA
BRANCH  56  59
ATOM     59  C   UNL A   1      34.229  33.934  29.074  1.00  0.00     0.039 A 
ATOM     60  C   UNL A   1      34.050  32.944  30.042  1.00  0.00    -0.049 A 
ATOM     61  C   UNL A   1      35.515  34.368  28.732  1.00  0.00    -0.049 A 
ATOM     62  C   UNL A   1      35.166  32.351  30.632  1.00  0.00    -0.053 A 
ATOM     63  H   UNL A   1      33.100  32.654  30.319  1.00  0.00     0.063 H 
ATOM     64  C   UNL A   1      36.625  33.721  29.262  1.00  0.00    -0.053 A 
ATOM     65  H   UNL A   1      35.637  35.166  28.090  1.00  0.00     0.063 H 
ATOM     66  C   UNL A   1      36.460  32.715  30.225  1.00  0.00    -0.014 A 
ATOM     67  H   UNL A   1      35.040  31.641  31.370  1.00  0.00     0.063 H 
ATOM     68  H   UNL A   1      37.571  33.981  28.945  1.00  0.00     0.063 H 
BRANCH  66  69
ATOM     69  C   UNL A   1      37.656  32.066  30.815  1.00  0.00     0.031 A 
ATOM     70  C   UNL A   1      38.137  32.473  32.178  1.00  0.00     0.074 A 
ATOM     71  C   UNL A   1      38.330  31.140  30.107  1.00  0.00     0.049 A 
ATOM     72  N   UNL A   1      39.173  32.043  32.852  1.00  0.00    -0.248 NA
ATOM     73  C   UNL A   1      37.366  33.519  32.866  1.00  0.00    -0.034 C 
ATOM     74  C   UNL A   1      37.978  30.692  28.760  1.00  0.00    -0.036 A 
ATOM     75  N   UNL A   1      39.449  30.411  30.421  1.00  0.00    -0.354 N 
ATOM     76  C   UNL A   1      39.176  32.766  34.036  1.00  0.00     0.074 A 
ATOM     77  C   UNL A   1      38.084  33.711  33.961  1.00  0.00    -0.034 C 
ATOM     78  H   UNL A   1      36.492  33.984  32.571  1.00  0.00     0.065 H 
ATOM     79  C   UNL A   1      38.841  29.738  28.377  1.00  0.00    -0.036 A 
ATOM     80  H   UNL A   1      37.193  31.051  28.195  1.00  0.00     0.065 H 
ATOM     81  C   UNL A   1      39.829  29.536  29.434  1.00  0.00     0.049 A 
ATOM     82  H   UNL A   1      39.932  30.506  31.273  1.00  0.00     0.167 HD
ATOM     83  C   UNL A   1      39.998  32.631  35.105  1.00  0.00     0.037 A 
ATOM     84  H   UNL A   1      37.891  34.438  34.667  1.00  0.00     0.065 H 
ATOM     85  H   UNL A   1      38.812  29.229  27.480  1.00  0.00     0.065 H 
ATOM     86  C   UNL A   1      40.858  28.669  29.387  1.00  0.00     0.037 A 
ATOM     87  C   UNL A   1      41.075  31.680  35.176  1.00  0.00     0.049 A 
ATOM     88  C   UNL A   1      41.781  28.560  30.569  1.00  0.00     0.074 A 
ATOM     89  C   UNL A   1      41.935  31.430  36.231  1.00  0.00    -0.036 A 
ATOM     90  N   UNL A   1      41.444  30.824  34.148  1.00  0.00    -0.354 N 
ATOM     91  N   UNL A   1      41.739  29.203  31.711  1.00  0.00    -0.248 NA
ATOM     92  C   UNL A   1      42.893  27.605  30.458  1.00  0.00    -0.034 C 
ATOM     93  C   UNL A   1      42.862  30.468  35.819  1.00  0.00    -0.036 A 
ATOM     94  H   UNL A   1      41.899  31.878  37.160  1.00  0.00     0.065 H 
ATOM     95  C   UNL A   1      42.542  30.071  34.530  1.00  0.00     0.049 A 
ATOM     96  H   UNL A   1      40.993  30.762  33.275  1.00  0.00     0.167 HD
ATOM     97  C   UNL A   1      42.802  28.720  32.462  1.00  0.00     0.074 A 
ATOM     98  C   UNL A   1      43.461  27.717  31.652  1.00  0.00    -0.034 C 
ATOM     99  H   UNL A   1      43.160  27.006  29.663  1.00  0.00     0.065 H 
ATOM    100  H   UNL A   1      43.651  30.114  36.381  1.00  0.00     0.065 H 
ATOM    101  C   UNL A   1      43.194  29.079  33.710  1.00  0.00     0.037 A 
ATOM    102  H   UNL A   1      44.273  27.160  31.963  1.00  0.00     0.065 H 
BRANCH  83 103
ATOM    103  C   UNL A   1      39.759  33.534  36.281  1.00  0.00     0.064 A 
ATOM    104  C   UNL A   1      40.355  34.802  36.368  1.00  0.00     0.173 A 
ATOM    105  C   UNL A   1      38.903  33.141  37.321  1.00  0.00     0.173 A 
ATOM    106  F   UNL A   1      41.193  35.222  35.408  1.00  0.00    -0.203 F 
ATOM    107  C   UNL A   1      40.128  35.628  37.466  1.00  0.00     0.198 A 
ATOM    108  C   UNL A   1      38.650  33.984  38.399  1.00  0.00     0.198 A 
ATOM    109  F   UNL A   1      38.303  31.941  37.287  1.00  0.00    -0.203 F 
ATOM    110  F   UNL A   1      40.753  36.811  37.552  1.00  0.00    -0.200 F 
ATOM    111  C   UNL A   1      39.270  35.223  38.476  1.00  0.00     0.200 A 
ATOM    112  F   UNL A   1      37.808  33.598  39.367  1.00  0.00    -0.200 F 
ATOM    113  F   UNL A   1      39.045  36.022  39.527  1.00  0.00    -0.200 F 
ENDBRANCH  83 103
BRANCH  86 114
ATOM    114  C   UNL A   1      41.027  27.806  28.188  1.00  0.00     0.064 A 
ATOM    115  C   UNL A   1      41.791  28.239  27.097  1.00  0.00     0.173 A 
ATOM    116  C   UNL A   1      40.485  26.514  28.135  1.00  0.00     0.173 A 
ATOM    117  F   UNL A   1      42.314  29.474  27.093  1.00  0.00    -0.203 F 
ATOM    118  C   UNL A   1      42.011  27.410  25.998  1.00  0.00     0.198 A 
ATOM    119  C   UNL A   1      40.728  25.676  27.048  1.00  0.00     0.198 A 
ATOM    120  F   UNL A   1      39.752  26.050  29.158  1.00  0.00    -0.203 F 
ATOM    121  F   UNL A   1      42.731  27.855  24.960  1.00  0.00    -0.200 F 
ATOM    122  C   UNL A   1      41.490  26.125  25.980  1.00  0.00     0.200 A 
ATOM    123  F   UNL A   1      40.238  24.429  27.045  1.00  0.00    -0.200 F 
ATOM    124  F   UNL A   1      41.723  25.320  24.936  1.00  0.00    -0.200 F 
ENDBRANCH  86 114
BRANCH 101 125
ATOM    125  C   UNL A   1      44.393  28.384  34.291  1.00  0.00     0.064 A 
ATOM    126  C   UNL A   1      45.678  28.938  34.196  1.00  0.00     0.173 A 
ATOM    127  C   UNL A   1      44.242  27.196  35.024  1.00  0.00     0.173 A 
ATOM    128  F   UNL A   1      45.877  30.064  33.497  1.00  0.00    -0.203 F 
ATOM    129  C   UNL A   1      46.769  28.321  34.804  1.00  0.00     0.198 A 
ATOM    130  C   UNL A   1      45.329  26.602  35.657  1.00  0.00     0.198 A 
ATOM    131  F   UNL A   1      43.032  26.630  35.153  1.00  0.00    -0.203 F 
ATOM    132  F   UNL A   1      47.993  28.850  34.672  1.00  0.00    -0.200 F 
ATOM    133  C   UNL A   1      46.592  27.162  35.543  1.00  0.00     0.200 A 
ATOM    134  F   UNL A   1      45.152  25.491  36.388  1.00  0.00    -0.200 F 
ATOM    135  F   UNL A   1      47.639  26.583  36.147  1.00  0.00    -0.200 F 
ENDBRANCH 101 125
ENDBRANCH  66  69
ENDBRANCH  56  59
ENDBRANCH  52  55
ENDBRANCH  49  52
ENDBRANCH   1  49
TORSDOF 18
ENDMDL
MODEL 6
REMARK VINA RESULT:     -12.2      5.264      9.677
REMARK SMILES Cc1c(C)c2c(c(C)c1O)CC[C@@](C)(C(=O)NCCCCCCNC(=O)c1ccc(-c3c4nc(c(-c5c(F)c(F)c(F)c(F)c5F)c5ccc([nH]5)c(-c5c(F)c(F)c(F)c(F)c5F)c5nc(c(-c6c(F)c(F)c(F)c(F)c6F)c6ccc3[nH]6)C=C5)C=C4)cc1)O2
REMARK SMILES IDX 21 1 20 4 19 7 18 10 17 13 15 14 16 15 13 17 2 18 3 19 9 20
REMARK SMILES IDX 5 21 7 22 6 23 90 24 11 25 12 26 1 31 4 35 10 39 8 41 14 45
REMARK SMILES IDX 22 49 23 52 24 55 25 56 26 58 27 59 28 60 89 61 29 62 88 64
REMARK SMILES IDX 30 66 31 69 32 70 82 71 33 72 87 73 81 74 83 75 34 76 86 77
REMARK SMILES IDX 80 79 79 81 35 83 67 86 47 87 66 88 48 89 51 90 65 91 84 92
REMARK SMILES IDX 49 93 50 95 64 97 85 98 52 101 36 103 37 104 45 105 38 106
REMARK SMILES IDX 39 107 43 108 46 109 40 110 41 111 44 112 42 113 68 114
REMARK SMILES IDX 69 115 77 116 70 117 71 118 75 119 78 120 72 121 73 122
REMARK SMILES IDX 76 123 74 124 53 125 54 126 62 127 55 128 56 129 60 130
REMARK SMILES IDX 63 131 57 132 58 133 61 134 59 135
REMARK H PARENT 21 2 21 3 20 5 20 6 19 8 19 9 18 11 18 12 17 16 11 27 11 28
REMARK H PARENT 12 29 12 30 1 32 1 33 1 34 4 36 4 37 4 38 10 40 8 42 8 43 8 44
REMARK H PARENT 14 46 14 47 14 48 22 50 22 51 23 53 23 54 24 57 28 63 89 65
REMARK H PARENT 29 67 88 68 87 78 81 80 83 82 86 84 80 85 48 94 51 96 84 99
REMARK H PARENT 49 100 85 102
REMARK Flexibility Score: inf
ROOT
ATOM      1  C   UNL A   1      36.780  20.590  24.657  1.00  0.00    -0.052 C 
ATOM      2  H   UNL A   1      37.118  21.173  23.825  1.00  0.00     0.027 H 
ATOM      3  H   UNL A   1      35.896  20.026  24.449  1.00  0.00     0.027 H 
ENDROOT
BRANCH   1   4
ATOM      4  C   UNL A   1      36.419  21.552  25.794  1.00  0.00    -0.052 C 
ATOM      5  H   UNL A   1      36.856  21.179  26.697  1.00  0.00     0.027 H 
ATOM      6  H   UNL A   1      36.794  22.513  25.510  1.00  0.00     0.027 H 
BRANCH   4   7
ATOM      7  C   UNL A   1      34.917  21.727  26.029  1.00  0.00    -0.036 C 
ATOM      8  H   UNL A   1      34.422  21.717  25.080  1.00  0.00     0.028 H 
ATOM      9  H   UNL A   1      34.602  20.923  26.661  1.00  0.00     0.028 H 
BRANCH   7  10
ATOM     10  C   UNL A   1      34.558  23.027  26.747  1.00  0.00     0.017 C 
ATOM     11  H   UNL A   1      35.156  23.113  27.629  1.00  0.00     0.049 H 
ATOM     12  H   UNL A   1      34.745  23.842  26.080  1.00  0.00     0.049 H 
BRANCH  10  13
ATOM     13  N   UNL A   1      33.155  23.054  27.121  1.00  0.00    -0.353 N 
ATOM     14  C   UNL A   1      32.118  23.837  26.685  1.00  0.00     0.263 C 
ATOM     15  O   UNL A   1      31.024  23.653  27.225  1.00  0.00    -0.270 OA
ATOM     16  H   UNL A   1      32.905  22.397  27.810  1.00  0.00     0.163 HD
BRANCH  14  17
ATOM     17  C   UNL A   1      32.330  24.874  25.547  1.00  0.00     0.184 C 
ATOM     18  C   UNL A   1      30.012  28.270  23.056  1.00  0.00    -0.002 A 
ATOM     19  C   UNL A   1      29.981  27.165  23.942  1.00  0.00    -0.002 A 
ATOM     20  C   UNL A   1      31.257  28.838  22.719  1.00  0.00     0.122 A 
ATOM     21  C   UNL A   1      31.183  26.704  24.509  1.00  0.00     0.127 A 
ATOM     22  C   UNL A   1      32.456  28.393  23.294  1.00  0.00    -0.002 A 
ATOM     23  C   UNL A   1      32.409  27.339  24.226  1.00  0.00     0.001 A 
ATOM     24  O   UNL A   1      31.098  25.602  25.335  1.00  0.00    -0.477 OA
ATOM     25  C   UNL A   1      33.676  26.861  24.880  1.00  0.00    -0.019 C 
ATOM     26  C   UNL A   1      33.365  25.905  26.007  1.00  0.00     0.000 C 
ATOM     27  H   UNL A   1      34.210  27.702  25.269  1.00  0.00     0.032 H 
ATOM     28  H   UNL A   1      34.269  26.352  24.149  1.00  0.00     0.032 H 
ATOM     29  H   UNL A   1      32.974  26.453  26.839  1.00  0.00     0.032 H 
ATOM     30  H   UNL A   1      34.261  25.398  26.296  1.00  0.00     0.032 H 
BRANCH  18  31
ATOM     31  C   UNL A   1      28.735  28.785  22.440  1.00  0.00    -0.036 C 
ATOM     32  H   UNL A   1      28.063  27.968  22.277  1.00  0.00     0.028 H 
ATOM     33  H   UNL A   1      28.954  29.257  21.506  1.00  0.00     0.028 H 
ATOM     34  H   UNL A   1      28.280  29.494  23.101  1.00  0.00     0.028 H 
ENDBRANCH  18  31
BRANCH  19  35
ATOM     35  C   UNL A   1      28.675  26.485  24.276  1.00  0.00    -0.036 C 
ATOM     36  H   UNL A   1      28.432  25.781  23.509  1.00  0.00     0.028 H 
ATOM     37  H   UNL A   1      27.898  27.218  24.347  1.00  0.00     0.028 H 
ATOM     38  H   UNL A   1      28.769  25.973  25.212  1.00  0.00     0.028 H 
ENDBRANCH  19  35
BRANCH  20  39
ATOM     39  O   UNL A   1      31.356  29.854  21.804  1.00  0.00    -0.507 OA
ATOM     40  H   UNL A   1      31.102  29.709  20.914  1.00  0.00     0.293 HD
ENDBRANCH  20  39
BRANCH  22  41
ATOM     41  C   UNL A   1      33.780  29.012  22.919  1.00  0.00    -0.036 C 
ATOM     42  H   UNL A   1      34.466  28.907  23.734  1.00  0.00     0.028 H 
ATOM     43  H   UNL A   1      33.640  30.051  22.702  1.00  0.00     0.028 H 
ATOM     44  H   UNL A   1      34.173  28.518  22.056  1.00  0.00     0.028 H 
ENDBRANCH  22  41
BRANCH  17  45
ATOM     45  C   UNL A   1      32.600  24.080  24.250  1.00  0.00    -0.016 C 
ATOM     46  H   UNL A   1      33.114  23.173  24.488  1.00  0.00     0.028 H 
ATOM     47  H   UNL A   1      33.203  24.669  23.591  1.00  0.00     0.028 H 
ATOM     48  H   UNL A   1      31.671  23.850  23.772  1.00  0.00     0.028 H 
ENDBRANCH  17  45
ENDBRANCH  14  17
ENDBRANCH  10  13
ENDBRANCH   7  10
ENDBRANCH   4   7
ENDBRANCH   1   4
BRANCH   1  49
ATOM     49  C   UNL A   1      37.870  19.571  24.997  1.00  0.00    -0.036 C 
ATOM     50  H   UNL A   1      38.228  19.145  24.083  1.00  0.00     0.028 H 
ATOM     51  H   UNL A   1      37.422  18.847  25.645  1.00  0.00     0.028 H 
BRANCH  49  52
ATOM     52  C   UNL A   1      39.059  20.155  25.751  1.00  0.00     0.018 C 
ATOM     53  H   UNL A   1      38.732  20.472  26.719  1.00  0.00     0.049 H 
ATOM     54  H   UNL A   1      39.438  20.980  25.184  1.00  0.00     0.049 H 
BRANCH  52  55
ATOM     55  N   UNL A   1      40.130  19.186  25.909  1.00  0.00    -0.352 N 
ATOM     56  C   UNL A   1      41.468  19.398  26.112  1.00  0.00     0.251 C 
ATOM     57  H   UNL A   1      39.854  18.241  25.865  1.00  0.00     0.163 HD
ATOM     58  O   UNL A   1      42.269  18.472  26.011  1.00  0.00    -0.269 OA
BRANCH  56  59
ATOM     59  C   UNL A   1      41.948  20.756  26.436  1.00  0.00     0.039 A 
ATOM     60  C   UNL A   1      42.196  21.652  25.396  1.00  0.00    -0.049 A 
ATOM     61  C   UNL A   1      42.148  21.139  27.767  1.00  0.00    -0.049 A 
ATOM     62  C   UNL A   1      42.597  22.955  25.693  1.00  0.00    -0.053 A 
ATOM     63  H   UNL A   1      42.083  21.355  24.415  1.00  0.00     0.063 H 
ATOM     64  C   UNL A   1      42.470  22.458  28.064  1.00  0.00    -0.053 A 
ATOM     65  H   UNL A   1      42.058  20.444  28.524  1.00  0.00     0.063 H 
ATOM     66  C   UNL A   1      42.708  23.375  27.029  1.00  0.00    -0.014 A 
ATOM     67  H   UNL A   1      42.812  23.613  24.929  1.00  0.00     0.063 H 
ATOM     68  H   UNL A   1      42.532  22.763  29.047  1.00  0.00     0.063 H 
BRANCH  66  69
ATOM     69  C   UNL A   1      43.096  24.767  27.362  1.00  0.00     0.031 A 
ATOM     70  C   UNL A   1      44.500  25.236  27.115  1.00  0.00     0.074 A 
ATOM     71  C   UNL A   1      42.193  25.594  27.922  1.00  0.00     0.049 A 
ATOM     72  N   UNL A   1      45.038  26.403  27.361  1.00  0.00    -0.248 NA
ATOM     73  C   UNL A   1      45.432  24.255  26.537  1.00  0.00    -0.034 C 
ATOM     74  C   UNL A   1      40.811  25.238  28.242  1.00  0.00    -0.036 A 
ATOM     75  N   UNL A   1      42.304  26.902  28.321  1.00  0.00    -0.354 N 
ATOM     76  C   UNL A   1      46.365  26.294  26.971  1.00  0.00     0.074 A 
ATOM     77  C   UNL A   1      46.571  24.930  26.538  1.00  0.00    -0.034 C 
ATOM     78  H   UNL A   1      45.247  23.292  26.215  1.00  0.00     0.065 H 
ATOM     79  C   UNL A   1      40.190  26.313  28.754  1.00  0.00    -0.036 A 
ATOM     80  H   UNL A   1      40.382  24.311  28.098  1.00  0.00     0.065 H 
ATOM     81  C   UNL A   1      41.141  27.419  28.834  1.00  0.00     0.049 A 
ATOM     82  H   UNL A   1      43.138  27.420  28.245  1.00  0.00     0.167 HD
ATOM     83  C   UNL A   1      47.318  27.256  26.945  1.00  0.00     0.037 A 
ATOM     84  H   UNL A   1      47.485  24.535  26.266  1.00  0.00     0.065 H 
ATOM     85  H   UNL A   1      39.201  26.351  29.044  1.00  0.00     0.065 H 
ATOM     86  C   UNL A   1      40.871  28.648  29.316  1.00  0.00     0.037 A 
ATOM     87  C   UNL A   1      47.101  28.615  27.366  1.00  0.00     0.049 A 
ATOM     88  C   UNL A   1      41.953  29.692  29.312  1.00  0.00     0.074 A 
ATOM     89  C   UNL A   1      47.987  29.678  27.335  1.00  0.00    -0.036 A 
ATOM     90  N   UNL A   1      45.915  29.097  27.901  1.00  0.00    -0.354 N 
ATOM     91  N   UNL A   1      43.188  29.599  28.882  1.00  0.00    -0.248 NA
ATOM     92  C   UNL A   1      41.606  31.011  29.859  1.00  0.00    -0.034 C 
ATOM     93  C   UNL A   1      47.357  30.787  27.907  1.00  0.00    -0.036 A 
ATOM     94  H   UNL A   1      48.947  29.655  26.955  1.00  0.00     0.065 H 
ATOM     95  C   UNL A   1      46.057  30.434  28.237  1.00  0.00     0.049 A 
ATOM     96  H   UNL A   1      45.095  28.568  28.024  1.00  0.00     0.167 HD
ATOM     97  C   UNL A   1      43.760  30.847  29.086  1.00  0.00     0.074 A 
ATOM     98  C   UNL A   1      42.731  31.686  29.664  1.00  0.00    -0.034 C 
ATOM     99  H   UNL A   1      40.720  31.328  30.282  1.00  0.00     0.065 H 
ATOM    100  H   UNL A   1      47.787  31.712  28.058  1.00  0.00     0.065 H 
ATOM    101  C   UNL A   1      45.025  31.257  28.819  1.00  0.00     0.037 A 
ATOM    102  H   UNL A   1      42.857  32.684  29.897  1.00  0.00     0.065 H 
BRANCH  83 103
ATOM    103  C   UNL A   1      48.681  26.870  26.442  1.00  0.00     0.064 A 
ATOM    104  C   UNL A   1      49.040  27.028  25.095  1.00  0.00     0.173 A 
ATOM    105  C   UNL A   1      49.649  26.364  27.322  1.00  0.00     0.173 A 
ATOM    106  F   UNL A   1      48.148  27.497  24.208  1.00  0.00    -0.203 F 
ATOM    107  C   UNL A   1      50.305  26.664  24.642  1.00  0.00     0.198 A 
ATOM    108  C   UNL A   1      50.924  26.033  26.872  1.00  0.00     0.198 A 
ATOM    109  F   UNL A   1      49.361  26.196  28.622  1.00  0.00    -0.203 F 
ATOM    110  F   UNL A   1      50.605  26.771  23.339  1.00  0.00    -0.200 F 
ATOM    111  C   UNL A   1      51.248  26.175  25.531  1.00  0.00     0.200 A 
ATOM    112  F   UNL A   1      51.840  25.576  27.736  1.00  0.00    -0.200 F 
ATOM    113  F   UNL A   1      52.468  25.832  25.095  1.00  0.00    -0.200 F 
ENDBRANCH  83 103
BRANCH  86 114
ATOM    114  C   UNL A   1      39.497  28.956  29.793  1.00  0.00     0.064 A 
ATOM    115  C   UNL A   1      39.125  28.698  31.118  1.00  0.00     0.173 A 
ATOM    116  C   UNL A   1      38.553  29.568  28.956  1.00  0.00     0.173 A 
ATOM    117  F   UNL A   1      39.988  28.097  31.952  1.00  0.00    -0.203 F 
ATOM    118  C   UNL A   1      37.862  29.047  31.592  1.00  0.00     0.198 A 
ATOM    119  C   UNL A   1      37.299  29.941  29.438  1.00  0.00     0.198 A 
ATOM    120  F   UNL A   1      38.862  29.842  27.680  1.00  0.00    -0.203 F 
ATOM    121  F   UNL A   1      37.525  28.774  32.860  1.00  0.00    -0.200 F 
ATOM    122  C   UNL A   1      36.954  29.678  30.755  1.00  0.00     0.200 A 
ATOM    123  F   UNL A   1      36.433  30.567  28.630  1.00  0.00    -0.200 F 
ATOM    124  F   UNL A   1      35.749  30.036  31.218  1.00  0.00    -0.200 F 
ENDBRANCH  86 114
BRANCH 101 125
ATOM    125  C   UNL A   1      45.379  32.680  29.142  1.00  0.00     0.064 A 
ATOM    126  C   UNL A   1      45.992  33.026  30.355  1.00  0.00     0.173 A 
ATOM    127  C   UNL A   1      45.182  33.697  28.193  1.00  0.00     0.173 A 
ATOM    128  F   UNL A   1      46.192  32.095  31.300  1.00  0.00    -0.203 F 
ATOM    129  C   UNL A   1      46.384  34.338  30.611  1.00  0.00     0.198 A 
ATOM    130  C   UNL A   1      45.605  34.999  28.440  1.00  0.00     0.198 A 
ATOM    131  F   UNL A   1      44.608  33.418  27.013  1.00  0.00    -0.203 F 
ATOM    132  F   UNL A   1      46.938  34.651  31.791  1.00  0.00    -0.200 F 
ATOM    133  C   UNL A   1      46.201  35.320  29.649  1.00  0.00     0.200 A 
ATOM    134  F   UNL A   1      45.445  35.943  27.500  1.00  0.00    -0.200 F 
ATOM    135  F   UNL A   1      46.600  36.577  29.889  1.00  0.00    -0.200 F 
ENDBRANCH 101 125
ENDBRANCH  66  69
ENDBRANCH  56  59
ENDBRANCH  52  55
ENDBRANCH  49  52
ENDBRANCH   1  49
TORSDOF 18
ENDMDL
MODEL 7
REMARK VINA RESULT:     -12.1      3.497      8.491
REMARK SMILES Cc1c(C)c2c(c(C)c1O)CC[C@@](C)(C(=O)NCCCCCCNC(=O)c1ccc(-c3c4nc(c(-c5c(F)c(F)c(F)c(F)c5F)c5ccc([nH]5)c(-c5c(F)c(F)c(F)c(F)c5F)c5nc(c(-c6c(F)c(F)c(F)c(F)c6F)c6ccc3[nH]6)C=C5)C=C4)cc1)O2
REMARK SMILES IDX 21 1 20 4 19 7 18 10 17 13 15 14 16 15 13 17 2 18 3 19 9 20
REMARK SMILES IDX 5 21 7 22 6 23 90 24 11 25 12 26 1 31 4 35 10 39 8 41 14 45
REMARK SMILES IDX 22 49 23 52 24 55 25 56 26 58 27 59 28 60 89 61 29 62 88 64
REMARK SMILES IDX 30 66 31 69 32 70 82 71 33 72 87 73 81 74 83 75 34 76 86 77
REMARK SMILES IDX 80 79 79 81 35 83 67 86 47 87 66 88 48 89 51 90 65 91 84 92
REMARK SMILES IDX 49 93 50 95 64 97 85 98 52 101 36 103 37 104 45 105 38 106
REMARK SMILES IDX 39 107 43 108 46 109 40 110 41 111 44 112 42 113 68 114
REMARK SMILES IDX 69 115 77 116 70 117 71 118 75 119 78 120 72 121 73 122
REMARK SMILES IDX 76 123 74 124 53 125 54 126 62 127 55 128 56 129 60 130
REMARK SMILES IDX 63 131 57 132 58 133 61 134 59 135
REMARK H PARENT 21 2 21 3 20 5 20 6 19 8 19 9 18 11 18 12 17 16 11 27 11 28
REMARK H PARENT 12 29 12 30 1 32 1 33 1 34 4 36 4 37 4 38 10 40 8 42 8 43 8 44
REMARK H PARENT 14 46 14 47 14 48 22 50 22 51 23 53 23 54 24 57 28 63 89 65
REMARK H PARENT 29 67 88 68 87 78 81 80 83 82 86 84 80 85 48 94 51 96 84 99
REMARK H PARENT 49 100 85 102
REMARK Flexibility Score: inf
ROOT
ATOM      1  C   UNL A   1      32.204  28.093  25.463  1.00  0.00    -0.052 C 
ATOM      2  H   UNL A   1      31.983  27.114  25.092  1.00  0.00     0.027 H 
ATOM      3  H   UNL A   1      31.360  28.750  25.455  1.00  0.00     0.027 H 
ENDROOT
BRANCH   1   4
ATOM      4  C   UNL A   1      33.251  28.727  24.540  1.00  0.00    -0.052 C 
ATOM      5  H   UNL A   1      33.482  29.701  24.918  1.00  0.00     0.027 H 
ATOM      6  H   UNL A   1      34.092  28.065  24.537  1.00  0.00     0.027 H 
BRANCH   4   7
ATOM      7  C   UNL A   1      32.811  28.874  23.082  1.00  0.00    -0.036 C 
ATOM      8  H   UNL A   1      32.429  29.864  22.942  1.00  0.00     0.028 H 
ATOM      9  H   UNL A   1      33.670  28.680  22.474  1.00  0.00     0.028 H 
BRANCH   7  10
ATOM     10  C   UNL A   1      31.733  27.877  22.665  1.00  0.00     0.017 C 
ATOM     11  H   UNL A   1      31.471  27.274  23.509  1.00  0.00     0.049 H 
ATOM     12  H   UNL A   1      30.884  28.426  22.313  1.00  0.00     0.049 H 
BRANCH  10  13
ATOM     13  N   UNL A   1      32.196  27.014  21.592  1.00  0.00    -0.353 N 
ATOM     14  C   UNL A   1      32.643  25.719  21.603  1.00  0.00     0.263 C 
ATOM     15  O   UNL A   1      33.012  25.255  20.521  1.00  0.00    -0.270 OA
ATOM     16  H   UNL A   1      32.189  27.434  20.701  1.00  0.00     0.163 HD
BRANCH  14  17
ATOM     17  C   UNL A   1      32.646  24.890  22.918  1.00  0.00     0.184 C 
ATOM     18  C   UNL A   1      32.783  20.361  24.525  1.00  0.00    -0.002 A 
ATOM     19  C   UNL A   1      32.605  21.278  23.460  1.00  0.00    -0.002 A 
ATOM     20  C   UNL A   1      33.244  20.842  25.767  1.00  0.00     0.122 A 
ATOM     21  C   UNL A   1      32.950  22.628  23.649  1.00  0.00     0.127 A 
ATOM     22  C   UNL A   1      33.606  22.184  25.956  1.00  0.00    -0.002 A 
ATOM     23  C   UNL A   1      33.491  23.075  24.872  1.00  0.00     0.001 A 
ATOM     24  O   UNL A   1      32.721  23.483  22.590  1.00  0.00    -0.477 OA
ATOM     25  C   UNL A   1      33.897  24.513  25.038  1.00  0.00    -0.019 C 
ATOM     26  C   UNL A   1      33.920  25.217  23.702  1.00  0.00     0.000 C 
ATOM     27  H   UNL A   1      34.874  24.554  25.474  1.00  0.00     0.032 H 
ATOM     28  H   UNL A   1      33.188  25.000  25.673  1.00  0.00     0.032 H 
ATOM     29  H   UNL A   1      34.773  24.891  23.144  1.00  0.00     0.032 H 
ATOM     30  H   UNL A   1      33.973  26.273  23.862  1.00  0.00     0.032 H 
BRANCH  18  31
ATOM     31  C   UNL A   1      32.424  18.908  24.343  1.00  0.00    -0.036 C 
ATOM     32  H   UNL A   1      33.270  18.377  23.959  1.00  0.00     0.028 H 
ATOM     33  H   UNL A   1      31.609  18.825  23.657  1.00  0.00     0.028 H 
ATOM     34  H   UNL A   1      32.140  18.490  25.288  1.00  0.00     0.028 H 
ENDBRANCH  18  31
BRANCH  19  35
ATOM     35  C   UNL A   1      32.049  20.816  22.134  1.00  0.00    -0.036 C 
ATOM     36  H   UNL A   1      32.392  19.824  21.929  1.00  0.00     0.028 H 
ATOM     37  H   UNL A   1      32.380  21.476  21.359  1.00  0.00     0.028 H 
ATOM     38  H   UNL A   1      30.979  20.823  22.174  1.00  0.00     0.028 H 
ENDBRANCH  19  35
BRANCH  20  39
ATOM     39  O   UNL A   1      33.357  20.018  26.857  1.00  0.00    -0.507 OA
ATOM     40  H   UNL A   1      34.201  19.716  27.129  1.00  0.00     0.293 HD
ENDBRANCH  20  39
BRANCH  22  41
ATOM     41  C   UNL A   1      34.096  22.681  27.294  1.00  0.00    -0.036 C 
ATOM     42  H   UNL A   1      34.334  21.846  27.919  1.00  0.00     0.028 H 
ATOM     43  H   UNL A   1      33.330  23.267  27.758  1.00  0.00     0.028 H 
ATOM     44  H   UNL A   1      34.968  23.282  27.153  1.00  0.00     0.028 H 
ENDBRANCH  22  41
BRANCH  17  45
ATOM     45  C   UNL A   1      31.278  25.111  23.600  1.00  0.00    -0.016 C 
ATOM     46  H   UNL A   1      31.335  24.799  24.622  1.00  0.00     0.028 H 
ATOM     47  H   UNL A   1      30.530  24.539  23.093  1.00  0.00     0.028 H 
ATOM     48  H   UNL A   1      31.022  26.149  23.557  1.00  0.00     0.028 H 
ENDBRANCH  17  45
ENDBRANCH  14  17
ENDBRANCH  10  13
ENDBRANCH   7  10
ENDBRANCH   4   7
ENDBRANCH   1   4
BRANCH   1  49
ATOM     49  C   UNL A   1      32.632  27.962  26.927  1.00  0.00    -0.036 C 
ATOM     50  H   UNL A   1      32.670  26.921  27.173  1.00  0.00     0.028 H 
ATOM     51  H   UNL A   1      31.911  28.498  27.507  1.00  0.00     0.028 H 
BRANCH  49  52
ATOM     52  C   UNL A   1      33.990  28.577  27.239  1.00  0.00     0.018 C 
ATOM     53  H   UNL A   1      34.593  28.549  26.356  1.00  0.00     0.049 H 
ATOM     54  H   UNL A   1      34.438  28.010  28.029  1.00  0.00     0.049 H 
BRANCH  52  55
ATOM     55  N   UNL A   1      33.871  29.956  27.685  1.00  0.00    -0.352 N 
ATOM     56  C   UNL A   1      34.754  30.711  28.409  1.00  0.00     0.251 C 
ATOM     57  H   UNL A   1      33.036  30.412  27.428  1.00  0.00     0.163 HD
ATOM     58  O   UNL A   1      34.409  31.790  28.885  1.00  0.00    -0.269 OA
BRANCH  56  59
ATOM     59  C   UNL A   1      36.125  30.212  28.632  1.00  0.00     0.039 A 
ATOM     60  C   UNL A   1      37.085  30.404  27.638  1.00  0.00    -0.049 A 
ATOM     61  C   UNL A   1      36.458  29.559  29.824  1.00  0.00    -0.049 A 
ATOM     62  C   UNL A   1      38.398  29.985  27.860  1.00  0.00    -0.053 A 
ATOM     63  H   UNL A   1      36.827  30.851  26.745  1.00  0.00     0.063 H 
ATOM     64  C   UNL A   1      37.781  29.216  30.076  1.00  0.00    -0.053 A 
ATOM     65  H   UNL A   1      35.724  29.334  30.513  1.00  0.00     0.063 H 
ATOM     66  C   UNL A   1      38.760  29.415  29.092  1.00  0.00    -0.014 A 
ATOM     67  H   UNL A   1      39.105  30.095  27.117  1.00  0.00     0.063 H 
ATOM     68  H   UNL A   1      38.043  28.814  30.989  1.00  0.00     0.063 H 
BRANCH  66  69
ATOM     69  C   UNL A   1      40.158  29.000  29.358  1.00  0.00     0.031 A 
ATOM     70  C   UNL A   1      41.066  29.884  30.162  1.00  0.00     0.074 A 
ATOM     71  C   UNL A   1      40.620  27.845  28.840  1.00  0.00     0.049 A 
ATOM     72  N   UNL A   1      42.323  29.709  30.480  1.00  0.00    -0.248 NA
ATOM     73  C   UNL A   1      40.492  31.145  30.656  1.00  0.00    -0.034 C 
ATOM     74  C   UNL A   1      39.842  26.924  28.014  1.00  0.00    -0.036 A 
ATOM     75  N   UNL A   1      41.854  27.252  28.935  1.00  0.00    -0.354 N 
ATOM     76  C   UNL A   1      42.687  30.834  31.206  1.00  0.00     0.074 A 
ATOM     77  C   UNL A   1      41.542  31.718  31.222  1.00  0.00    -0.034 C 
ATOM     78  H   UNL A   1      39.523  31.494  30.580  1.00  0.00     0.065 H 
ATOM     79  C   UNL A   1      40.605  25.862  27.705  1.00  0.00    -0.036 A 
ATOM     80  H   UNL A   1      38.865  27.066  27.714  1.00  0.00     0.065 H 
ATOM     81  C   UNL A   1      41.935  26.048  28.280  1.00  0.00     0.049 A 
ATOM     82  H   UNL A   1      42.608  27.651  29.425  1.00  0.00     0.167 HD
ATOM     83  C   UNL A   1      43.861  31.092  31.830  1.00  0.00     0.037 A 
ATOM     84  H   UNL A   1      41.544  32.670  31.622  1.00  0.00     0.065 H 
ATOM     85  H   UNL A   1      40.300  25.047  27.152  1.00  0.00     0.065 H 
ATOM     86  C   UNL A   1      42.966  25.190  28.156  1.00  0.00     0.037 A 
ATOM     87  C   UNL A   1      44.991  30.201  31.819  1.00  0.00     0.049 A 
ATOM     88  C   UNL A   1      44.273  25.513  28.827  1.00  0.00     0.074 A 
ATOM     89  C   UNL A   1      46.209  30.347  32.459  1.00  0.00    -0.036 A 
ATOM     90  N   UNL A   1      45.043  29.000  31.127  1.00  0.00    -0.354 N 
ATOM     91  N   UNL A   1      44.589  26.550  29.565  1.00  0.00    -0.248 NA
ATOM     92  C   UNL A   1      45.366  24.547  28.650  1.00  0.00    -0.034 C 
ATOM     93  C   UNL A   1      47.019  29.265  32.106  1.00  0.00    -0.036 A 
ATOM     94  H   UNL A   1      46.472  31.122  33.089  1.00  0.00     0.065 H 
ATOM     95  C   UNL A   1      46.286  28.411  31.295  1.00  0.00     0.049 A 
ATOM     96  H   UNL A   1      44.308  28.622  30.594  1.00  0.00     0.167 HD
ATOM     97  C   UNL A   1      45.906  26.355  29.956  1.00  0.00     0.074 A 
ATOM     98  C   UNL A   1      46.325  25.090  29.388  1.00  0.00    -0.034 C 
ATOM     99  H   UNL A   1      45.382  23.675  28.099  1.00  0.00     0.065 H 
ATOM    100  H   UNL A   1      47.999  29.126  32.398  1.00  0.00     0.065 H 
ATOM    101  C   UNL A   1      46.694  27.154  30.718  1.00  0.00     0.037 A 
ATOM    102  H   UNL A   1      47.255  24.666  29.537  1.00  0.00     0.065 H 
BRANCH  83 103
ATOM    103  C   UNL A   1      43.978  32.390  32.578  1.00  0.00     0.064 A 
ATOM    104  C   UNL A   1      43.618  32.495  33.931  1.00  0.00     0.173 A 
ATOM    105  C   UNL A   1      44.484  33.536  31.946  1.00  0.00     0.173 A 
ATOM    106  F   UNL A   1      43.118  31.433  34.581  1.00  0.00    -0.203 F 
ATOM    107  C   UNL A   1      43.729  33.704  34.612  1.00  0.00     0.198 A 
ATOM    108  C   UNL A   1      44.626  34.734  32.639  1.00  0.00     0.198 A 
ATOM    109  F   UNL A   1      44.847  33.491  30.655  1.00  0.00    -0.203 F 
ATOM    110  F   UNL A   1      43.326  33.792  35.887  1.00  0.00    -0.200 F 
ATOM    111  C   UNL A   1      44.241  34.820  33.968  1.00  0.00     0.200 A 
ATOM    112  F   UNL A   1      45.136  35.808  32.021  1.00  0.00    -0.200 F 
ATOM    113  F   UNL A   1      44.355  35.981  34.627  1.00  0.00    -0.200 F 
ENDBRANCH  83 103
BRANCH  86 114
ATOM    114  C   UNL A   1      42.772  23.924  27.403  1.00  0.00     0.064 A 
ATOM    115  C   UNL A   1      43.112  23.839  26.046  1.00  0.00     0.173 A 
ATOM    116  C   UNL A   1      42.304  22.762  28.034  1.00  0.00     0.173 A 
ATOM    117  F   UNL A   1      43.546  24.929  25.395  1.00  0.00    -0.203 F 
ATOM    118  C   UNL A   1      42.998  22.638  25.350  1.00  0.00     0.198 A 
ATOM    119  C   UNL A   1      42.216  21.555  27.343  1.00  0.00     0.198 A 
ATOM    120  F   UNL A   1      41.972  22.790  29.332  1.00  0.00    -0.203 F 
ATOM    121  F   UNL A   1      43.313  22.587  24.049  1.00  0.00    -0.200 F 
ATOM    122  C   UNL A   1      42.561  21.494  26.001  1.00  0.00     0.200 A 
ATOM    123  F   UNL A   1      41.811  20.449  27.982  1.00  0.00    -0.200 F 
ATOM    124  F   UNL A   1      42.475  20.334  25.337  1.00  0.00    -0.200 F 
ENDBRANCH  86 114
BRANCH 101 125
ATOM    125  C   UNL A   1      48.097  26.692  30.991  1.00  0.00     0.064 A 
ATOM    126  C   UNL A   1      48.385  25.801  32.035  1.00  0.00     0.173 A 
ATOM    127  C   UNL A   1      49.151  27.077  30.146  1.00  0.00     0.173 A 
ATOM    128  F   UNL A   1      47.417  25.411  32.876  1.00  0.00    -0.203 F 
ATOM    129  C   UNL A   1      49.679  25.322  32.230  1.00  0.00     0.198 A 
ATOM    130  C   UNL A   1      50.434  26.571  30.325  1.00  0.00     0.198 A 
ATOM    131  F   UNL A   1      48.927  27.922  29.128  1.00  0.00    -0.203 F 
ATOM    132  F   UNL A   1      49.937  24.497  33.254  1.00  0.00    -0.200 F 
ATOM    133  C   UNL A   1      50.699  25.697  31.369  1.00  0.00     0.200 A 
ATOM    134  F   UNL A   1      51.415  26.920  29.480  1.00  0.00    -0.200 F 
ATOM    135  F   UNL A   1      51.937  25.217  31.545  1.00  0.00    -0.200 F 
ENDBRANCH 101 125
ENDBRANCH  66  69
ENDBRANCH  56  59
ENDBRANCH  52  55
ENDBRANCH  49  52
ENDBRANCH   1  49
TORSDOF 18
ENDMDL
MODEL 8
REMARK VINA RESULT:     -12.1      0.330      7.364
REMARK SMILES Cc1c(C)c2c(c(C)c1O)CC[C@@](C)(C(=O)NCCCCCCNC(=O)c1ccc(-c3c4nc(c(-c5c(F)c(F)c(F)c(F)c5F)c5ccc([nH]5)c(-c5c(F)c(F)c(F)c(F)c5F)c5nc(c(-c6c(F)c(F)c(F)c(F)c6F)c6ccc3[nH]6)C=C5)C=C4)cc1)O2
REMARK SMILES IDX 21 1 20 4 19 7 18 10 17 13 15 14 16 15 13 17 2 18 3 19 9 20
REMARK SMILES IDX 5 21 7 22 6 23 90 24 11 25 12 26 1 31 4 35 10 39 8 41 14 45
REMARK SMILES IDX 22 49 23 52 24 55 25 56 26 58 27 59 28 60 89 61 29 62 88 64
REMARK SMILES IDX 30 66 31 69 32 70 82 71 33 72 87 73 81 74 83 75 34 76 86 77
REMARK SMILES IDX 80 79 79 81 35 83 67 86 47 87 66 88 48 89 51 90 65 91 84 92
REMARK SMILES IDX 49 93 50 95 64 97 85 98 52 101 36 103 37 104 45 105 38 106
REMARK SMILES IDX 39 107 43 108 46 109 40 110 41 111 44 112 42 113 68 114
REMARK SMILES IDX 69 115 77 116 70 117 71 118 75 119 78 120 72 121 73 122
REMARK SMILES IDX 76 123 74 124 53 125 54 126 62 127 55 128 56 129 60 130
REMARK SMILES IDX 63 131 57 132 58 133 61 134 59 135
REMARK H PARENT 21 2 21 3 20 5 20 6 19 8 19 9 18 11 18 12 17 16 11 27 11 28
REMARK H PARENT 12 29 12 30 1 32 1 33 1 34 4 36 4 37 4 38 10 40 8 42 8 43 8 44
REMARK H PARENT 14 46 14 47 14 48 22 50 22 51 23 53 23 54 24 57 28 63 89 65
REMARK H PARENT 29 67 88 68 87 78 81 80 83 82 86 84 80 85 48 94 51 96 84 99
REMARK H PARENT 49 100 85 102
REMARK Flexibility Score: inf
ROOT
ATOM      1  C   UNL A   1      31.414  31.013  25.756  1.00  0.00    -0.052 C 
ATOM      2  H   UNL A   1      30.477  30.495  25.755  1.00  0.00     0.027 H 
ATOM      3  H   UNL A   1      31.587  31.579  24.865  1.00  0.00     0.027 H 
ENDROOT
BRANCH   1   4
ATOM      4  C   UNL A   1      32.534  29.970  25.828  1.00  0.00    -0.052 C 
ATOM      5  H   UNL A   1      33.462  30.464  25.632  1.00  0.00     0.027 H 
ATOM      6  H   UNL A   1      32.484  29.539  26.806  1.00  0.00     0.027 H 
BRANCH   4   7
ATOM      7  C   UNL A   1      32.393  28.812  24.838  1.00  0.00    -0.036 C 
ATOM      8  H   UNL A   1      31.744  28.077  25.267  1.00  0.00     0.028 H 
ATOM      9  H   UNL A   1      32.000  29.221  23.930  1.00  0.00     0.028 H 
BRANCH   7  10
ATOM     10  C   UNL A   1      33.719  28.140  24.489  1.00  0.00     0.017 C 
ATOM     11  H   UNL A   1      34.493  28.878  24.490  1.00  0.00     0.049 H 
ATOM     12  H   UNL A   1      33.915  27.383  25.220  1.00  0.00     0.049 H 
BRANCH  10  13
ATOM     13  N   UNL A   1      33.666  27.511  23.181  1.00  0.00    -0.353 N 
ATOM     14  C   UNL A   1      33.529  26.197  22.815  1.00  0.00     0.263 C 
ATOM     15  O   UNL A   1      33.557  25.957  21.605  1.00  0.00    -0.270 OA
ATOM     16  H   UNL A   1      33.743  28.137  22.425  1.00  0.00     0.163 HD
BRANCH  14  17
ATOM     17  C   UNL A   1      33.321  25.091  23.886  1.00  0.00     0.184 C 
ATOM     18  C   UNL A   1      32.732  20.341  24.344  1.00  0.00    -0.002 A 
ATOM     19  C   UNL A   1      32.760  21.499  23.528  1.00  0.00    -0.002 A 
ATOM     20  C   UNL A   1      33.156  20.443  25.684  1.00  0.00     0.122 A 
ATOM     21  C   UNL A   1      33.265  22.701  24.056  1.00  0.00     0.127 A 
ATOM     22  C   UNL A   1      33.677  21.634  26.210  1.00  0.00    -0.002 A 
ATOM     23  C   UNL A   1      33.765  22.762  25.372  1.00  0.00     0.001 A 
ATOM     24  O   UNL A   1      33.233  23.806  23.229  1.00  0.00    -0.477 OA
ATOM     25  C   UNL A   1      34.345  24.045  25.902  1.00  0.00    -0.019 C 
ATOM     26  C   UNL A   1      34.563  25.033  24.781  1.00  0.00     0.000 C 
ATOM     27  H   UNL A   1      35.282  23.838  26.376  1.00  0.00     0.032 H 
ATOM     28  H   UNL A   1      33.660  24.468  26.606  1.00  0.00     0.032 H 
ATOM     29  H   UNL A   1      35.406  24.726  24.197  1.00  0.00     0.032 H 
ATOM     30  H   UNL A   1      34.744  26.001  25.196  1.00  0.00     0.032 H 
BRANCH  18  31
ATOM     31  C   UNL A   1      32.199  19.041  23.798  1.00  0.00    -0.036 C 
ATOM     32  H   UNL A   1      31.186  19.177  23.479  1.00  0.00     0.028 H 
ATOM     33  H   UNL A   1      32.235  18.292  24.560  1.00  0.00     0.028 H 
ATOM     34  H   UNL A   1      32.797  18.732  22.964  1.00  0.00     0.028 H 
ENDBRANCH  18  31
BRANCH  19  35
ATOM     35  C   UNL A   1      32.251  21.450  22.107  1.00  0.00    -0.036 C 
ATOM     36  H   UNL A   1      32.915  21.996  21.471  1.00  0.00     0.028 H 
ATOM     37  H   UNL A   1      31.274  21.886  22.062  1.00  0.00     0.028 H 
ATOM     38  H   UNL A   1      32.202  20.432  21.781  1.00  0.00     0.028 H 
ENDBRANCH  19  35
BRANCH  20  39
ATOM     39  O   UNL A   1      33.075  19.378  26.543  1.00  0.00    -0.507 OA
ATOM     40  H   UNL A   1      33.559  18.596  26.366  1.00  0.00     0.293 HD
ENDBRANCH  20  39
BRANCH  22  41
ATOM     41  C   UNL A   1      34.125  21.724  27.649  1.00  0.00    -0.036 C 
ATOM     42  H   UNL A   1      33.990  20.775  28.124  1.00  0.00     0.028 H 
ATOM     43  H   UNL A   1      33.542  22.464  28.157  1.00  0.00     0.028 H 
ATOM     44  H   UNL A   1      35.158  21.998  27.684  1.00  0.00     0.028 H 
ENDBRANCH  22  41
BRANCH  17  45
ATOM     45  C   UNL A   1      31.947  25.344  24.544  1.00  0.00    -0.016 C 
ATOM     46  H   UNL A   1      31.343  24.465  24.459  1.00  0.00     0.028 H 
ATOM     47  H   UNL A   1      31.460  26.160  24.050  1.00  0.00     0.028 H 
ATOM     48  H   UNL A   1      32.084  25.585  25.577  1.00  0.00     0.028 H 
ENDBRANCH  17  45
ENDBRANCH  14  17
ENDBRANCH  10  13
ENDBRANCH   7  10
ENDBRANCH   4   7
ENDBRANCH   1   4
BRANCH   1  49
ATOM     49  C   UNL A   1      31.398  32.021  26.908  1.00  0.00    -0.036 C 
ATOM     50  H   UNL A   1      31.158  31.496  27.809  1.00  0.00     0.028 H 
ATOM     51  H   UNL A   1      30.671  32.764  26.656  1.00  0.00     0.028 H 
BRANCH  49  52
ATOM     52  C   UNL A   1      32.717  32.752  27.117  1.00  0.00     0.018 C 
ATOM     53  H   UNL A   1      33.249  32.779  26.188  1.00  0.00     0.049 H 
ATOM     54  H   UNL A   1      33.274  32.226  27.865  1.00  0.00     0.049 H 
BRANCH  52  55
ATOM     55  N   UNL A   1      32.514  34.115  27.581  1.00  0.00    -0.352 N 
ATOM     56  C   UNL A   1      33.109  34.773  28.625  1.00  0.00     0.251 C 
ATOM     57  H   UNL A   1      31.855  34.641  27.071  1.00  0.00     0.163 HD
ATOM     58  O   UNL A   1      32.670  35.851  29.015  1.00  0.00    -0.269 OA
BRANCH  56  59
ATOM     59  C   UNL A   1      34.277  34.167  29.294  1.00  0.00     0.039 A 
ATOM     60  C   UNL A   1      34.066  33.245  30.320  1.00  0.00    -0.049 A 
ATOM     61  C   UNL A   1      35.576  34.511  28.905  1.00  0.00    -0.049 A 
ATOM     62  C   UNL A   1      35.161  32.625  30.923  1.00  0.00    -0.053 A 
ATOM     63  H   UNL A   1      33.108  33.022  30.631  1.00  0.00     0.063 H 
ATOM     64  C   UNL A   1      36.661  33.835  29.450  1.00  0.00    -0.053 A 
ATOM     65  H   UNL A   1      35.728  35.263  28.216  1.00  0.00     0.063 H 
ATOM     66  C   UNL A   1      36.464  32.894  30.472  1.00  0.00    -0.014 A 
ATOM     67  H   UNL A   1      35.013  31.966  31.703  1.00  0.00     0.063 H 
ATOM     68  H   UNL A   1      37.613  34.025  29.102  1.00  0.00     0.063 H 
BRANCH  66  69
ATOM     69  C   UNL A   1      37.636  32.216  31.077  1.00  0.00     0.031 A 
ATOM     70  C   UNL A   1      38.108  32.607  32.447  1.00  0.00     0.074 A 
ATOM     71  C   UNL A   1      38.296  31.276  30.374  1.00  0.00     0.049 A 
ATOM     72  N   UNL A   1      39.124  32.150  33.133  1.00  0.00    -0.248 NA
ATOM     73  C   UNL A   1      37.352  33.670  33.127  1.00  0.00    -0.034 C 
ATOM     74  C   UNL A   1      37.952  30.840  29.021  1.00  0.00    -0.036 A 
ATOM     75  N   UNL A   1      39.393  30.520  30.701  1.00  0.00    -0.354 N 
ATOM     76  C   UNL A   1      39.128  32.870  34.320  1.00  0.00     0.074 A 
ATOM     77  C   UNL A   1      38.060  33.841  34.232  1.00  0.00    -0.034 C 
ATOM     78  H   UNL A   1      36.494  34.156  32.822  1.00  0.00     0.065 H 
ATOM     79  C   UNL A   1      38.798  29.867  28.647  1.00  0.00    -0.036 A 
ATOM     80  H   UNL A   1      37.184  31.219  28.446  1.00  0.00     0.065 H 
ATOM     81  C   UNL A   1      39.766  29.639  29.717  1.00  0.00     0.049 A 
ATOM     82  H   UNL A   1      39.867  30.600  31.560  1.00  0.00     0.167 HD
ATOM     83  C   UNL A   1      39.932  32.712  35.399  1.00  0.00     0.037 A 
ATOM     84  H   UNL A   1      37.874  34.570  34.939  1.00  0.00     0.065 H 
ATOM     85  H   UNL A   1      38.768  29.361  27.748  1.00  0.00     0.065 H 
ATOM     86  C   UNL A   1      40.775  28.747  29.680  1.00  0.00     0.037 A 
ATOM     87  C   UNL A   1      40.985  31.735  35.482  1.00  0.00     0.049 A 
ATOM     88  C   UNL A   1      41.679  28.613  30.875  1.00  0.00     0.074 A 
ATOM     89  C   UNL A   1      41.824  31.462  36.547  1.00  0.00    -0.036 A 
ATOM     90  N   UNL A   1      41.347  30.874  34.456  1.00  0.00    -0.354 N 
ATOM     91  N   UNL A   1      41.636  29.253  32.018  1.00  0.00    -0.248 NA
ATOM     92  C   UNL A   1      42.769  27.632  30.776  1.00  0.00    -0.034 C 
ATOM     93  C   UNL A   1      42.733  30.479  36.145  1.00  0.00    -0.036 A 
ATOM     94  H   UNL A   1      41.786  31.908  37.478  1.00  0.00     0.065 H 
ATOM     95  C   UNL A   1      42.421  30.093  34.850  1.00  0.00     0.049 A 
ATOM     96  H   UNL A   1      40.907  30.825  33.577  1.00  0.00     0.167 HD
ATOM     97  C   UNL A   1      42.677  28.743  32.782  1.00  0.00     0.074 A 
ATOM     98  C   UNL A   1      43.323  27.726  31.977  1.00  0.00    -0.034 C 
ATOM     99  H   UNL A   1      43.032  27.029  29.982  1.00  0.00     0.065 H 
ATOM    100  H   UNL A   1      43.506  30.105  36.716  1.00  0.00     0.065 H 
ATOM    101  C   UNL A   1      43.061  29.088  34.036  1.00  0.00     0.037 A 
ATOM    102  H   UNL A   1      44.117  27.149  32.298  1.00  0.00     0.065 H 
BRANCH  83 103
ATOM    103  C   UNL A   1      39.699  33.617  36.575  1.00  0.00     0.064 A 
ATOM    104  C   UNL A   1      40.299  34.883  36.659  1.00  0.00     0.173 A 
ATOM    105  C   UNL A   1      38.843  33.228  37.617  1.00  0.00     0.173 A 
ATOM    106  F   UNL A   1      41.135  35.300  35.696  1.00  0.00    -0.203 F 
ATOM    107  C   UNL A   1      40.076  35.711  37.756  1.00  0.00     0.198 A 
ATOM    108  C   UNL A   1      38.596  34.073  38.695  1.00  0.00     0.198 A 
ATOM    109  F   UNL A   1      38.240  32.030  37.586  1.00  0.00    -0.203 F 
ATOM    110  F   UNL A   1      40.706  36.892  37.840  1.00  0.00    -0.200 F 
ATOM    111  C   UNL A   1      39.220  35.310  38.769  1.00  0.00     0.200 A 
ATOM    112  F   UNL A   1      37.755  33.690  39.666  1.00  0.00    -0.200 F 
ATOM    113  F   UNL A   1      39.000  36.111  39.820  1.00  0.00    -0.200 F 
ENDBRANCH  83 103
BRANCH  86 114
ATOM    114  C   UNL A   1      40.939  27.884  28.482  1.00  0.00     0.064 A 
ATOM    115  C   UNL A   1      40.265  26.660  28.383  1.00  0.00     0.173 A 
ATOM    116  C   UNL A   1      41.718  28.291  27.389  1.00  0.00     0.173 A 
ATOM    117  F   UNL A   1      39.523  26.219  29.410  1.00  0.00    -0.203 F 
ATOM    118  C   UNL A   1      40.359  25.877  27.234  1.00  0.00     0.198 A 
ATOM    119  C   UNL A   1      41.790  27.520  26.230  1.00  0.00     0.198 A 
ATOM    120  F   UNL A   1      42.377  29.458  27.431  1.00  0.00    -0.203 F 
ATOM    121  F   UNL A   1      39.719  24.702  27.172  1.00  0.00    -0.200 F 
ATOM    122  C   UNL A   1      41.112  26.313  26.154  1.00  0.00     0.200 A 
ATOM    123  F   UNL A   1      42.503  27.956  25.182  1.00  0.00    -0.200 F 
ATOM    124  F   UNL A   1      41.182  25.572  25.040  1.00  0.00    -0.200 F 
ENDBRANCH  86 114
BRANCH 101 125
ATOM    125  C   UNL A   1      44.234  28.364  34.631  1.00  0.00     0.064 A 
ATOM    126  C   UNL A   1      45.534  28.885  34.552  1.00  0.00     0.173 A 
ATOM    127  C   UNL A   1      44.044  27.179  35.362  1.00  0.00     0.173 A 
ATOM    128  F   UNL A   1      45.770  30.006  33.856  1.00  0.00    -0.203 F 
ATOM    129  C   UNL A   1      46.602  28.240  35.173  1.00  0.00     0.198 A 
ATOM    130  C   UNL A   1      45.108  26.557  36.007  1.00  0.00     0.198 A 
ATOM    131  F   UNL A   1      42.819  26.644  35.475  1.00  0.00    -0.203 F 
ATOM    132  F   UNL A   1      47.841  28.738  35.056  1.00  0.00    -0.200 F 
ATOM    133  C   UNL A   1      46.387  27.086  35.909  1.00  0.00     0.200 A 
ATOM    134  F   UNL A   1      44.895  25.452  36.736  1.00  0.00    -0.200 F 
ATOM    135  F   UNL A   1      47.412  26.481  36.525  1.00  0.00    -0.200 F 
ENDBRANCH 101 125
ENDBRANCH  66  69
ENDBRANCH  56  59
ENDBRANCH  52  55
ENDBRANCH  49  52
ENDBRANCH   1  49
TORSDOF 18
ENDMDL
MODEL 9
REMARK VINA RESULT:     -12.1      0.374      1.188
REMARK SMILES Cc1c(C)c2c(c(C)c1O)CC[C@@](C)(C(=O)NCCCCCCNC(=O)c1ccc(-c3c4nc(c(-c5c(F)c(F)c(F)c(F)c5F)c5ccc([nH]5)c(-c5c(F)c(F)c(F)c(F)c5F)c5nc(c(-c6c(F)c(F)c(F)c(F)c6F)c6ccc3[nH]6)C=C5)C=C4)cc1)O2
REMARK SMILES IDX 21 1 20 4 19 7 18 10 17 13 15 14 16 15 13 17 2 18 3 19 9 20
REMARK SMILES IDX 5 21 7 22 6 23 90 24 11 25 12 26 1 31 4 35 10 39 8 41 14 45
REMARK SMILES IDX 22 49 23 52 24 55 25 56 26 58 27 59 28 60 89 61 29 62 88 64
REMARK SMILES IDX 30 66 31 69 32 70 82 71 33 72 87 73 81 74 83 75 34 76 86 77
REMARK SMILES IDX 80 79 79 81 35 83 67 86 47 87 66 88 48 89 51 90 65 91 84 92
REMARK SMILES IDX 49 93 50 95 64 97 85 98 52 101 36 103 37 104 45 105 38 106
REMARK SMILES IDX 39 107 43 108 46 109 40 110 41 111 44 112 42 113 68 114
REMARK SMILES IDX 69 115 77 116 70 117 71 118 75 119 78 120 72 121 73 122
REMARK SMILES IDX 76 123 74 124 53 125 54 126 62 127 55 128 56 129 60 130
REMARK SMILES IDX 63 131 57 132 58 133 61 134 59 135
REMARK H PARENT 21 2 21 3 20 5 20 6 19 8 19 9 18 11 18 12 17 16 11 27 11 28
REMARK H PARENT 12 29 12 30 1 32 1 33 1 34 4 36 4 37 4 38 10 40 8 42 8 43 8 44
REMARK H PARENT 14 46 14 47 14 48 22 50 22 51 23 53 23 54 24 57 28 63 89 65
REMARK H PARENT 29 67 88 68 87 78 81 80 83 82 86 84 80 85 48 94 51 96 84 99
REMARK H PARENT 49 100 85 102
REMARK Flexibility Score: inf
ROOT
ATOM      1  C   UNL A   1      31.476  30.773  26.210  1.00  0.00    -0.052 C 
ATOM      2  H   UNL A   1      30.862  30.252  26.915  1.00  0.00     0.027 H 
ATOM      3  H   UNL A   1      31.151  30.658  25.197  1.00  0.00     0.027 H 
ENDROOT
BRANCH   1   4
ATOM      4  C   UNL A   1      32.887  30.180  26.279  1.00  0.00    -0.052 C 
ATOM      5  H   UNL A   1      33.590  30.984  26.217  1.00  0.00     0.027 H 
ATOM      6  H   UNL A   1      32.945  29.640  27.201  1.00  0.00     0.027 H 
BRANCH   4   7
ATOM      7  C   UNL A   1      33.213  29.176  25.170  1.00  0.00    -0.036 C 
ATOM      8  H   UNL A   1      33.612  29.713  24.335  1.00  0.00     0.028 H 
ATOM      9  H   UNL A   1      33.914  28.477  25.576  1.00  0.00     0.028 H 
BRANCH   7  10
ATOM     10  C   UNL A   1      32.003  28.375  24.696  1.00  0.00     0.017 C 
ATOM     11  H   UNL A   1      31.801  27.600  25.404  1.00  0.00     0.049 H 
ATOM     12  H   UNL A   1      31.170  29.041  24.614  1.00  0.00     0.049 H 
BRANCH  10  13
ATOM     13  N   UNL A   1      32.241  27.777  23.395  1.00  0.00    -0.353 N 
ATOM     14  C   UNL A   1      32.491  26.480  23.027  1.00  0.00     0.263 C 
ATOM     15  O   UNL A   1      32.695  26.278  21.827  1.00  0.00    -0.270 OA
ATOM     16  H   UNL A   1      32.221  28.414  22.644  1.00  0.00     0.163 HD
BRANCH  14  17
ATOM     17  C   UNL A   1      32.484  25.340  24.083  1.00  0.00     0.184 C 
ATOM     18  C   UNL A   1      32.771  20.557  24.475  1.00  0.00    -0.002 A 
ATOM     19  C   UNL A   1      32.590  21.712  23.674  1.00  0.00    -0.002 A 
ATOM     20  C   UNL A   1      33.163  20.716  25.819  1.00  0.00     0.122 A 
ATOM     21  C   UNL A   1      32.865  22.978  24.221  1.00  0.00     0.127 A 
ATOM     22  C   UNL A   1      33.455  21.974  26.365  1.00  0.00    -0.002 A 
ATOM     23  C   UNL A   1      33.338  23.111  25.542  1.00  0.00     0.001 A 
ATOM     24  O   UNL A   1      32.636  24.070  23.408  1.00  0.00    -0.477 OA
ATOM     25  C   UNL A   1      33.671  24.470  26.092  1.00  0.00    -0.019 C 
ATOM     26  C   UNL A   1      33.711  25.497  24.985  1.00  0.00     0.000 C 
ATOM     27  H   UNL A   1      34.628  24.432  26.571  1.00  0.00     0.032 H 
ATOM     28  H   UNL A   1      32.917  24.751  26.797  1.00  0.00     0.032 H 
ATOM     29  H   UNL A   1      34.599  25.358  24.404  1.00  0.00     0.032 H 
ATOM     30  H   UNL A   1      33.709  26.477  25.414  1.00  0.00     0.032 H 
BRANCH  18  31
ATOM     31  C   UNL A   1      32.488  19.189  23.908  1.00  0.00    -0.036 C 
ATOM     32  H   UNL A   1      32.376  19.259  22.846  1.00  0.00     0.028 H 
ATOM     33  H   UNL A   1      31.586  18.805  24.336  1.00  0.00     0.028 H 
ATOM     34  H   UNL A   1      33.301  18.531  24.139  1.00  0.00     0.028 H 
ENDBRANCH  18  31
BRANCH  19  35
ATOM     35  C   UNL A   1      32.106  21.590  22.249  1.00  0.00    -0.036 C 
ATOM     36  H   UNL A   1      31.236  22.196  22.114  1.00  0.00     0.028 H 
ATOM     37  H   UNL A   1      31.866  20.569  22.039  1.00  0.00     0.028 H 
ATOM     38  H   UNL A   1      32.877  21.919  21.581  1.00  0.00     0.028 H 
ENDBRANCH  19  35
BRANCH  20  39
ATOM     39  O   UNL A   1      33.273  19.641  26.664  1.00  0.00    -0.507 OA
ATOM     40  H   UNL A   1      33.532  19.772  27.555  1.00  0.00     0.293 HD
ENDBRANCH  20  39
BRANCH  22  41
ATOM     41  C   UNL A   1      33.871  22.125  27.807  1.00  0.00    -0.036 C 
ATOM     42  H   UNL A   1      33.268  21.488  28.420  1.00  0.00     0.028 H 
ATOM     43  H   UNL A   1      33.738  23.142  28.112  1.00  0.00     0.028 H 
ATOM     44  H   UNL A   1      34.899  21.852  27.912  1.00  0.00     0.028 H 
ENDBRANCH  22  41
BRANCH  17  45
ATOM     45  C   UNL A   1      31.083  25.328  24.733  1.00  0.00    -0.016 C 
ATOM     46  H   UNL A   1      31.044  26.062  25.509  1.00  0.00     0.028 H 
ATOM     47  H   UNL A   1      30.890  24.360  25.147  1.00  0.00     0.028 H 
ATOM     48  H   UNL A   1      30.344  25.552  23.992  1.00  0.00     0.028 H 
ENDBRANCH  17  45
ENDBRANCH  14  17
ENDBRANCH  10  13
ENDBRANCH   7  10
ENDBRANCH   4   7
ENDBRANCH   1   4
BRANCH   1  49
ATOM     49  C   UNL A   1      31.391  32.269  26.521  1.00  0.00    -0.036 C 
ATOM     50  H   UNL A   1      30.521  32.439  27.120  1.00  0.00     0.028 H 
ATOM     51  H   UNL A   1      31.351  32.777  25.580  1.00  0.00     0.028 H 
BRANCH  49  52
ATOM     52  C   UNL A   1      32.599  32.823  27.265  1.00  0.00     0.018 C 
ATOM     53  H   UNL A   1      33.460  32.747  26.633  1.00  0.00     0.049 H 
ATOM     54  H   UNL A   1      32.728  32.251  28.161  1.00  0.00     0.049 H 
BRANCH  52  55
ATOM     55  N   UNL A   1      32.413  34.215  27.641  1.00  0.00    -0.352 N 
ATOM     56  C   UNL A   1      33.011  34.928  28.646  1.00  0.00     0.251 C 
ATOM     57  H   UNL A   1      31.766  34.717  27.094  1.00  0.00     0.163 HD
ATOM     58  O   UNL A   1      32.585  36.036  28.964  1.00  0.00    -0.269 OA
BRANCH  56  59
ATOM     59  C   UNL A   1      34.165  34.349  29.362  1.00  0.00     0.039 A 
ATOM     60  C   UNL A   1      33.940  33.618  30.529  1.00  0.00    -0.049 A 
ATOM     61  C   UNL A   1      35.465  34.528  28.876  1.00  0.00    -0.049 A 
ATOM     62  C   UNL A   1      35.017  33.020  31.184  1.00  0.00    -0.053 A 
ATOM     63  H   UNL A   1      32.984  33.520  30.905  1.00  0.00     0.063 H 
ATOM     64  C   UNL A   1      36.525  33.867  29.483  1.00  0.00    -0.053 A 
ATOM     65  H   UNL A   1      35.635  35.150  28.070  1.00  0.00     0.063 H 
ATOM     66  C   UNL A   1      36.312  33.116  30.649  1.00  0.00    -0.014 A 
ATOM     67  H   UNL A   1      34.861  32.505  32.063  1.00  0.00     0.063 H 
ATOM     68  H   UNL A   1      37.470  33.927  29.075  1.00  0.00     0.063 H 
BRANCH  66  69
ATOM     69  C   UNL A   1      37.462  32.454  31.312  1.00  0.00     0.031 A 
ATOM     70  C   UNL A   1      38.190  31.338  30.620  1.00  0.00     0.074 A 
ATOM     71  C   UNL A   1      37.823  32.833  32.553  1.00  0.00     0.049 A 
ATOM     72  N   UNL A   1      39.198  30.621  31.044  1.00  0.00    -0.248 NA
ATOM     73  C   UNL A   1      37.704  30.962  29.283  1.00  0.00    -0.034 C 
ATOM     74  C   UNL A   1      37.168  33.879  33.337  1.00  0.00    -0.036 A 
ATOM     75  N   UNL A   1      38.829  32.382  33.369  1.00  0.00    -0.354 N 
ATOM     76  C   UNL A   1      39.464  29.712  30.029  1.00  0.00     0.074 A 
ATOM     77  C   UNL A   1      38.468  29.919  29.001  1.00  0.00    -0.034 C 
ATOM     78  H   UNL A   1      36.960  31.397  28.714  1.00  0.00     0.065 H 
ATOM     79  C   UNL A   1      37.811  34.015  34.508  1.00  0.00    -0.036 A 
ATOM     80  H   UNL A   1      36.344  34.424  33.040  1.00  0.00     0.065 H 
ATOM     81  C   UNL A   1      38.897  33.041  34.571  1.00  0.00     0.049 A 
ATOM     82  H   UNL A   1      39.443  31.655  33.117  1.00  0.00     0.167 HD
ATOM     83  C   UNL A   1      40.469  28.807  29.949  1.00  0.00     0.037 A 
ATOM     84  H   UNL A   1      38.368  29.331  28.158  1.00  0.00     0.065 H 
ATOM     85  H   UNL A   1      37.576  34.699  35.244  1.00  0.00     0.065 H 
ATOM     86  C   UNL A   1      39.742  32.879  35.608  1.00  0.00     0.037 A 
ATOM     87  C   UNL A   1      41.462  28.615  30.972  1.00  0.00     0.049 A 
ATOM     88  C   UNL A   1      40.828  31.843  35.515  1.00  0.00     0.074 A 
ATOM     89  C   UNL A   1      42.549  27.759  30.968  1.00  0.00    -0.036 A 
ATOM     90  N   UNL A   1      41.487  29.287  32.186  1.00  0.00    -0.354 N 
ATOM     91  N   UNL A   1      41.111  31.030  34.525  1.00  0.00    -0.248 NA
ATOM     92  C   UNL A   1      41.713  31.702  36.679  1.00  0.00    -0.034 C 
ATOM     93  C   UNL A   1      43.195  27.868  32.202  1.00  0.00    -0.036 A 
ATOM     94  H   UNL A   1      42.832  27.145  30.187  1.00  0.00     0.065 H 
ATOM     95  C   UNL A   1      42.550  28.839  32.954  1.00  0.00     0.049 A 
ATOM     96  H   UNL A   1      40.844  29.979  32.462  1.00  0.00     0.167 HD
ATOM     97  C   UNL A   1      42.215  30.296  34.936  1.00  0.00     0.074 A 
ATOM     98  C   UNL A   1      42.561  30.772  36.260  1.00  0.00    -0.034 C 
ATOM     99  H   UNL A   1      41.683  32.196  37.584  1.00  0.00     0.065 H 
ATOM    100  H   UNL A   1      44.014  27.319  32.504  1.00  0.00     0.065 H 
ATOM    101  C   UNL A   1      42.879  29.316  34.274  1.00  0.00     0.037 A 
ATOM    102  H   UNL A   1      43.366  30.429  36.808  1.00  0.00     0.065 H 
BRANCH  83 103
ATOM    103  C   UNL A   1      40.541  27.958  28.712  1.00  0.00     0.064 A 
ATOM    104  C   UNL A   1      41.291  28.351  27.593  1.00  0.00     0.173 A 
ATOM    105  C   UNL A   1      39.877  26.724  28.653  1.00  0.00     0.173 A 
ATOM    106  F   UNL A   1      41.936  29.528  27.591  1.00  0.00    -0.203 F 
ATOM    107  C   UNL A   1      41.347  27.556  26.451  1.00  0.00     0.198 A 
ATOM    108  C   UNL A   1      39.964  25.915  27.523  1.00  0.00     0.198 A 
ATOM    109  F   UNL A   1      39.148  26.296  29.696  1.00  0.00    -0.203 F 
ATOM    110  F   UNL A   1      42.025  27.980  25.375  1.00  0.00    -0.200 F 
ATOM    111  C   UNL A   1      40.691  26.336  26.420  1.00  0.00     0.200 A 
ATOM    112  F   UNL A   1      39.342  24.728  27.500  1.00  0.00    -0.200 F 
ATOM    113  F   UNL A   1      40.753  25.568  25.323  1.00  0.00    -0.200 F 
ENDBRANCH  83 103
BRANCH  86 114
ATOM    114  C   UNL A   1      39.609  33.759  36.798  1.00  0.00     0.064 A 
ATOM    115  C   UNL A   1      40.210  35.025  36.822  1.00  0.00     0.173 A 
ATOM    116  C   UNL A   1      38.831  33.384  37.903  1.00  0.00     0.173 A 
ATOM    117  F   UNL A   1      40.978  35.421  35.796  1.00  0.00    -0.203 F 
ATOM    118  C   UNL A   1      40.034  35.884  37.905  1.00  0.00     0.198 A 
ATOM    119  C   UNL A   1      38.634  34.255  38.973  1.00  0.00     0.198 A 
ATOM    120  F   UNL A   1      38.230  32.185  37.925  1.00  0.00    -0.203 F 
ATOM    121  F   UNL A   1      40.633  37.083  37.910  1.00  0.00    -0.200 F 
ATOM    122  C   UNL A   1      39.237  35.504  38.974  1.00  0.00     0.200 A 
ATOM    123  F   UNL A   1      37.848  33.889  39.995  1.00  0.00    -0.200 F 
ATOM    124  F   UNL A   1      39.047  36.340  40.003  1.00  0.00    -0.200 F 
ENDBRANCH  86 114
BRANCH 101 125
ATOM    125  C   UNL A   1      44.056  28.684  34.962  1.00  0.00     0.064 A 
ATOM    126  C   UNL A   1      45.342  29.235  34.869  1.00  0.00     0.173 A 
ATOM    127  C   UNL A   1      43.878  27.566  35.794  1.00  0.00     0.173 A 
ATOM    128  F   UNL A   1      45.566  30.295  34.079  1.00  0.00    -0.203 F 
ATOM    129  C   UNL A   1      46.410  28.682  35.573  1.00  0.00     0.198 A 
ATOM    130  C   UNL A   1      44.941  27.038  36.520  1.00  0.00     0.198 A 
ATOM    131  F   UNL A   1      42.666  27.006  35.924  1.00  0.00    -0.203 F 
ATOM    132  F   UNL A   1      47.637  29.205  35.442  1.00  0.00    -0.200 F 
ATOM    133  C   UNL A   1      46.206  27.593  36.406  1.00  0.00     0.200 A 
ATOM    134  F   UNL A   1      44.738  25.997  37.341  1.00  0.00    -0.200 F 
ATOM    135  F   UNL A   1      47.230  27.078  37.101  1.00  0.00    -0.200 F 
ENDBRANCH 101 125
ENDBRANCH  66  69
ENDBRANCH  56  59
ENDBRANCH  52  55
ENDBRANCH  49  52
ENDBRANCH   1  49
TORSDOF 18
ENDMDL
MODEL 10
REMARK VINA RESULT:     -12.0      1.726      7.573
REMARK SMILES Cc1c(C)c2c(c(C)c1O)CC[C@@](C)(C(=O)NCCCCCCNC(=O)c1ccc(-c3c4nc(c(-c5c(F)c(F)c(F)c(F)c5F)c5ccc([nH]5)c(-c5c(F)c(F)c(F)c(F)c5F)c5nc(c(-c6c(F)c(F)c(F)c(F)c6F)c6ccc3[nH]6)C=C5)C=C4)cc1)O2
REMARK SMILES IDX 21 1 20 4 19 7 18 10 17 13 15 14 16 15 13 17 2 18 3 19 9 20
REMARK SMILES IDX 5 21 7 22 6 23 90 24 11 25 12 26 1 31 4 35 10 39 8 41 14 45
REMARK SMILES IDX 22 49 23 52 24 55 25 56 26 58 27 59 28 60 89 61 29 62 88 64
REMARK SMILES IDX 30 66 31 69 32 70 82 71 33 72 87 73 81 74 83 75 34 76 86 77
REMARK SMILES IDX 80 79 79 81 35 83 67 86 47 87 66 88 48 89 51 90 65 91 84 92
REMARK SMILES IDX 49 93 50 95 64 97 85 98 52 101 36 103 37 104 45 105 38 106
REMARK SMILES IDX 39 107 43 108 46 109 40 110 41 111 44 112 42 113 68 114
REMARK SMILES IDX 69 115 77 116 70 117 71 118 75 119 78 120 72 121 73 122
REMARK SMILES IDX 76 123 74 124 53 125 54 126 62 127 55 128 56 129 60 130
REMARK SMILES IDX 63 131 57 132 58 133 61 134 59 135
REMARK H PARENT 21 2 21 3 20 5 20 6 19 8 19 9 18 11 18 12 17 16 11 27 11 28
REMARK H PARENT 12 29 12 30 1 32 1 33 1 34 4 36 4 37 4 38 10 40 8 42 8 43 8 44
REMARK H PARENT 14 46 14 47 14 48 22 50 22 51 23 53 23 54 24 57 28 63 89 65
REMARK H PARENT 29 67 88 68 87 78 81 80 83 82 86 84 80 85 48 94 51 96 84 99
REMARK H PARENT 49 100 85 102
REMARK Flexibility Score: inf
ROOT
ATOM      1  C   UNL A   1      31.179  28.189  25.201  1.00  0.00    -0.052 C 
ATOM      2  H   UNL A   1      31.925  27.535  24.802  1.00  0.00     0.027 H 
ATOM      3  H   UNL A   1      30.321  27.673  25.580  1.00  0.00     0.027 H 
ENDROOT
BRANCH   1   4
ATOM      4  C   UNL A   1      30.674  29.085  24.064  1.00  0.00    -0.052 C 
ATOM      5  H   UNL A   1      29.615  28.955  23.983  1.00  0.00     0.027 H 
ATOM      6  H   UNL A   1      30.958  30.085  24.317  1.00  0.00     0.027 H 
BRANCH   4   7
ATOM      7  C   UNL A   1      31.296  28.792  22.697  1.00  0.00    -0.036 C 
ATOM      8  H   UNL A   1      30.584  28.249  22.111  1.00  0.00     0.028 H 
ATOM      9  H   UNL A   1      31.548  29.735  22.259  1.00  0.00     0.028 H 
BRANCH   7  10
ATOM     10  C   UNL A   1      32.583  27.975  22.773  1.00  0.00     0.017 C 
ATOM     11  H   UNL A   1      33.419  28.641  22.755  1.00  0.00     0.049 H 
ATOM     12  H   UNL A   1      32.569  27.408  23.680  1.00  0.00     0.049 H 
BRANCH  10  13
ATOM     13  N   UNL A   1      32.690  27.051  21.658  1.00  0.00    -0.353 N 
ATOM     14  C   UNL A   1      32.799  25.685  21.623  1.00  0.00     0.263 C 
ATOM     15  O   UNL A   1      32.914  25.171  20.507  1.00  0.00    -0.270 OA
ATOM     16  H   UNL A   1      32.686  27.481  20.771  1.00  0.00     0.163 HD
BRANCH  14  17
ATOM     17  C   UNL A   1      32.747  24.850  22.931  1.00  0.00     0.184 C 
ATOM     18  C   UNL A   1      32.794  20.312  24.519  1.00  0.00    -0.002 A 
ATOM     19  C   UNL A   1      32.662  21.235  23.452  1.00  0.00    -0.002 A 
ATOM     20  C   UNL A   1      33.211  20.784  25.779  1.00  0.00     0.122 A 
ATOM     21  C   UNL A   1      33.009  22.583  23.662  1.00  0.00     0.127 A 
ATOM     22  C   UNL A   1      33.575  22.122  25.989  1.00  0.00    -0.002 A 
ATOM     23  C   UNL A   1      33.506  23.019  24.906  1.00  0.00     0.001 A 
ATOM     24  O   UNL A   1      32.825  23.444  22.600  1.00  0.00    -0.477 OA
ATOM     25  C   UNL A   1      33.916  24.453  25.095  1.00  0.00    -0.019 C 
ATOM     26  C   UNL A   1      33.993  25.164  23.765  1.00  0.00     0.000 C 
ATOM     27  H   UNL A   1      34.876  24.486  25.568  1.00  0.00     0.032 H 
ATOM     28  H   UNL A   1      33.186  24.943  25.706  1.00  0.00     0.032 H 
ATOM     29  H   UNL A   1      34.864  24.836  23.237  1.00  0.00     0.032 H 
ATOM     30  H   UNL A   1      34.047  26.219  23.932  1.00  0.00     0.032 H 
BRANCH  18  31
ATOM     31  C   UNL A   1      32.433  18.862  24.316  1.00  0.00    -0.036 C 
ATOM     32  H   UNL A   1      32.435  18.358  25.260  1.00  0.00     0.028 H 
ATOM     33  H   UNL A   1      33.147  18.404  23.666  1.00  0.00     0.028 H 
ATOM     34  H   UNL A   1      31.457  18.796  23.879  1.00  0.00     0.028 H 
ENDBRANCH  18  31
BRANCH  19  35
ATOM     35  C   UNL A   1      32.153  20.784  22.104  1.00  0.00    -0.036 C 
ATOM     36  H   UNL A   1      32.316  19.733  21.994  1.00  0.00     0.028 H 
ATOM     37  H   UNL A   1      32.675  21.310  21.331  1.00  0.00     0.028 H 
ATOM     38  H   UNL A   1      31.105  20.992  22.031  1.00  0.00     0.028 H 
ENDBRANCH  19  35
BRANCH  20  39
ATOM     39  O   UNL A   1      33.278  19.953  26.868  1.00  0.00    -0.507 OA
ATOM     40  H   UNL A   1      34.102  19.791  27.283  1.00  0.00     0.293 HD
ENDBRANCH  20  39
BRANCH  22  41
ATOM     41  C   UNL A   1      34.017  22.609  27.347  1.00  0.00    -0.036 C 
ATOM     42  H   UNL A   1      34.509  21.814  27.868  1.00  0.00     0.028 H 
ATOM     43  H   UNL A   1      33.162  22.928  27.907  1.00  0.00     0.028 H 
ATOM     44  H   UNL A   1      34.692  23.430  27.229  1.00  0.00     0.028 H 
ENDBRANCH  22  41
BRANCH  17  45
ATOM     45  C   UNL A   1      31.356  25.077  23.564  1.00  0.00    -0.016 C 
ATOM     46  H   UNL A   1      30.713  24.260  23.313  1.00  0.00     0.028 H 
ATOM     47  H   UNL A   1      30.938  25.988  23.188  1.00  0.00     0.028 H 
ATOM     48  H   UNL A   1      31.454  25.142  24.627  1.00  0.00     0.028 H 
ENDBRANCH  17  45
ENDBRANCH  14  17
ENDBRANCH  10  13
ENDBRANCH   7  10
ENDBRANCH   4   7
ENDBRANCH   1   4
BRANCH   1  49
ATOM     49  C   UNL A   1      31.789  28.939  26.388  1.00  0.00    -0.036 C 
ATOM     50  H   UNL A   1      32.096  28.218  27.117  1.00  0.00     0.028 H 
ATOM     51  H   UNL A   1      31.033  29.602  26.754  1.00  0.00     0.028 H 
BRANCH  49  52
ATOM     52  C   UNL A   1      32.992  29.802  26.031  1.00  0.00     0.018 C 
ATOM     53  H   UNL A   1      33.168  29.731  24.977  1.00  0.00     0.049 H 
ATOM     54  H   UNL A   1      33.834  29.444  26.587  1.00  0.00     0.049 H 
BRANCH  52  55
ATOM     55  N   UNL A   1      32.781  31.197  26.379  1.00  0.00    -0.352 N 
ATOM     56  C   UNL A   1      33.435  31.968  27.304  1.00  0.00     0.251 C 
ATOM     57  H   UNL A   1      32.066  31.654  25.878  1.00  0.00     0.163 HD
ATOM     58  O   UNL A   1      32.992  33.067  27.626  1.00  0.00    -0.269 OA
BRANCH  56  59
ATOM     59  C   UNL A   1      34.672  31.460  27.929  1.00  0.00     0.039 A 
ATOM     60  C   UNL A   1      35.759  32.322  28.076  1.00  0.00    -0.049 A 
ATOM     61  C   UNL A   1      34.752  30.135  28.371  1.00  0.00    -0.049 A 
ATOM     62  C   UNL A   1      36.914  31.869  28.714  1.00  0.00    -0.053 A 
ATOM     63  H   UNL A   1      35.710  33.287  27.715  1.00  0.00     0.063 H 
ATOM     64  C   UNL A   1      35.871  29.710  29.077  1.00  0.00    -0.053 A 
ATOM     65  H   UNL A   1      33.983  29.476  28.172  1.00  0.00     0.063 H 
ATOM     66  C   UNL A   1      36.966  30.569  29.245  1.00  0.00    -0.014 A 
ATOM     67  H   UNL A   1      37.732  32.491  28.798  1.00  0.00     0.063 H 
ATOM     68  H   UNL A   1      35.895  28.760  29.479  1.00  0.00     0.063 H 
BRANCH  66  69
ATOM     69  C   UNL A   1      38.172  30.085  29.960  1.00  0.00     0.031 A 
ATOM     70  C   UNL A   1      38.456  30.554  31.358  1.00  0.00     0.074 A 
ATOM     71  C   UNL A   1      39.029  29.256  29.335  1.00  0.00     0.049 A 
ATOM     72  N   UNL A   1      39.468  30.265  32.137  1.00  0.00    -0.248 NA
ATOM     73  C   UNL A   1      37.489  31.490  31.951  1.00  0.00    -0.034 C 
ATOM     74  C   UNL A   1      38.875  28.764  27.966  1.00  0.00    -0.036 A 
ATOM     75  N   UNL A   1      40.197  28.682  29.769  1.00  0.00    -0.354 N 
ATOM     76  C   UNL A   1      39.257  30.984  33.305  1.00  0.00     0.074 A 
ATOM     77  C   UNL A   1      38.063  31.776  33.108  1.00  0.00    -0.034 C 
ATOM     78  H   UNL A   1      36.596  31.835  31.564  1.00  0.00     0.065 H 
ATOM     79  C   UNL A   1      39.891  27.932  27.684  1.00  0.00    -0.036 A 
ATOM     80  H   UNL A   1      38.111  29.015  27.321  1.00  0.00     0.065 H 
ATOM     81  C   UNL A   1      40.786  27.864  28.837  1.00  0.00     0.049 A 
ATOM     82  H   UNL A   1      40.576  28.841  30.663  1.00  0.00     0.167 HD
ATOM     83  C   UNL A   1      39.978  30.960  34.451  1.00  0.00     0.037 A 
ATOM     84  H   UNL A   1      37.706  32.472  33.782  1.00  0.00     0.065 H 
ATOM     85  H   UNL A   1      40.018  27.423  26.796  1.00  0.00     0.065 H 
ATOM     86  C   UNL A   1      41.920  27.141  28.904  1.00  0.00     0.037 A 
ATOM     87  C   UNL A   1      41.159  30.160  34.643  1.00  0.00     0.049 A 
ATOM     88  C   UNL A   1      42.727  27.157  30.173  1.00  0.00     0.074 A 
ATOM     89  C   UNL A   1      41.935  30.028  35.780  1.00  0.00    -0.036 A 
ATOM     90  N   UNL A   1      41.738  29.360  33.668  1.00  0.00    -0.354 N 
ATOM     91  N   UNL A   1      42.486  27.789  31.296  1.00  0.00    -0.248 NA
ATOM     92  C   UNL A   1      43.960  26.357  30.187  1.00  0.00    -0.034 C 
ATOM     93  C   UNL A   1      43.016  29.196  35.477  1.00  0.00    -0.036 A 
ATOM     94  H   UNL A   1      41.747  30.468  36.696  1.00  0.00     0.065 H 
ATOM     95  C   UNL A   1      42.882  28.759  34.168  1.00  0.00     0.049 A 
ATOM     96  H   UNL A   1      41.389  29.238  32.756  1.00  0.00     0.167 HD
ATOM     97  C   UNL A   1      43.523  27.453  32.155  1.00  0.00     0.074 A 
ATOM     98  C   UNL A   1      44.386  26.545  31.428  1.00  0.00    -0.034 C 
ATOM     99  H   UNL A   1      44.381  25.798  29.430  1.00  0.00     0.065 H 
ATOM    100  H   UNL A   1      43.786  28.951  36.118  1.00  0.00     0.065 H 
ATOM    101  C   UNL A   1      43.738  27.861  33.431  1.00  0.00     0.037 A 
ATOM    102  H   UNL A   1      45.229  26.100  31.827  1.00  0.00     0.065 H 
BRANCH  83 103
ATOM    103  C   UNL A   1      39.507  31.825  35.586  1.00  0.00     0.064 A 
ATOM    104  C   UNL A   1      39.967  33.141  35.748  1.00  0.00     0.173 A 
ATOM    105  C   UNL A   1      38.562  31.345  36.505  1.00  0.00     0.173 A 
ATOM    106  F   UNL A   1      40.880  33.647  34.904  1.00  0.00    -0.203 F 
ATOM    107  C   UNL A   1      39.523  33.931  36.805  1.00  0.00     0.198 A 
ATOM    108  C   UNL A   1      38.094  32.149  37.540  1.00  0.00     0.198 A 
ATOM    109  F   UNL A   1      38.085  30.095  36.394  1.00  0.00    -0.203 F 
ATOM    110  F   UNL A   1      40.021  35.165  36.971  1.00  0.00    -0.200 F 
ATOM    111  C   UNL A   1      38.582  33.438  37.695  1.00  0.00     0.200 A 
ATOM    112  F   UNL A   1      37.173  31.677  38.390  1.00  0.00    -0.200 F 
ATOM    113  F   UNL A   1      38.150  34.203  38.707  1.00  0.00    -0.200 F 
ENDBRANCH  83 103
BRANCH  86 114
ATOM    114  C   UNL A   1      42.320  26.307  27.740  1.00  0.00     0.064 A 
ATOM    115  C   UNL A   1      43.295  26.755  26.840  1.00  0.00     0.173 A 
ATOM    116  C   UNL A   1      41.786  25.025  27.541  1.00  0.00     0.173 A 
ATOM    117  F   UNL A   1      43.822  27.981  26.978  1.00  0.00    -0.203 F 
ATOM    118  C   UNL A   1      43.725  25.951  25.786  1.00  0.00     0.198 A 
ATOM    119  C   UNL A   1      42.236  24.212  26.503  1.00  0.00     0.198 A 
ATOM    120  F   UNL A   1      40.854  24.548  28.379  1.00  0.00    -0.203 F 
ATOM    121  F   UNL A   1      44.646  26.411  24.928  1.00  0.00    -0.200 F 
ATOM    122  C   UNL A   1      43.204  24.676  25.625  1.00  0.00     0.200 A 
ATOM    123  F   UNL A   1      41.742  22.974  26.363  1.00  0.00    -0.200 F 
ATOM    124  F   UNL A   1      43.636  23.895  24.627  1.00  0.00    -0.200 F 
ENDBRANCH  86 114
BRANCH 101 125
ATOM    125  C   UNL A   1      44.953  27.332  34.137  1.00  0.00     0.064 A 
ATOM    126  C   UNL A   1      46.165  28.038  34.138  1.00  0.00     0.173 A 
ATOM    127  C   UNL A   1      44.880  26.150  34.892  1.00  0.00     0.173 A 
ATOM    128  F   UNL A   1      46.291  29.165  33.423  1.00  0.00    -0.203 F 
ATOM    129  C   UNL A   1      47.263  27.573  34.859  1.00  0.00     0.198 A 
ATOM    130  C   UNL A   1      45.969  25.708  35.637  1.00  0.00     0.198 A 
ATOM    131  F   UNL A   1      43.741  25.443  34.932  1.00  0.00    -0.203 F 
ATOM    132  F   UNL A   1      48.421  28.246  34.819  1.00  0.00    -0.200 F 
ATOM    133  C   UNL A   1      47.160  26.417  35.617  1.00  0.00     0.200 A 
ATOM    134  F   UNL A   1      45.861  24.600  36.385  1.00  0.00    -0.200 F 
ATOM    135  F   UNL A   1      48.210  25.985  36.329  1.00  0.00    -0.200 F 
ENDBRANCH 101 125
ENDBRANCH  66  69
ENDBRANCH  56  59
ENDBRANCH  52  55
ENDBRANCH  49  52
ENDBRANCH   1  49
TORSDOF 18
ENDMDL
