MODEL 1
REMARK VINA RESULT:     -13.0      0.000      0.000
REMARK SMILES Cc1ccc(Nc2c(C)cccc2Cl)c(CC(=O)NCCCCCCNC(=O)c2ccc(-c3c4nc(c(-c5c(F)c(F)c(F)c(F)c5F)c5ccc([nH]5)c(-c5c(F)c(F)c(F)c(F)c5F)c5nc(c(-c6c(F)c(F)c(F)c(F)c6F)c6ccc3[nH]6)C=C5)C=C4)cc2)c1
REMARK SMILES IDX 21 1 20 4 19 7 17 8 18 9 16 11 15 14 2 15 3 16 92 17 4 18
REMARK SMILES IDX 5 21 1 23 6 27 7 29 8 30 13 31 10 32 12 33 14 34 11 35 9 39
REMARK SMILES IDX 22 43 23 46 24 49 25 52 26 55 27 56 28 58 29 59 30 60 91 61
REMARK SMILES IDX 31 62 90 64 32 66 33 69 34 70 84 71 35 72 89 73 83 74 85 75
REMARK SMILES IDX 36 76 88 77 82 79 81 81 37 83 69 86 49 87 68 88 50 89 53 90
REMARK SMILES IDX 67 91 86 92 51 93 52 95 66 97 87 98 54 101 38 103 39 104
REMARK SMILES IDX 47 105 40 106 41 107 45 108 48 109 42 110 43 111 46 112
REMARK SMILES IDX 44 113 70 114 71 115 79 116 72 117 73 118 77 119 80 120
REMARK SMILES IDX 74 121 75 122 78 123 76 124 55 125 56 126 64 127 57 128
REMARK SMILES IDX 58 129 62 130 65 131 59 132 60 133 63 134 61 135
REMARK H PARENT 21 2 21 3 20 5 20 6 19 10 16 12 16 13 3 19 92 20 4 22 1 24
REMARK H PARENT 1 25 1 26 6 28 10 36 12 37 11 38 9 40 9 41 9 42 22 44 22 45
REMARK H PARENT 23 47 23 48 24 50 24 51 25 53 25 54 26 57 30 63 91 65 31 67
REMARK H PARENT 90 68 89 78 83 80 85 82 88 84 82 85 50 94 53 96 86 99 51 100
REMARK H PARENT 87 102
REMARK Flexibility Score: inf
ROOT
ATOM      1  C   UNL A   1      31.391  27.647  26.955  1.00  0.00    -0.036 C 
ATOM      2  H   UNL A   1      31.925  27.233  27.785  1.00  0.00     0.028 H 
ATOM      3  H   UNL A   1      30.593  28.298  27.243  1.00  0.00     0.028 H 
ENDROOT
BRANCH   1   4
ATOM      4  C   UNL A   1      30.742  26.494  26.186  1.00  0.00     0.017 C 
ATOM      5  H   UNL A   1      29.690  26.672  26.118  1.00  0.00     0.049 H 
ATOM      6  H   UNL A   1      31.191  26.450  25.215  1.00  0.00     0.049 H 
BRANCH   4   7
ATOM      7  N   UNL A   1      30.959  25.218  26.834  1.00  0.00    -0.356 N 
ATOM      8  C   UNL A   1      32.051  24.404  26.773  1.00  0.00     0.224 C 
ATOM      9  O   UNL A   1      31.983  23.290  27.299  1.00  0.00    -0.275 OA
ATOM     10  H   UNL A   1      30.218  24.893  27.394  1.00  0.00     0.163 HD
BRANCH   8  11
ATOM     11  C   UNL A   1      33.317  24.849  26.064  1.00  0.00     0.054 C 
ATOM     12  H   UNL A   1      33.363  25.918  26.095  1.00  0.00     0.042 H 
ATOM     13  H   UNL A   1      34.137  24.387  26.574  1.00  0.00     0.042 H 
BRANCH  11  14
ATOM     14  C   UNL A   1      33.399  24.412  24.617  1.00  0.00    -0.015 A 
ATOM     15  C   UNL A   1      32.975  24.992  22.273  1.00  0.00    -0.051 A 
ATOM     16  C   UNL A   1      33.386  23.715  21.903  1.00  0.00    -0.057 A 
ATOM     17  C   UNL A   1      33.005  25.338  23.626  1.00  0.00    -0.054 A 
ATOM     18  C   UNL A   1      33.822  22.805  22.869  1.00  0.00    -0.038 A 
ATOM     19  H   UNL A   1      33.369  23.439  20.908  1.00  0.00     0.063 H 
ATOM     20  H   UNL A   1      32.736  26.293  23.909  1.00  0.00     0.063 H 
ATOM     21  C   UNL A   1      33.837  23.126  24.237  1.00  0.00     0.042 A 
ATOM     22  H   UNL A   1      34.141  21.870  22.570  1.00  0.00     0.064 H 
BRANCH  15  23
ATOM     23  C   UNL A   1      32.513  25.968  21.234  1.00  0.00    -0.040 C 
ATOM     24  H   UNL A   1      33.361  26.452  20.797  1.00  0.00     0.028 H 
ATOM     25  H   UNL A   1      31.880  26.701  21.689  1.00  0.00     0.028 H 
ATOM     26  H   UNL A   1      31.968  25.450  20.473  1.00  0.00     0.028 H 
ENDBRANCH  15  23
BRANCH  21  27
ATOM     27  N   UNL A   1      34.345  22.217  25.190  1.00  0.00    -0.354 N 
ATOM     28  H   UNL A   1      33.749  22.022  25.950  1.00  0.00     0.167 HD
BRANCH  27  29
ATOM     29  C   UNL A   1      35.592  21.546  25.208  1.00  0.00     0.060 A 
ATOM     30  C   UNL A   1      36.806  22.234  25.422  1.00  0.00    -0.026 A 
ATOM     31  C   UNL A   1      35.639  20.161  24.933  1.00  0.00     0.064 A 
ATOM     32  C   UNL A   1      38.023  21.540  25.304  1.00  0.00    -0.057 A 
ATOM     33  C   UNL A   1      36.857  19.483  24.840  1.00  0.00    -0.041 A 
ATOM     34  Cl  UNL A   1      34.186  19.255  24.666  1.00  0.00    -0.082 Cl
ATOM     35  C   UNL A   1      38.049  20.176  25.014  1.00  0.00    -0.060 A 
ATOM     36  H   UNL A   1      38.912  22.049  25.434  1.00  0.00     0.063 H 
ATOM     37  H   UNL A   1      36.870  18.470  24.643  1.00  0.00     0.064 H 
ATOM     38  H   UNL A   1      38.951  19.683  24.928  1.00  0.00     0.062 H 
BRANCH  30  39
ATOM     39  C   UNL A   1      36.859  23.694  25.784  1.00  0.00    -0.038 C 
ATOM     40  H   UNL A   1      37.402  23.815  26.699  1.00  0.00     0.028 H 
ATOM     41  H   UNL A   1      35.864  24.068  25.908  1.00  0.00     0.028 H 
ATOM     42  H   UNL A   1      37.350  24.238  25.004  1.00  0.00     0.028 H 
ENDBRANCH  30  39
ENDBRANCH  27  29
ENDBRANCH  21  27
ENDBRANCH  11  14
ENDBRANCH   8  11
ENDBRANCH   4   7
ENDBRANCH   1   4
BRANCH   1  43
ATOM     43  C   UNL A   1      32.371  28.506  26.141  1.00  0.00    -0.052 C 
ATOM     44  H   UNL A   1      32.426  28.092  25.156  1.00  0.00     0.027 H 
ATOM     45  H   UNL A   1      33.292  28.479  26.685  1.00  0.00     0.027 H 
BRANCH  43  46
ATOM     46  C   UNL A   1      32.025  29.997  26.002  1.00  0.00    -0.052 C 
ATOM     47  H   UNL A   1      30.967  30.101  26.130  1.00  0.00     0.027 H 
ATOM     48  H   UNL A   1      32.379  30.288  25.036  1.00  0.00     0.027 H 
BRANCH  46  49
ATOM     49  C   UNL A   1      32.710  30.939  26.994  1.00  0.00    -0.036 C 
ATOM     50  H   UNL A   1      31.999  31.205  27.749  1.00  0.00     0.028 H 
ATOM     51  H   UNL A   1      33.053  31.781  26.429  1.00  0.00     0.028 H 
BRANCH  49  52
ATOM     52  C   UNL A   1      33.935  30.349  27.680  1.00  0.00     0.018 C 
ATOM     53  H   UNL A   1      34.569  29.923  26.930  1.00  0.00     0.049 H 
ATOM     54  H   UNL A   1      33.581  29.619  28.378  1.00  0.00     0.049 H 
BRANCH  52  55
ATOM     55  N   UNL A   1      34.706  31.323  28.437  1.00  0.00    -0.352 N 
ATOM     56  C   UNL A   1      35.907  31.186  29.115  1.00  0.00     0.251 C 
ATOM     57  H   UNL A   1      34.313  32.224  28.472  1.00  0.00     0.163 HD
ATOM     58  O   UNL A   1      36.347  32.117  29.762  1.00  0.00    -0.269 OA
BRANCH  56  59
ATOM     59  C   UNL A   1      36.731  29.962  28.926  1.00  0.00     0.039 A 
ATOM     60  C   UNL A   1      36.908  29.129  30.040  1.00  0.00    -0.049 A 
ATOM     61  C   UNL A   1      37.478  29.746  27.773  1.00  0.00    -0.049 A 
ATOM     62  C   UNL A   1      38.013  28.282  30.092  1.00  0.00    -0.053 A 
ATOM     63  H   UNL A   1      36.227  29.144  30.813  1.00  0.00     0.063 H 
ATOM     64  C   UNL A   1      38.625  28.984  27.858  1.00  0.00    -0.053 A 
ATOM     65  H   UNL A   1      37.180  30.148  26.871  1.00  0.00     0.063 H 
ATOM     66  C   UNL A   1      38.936  28.327  29.053  1.00  0.00    -0.014 A 
ATOM     67  H   UNL A   1      38.143  27.635  30.886  1.00  0.00     0.063 H 
ATOM     68  H   UNL A   1      39.252  28.899  27.043  1.00  0.00     0.063 H 
BRANCH  66  69
ATOM     69  C   UNL A   1      40.320  27.889  29.182  1.00  0.00     0.031 A 
ATOM     70  C   UNL A   1      40.740  26.550  28.730  1.00  0.00     0.074 A 
ATOM     71  C   UNL A   1      41.244  28.808  29.550  1.00  0.00     0.049 A 
ATOM     72  N   UNL A   1      41.918  26.065  28.932  1.00  0.00    -0.248 NA
ATOM     73  C   UNL A   1      39.842  25.609  28.067  1.00  0.00    -0.034 C 
ATOM     74  C   UNL A   1      42.693  28.745  29.369  1.00  0.00    -0.036 A 
ATOM     75  N   UNL A   1      41.052  29.928  30.381  1.00  0.00    -0.354 N 
ATOM     76  C   UNL A   1      42.029  24.915  28.192  1.00  0.00     0.074 A 
ATOM     77  C   UNL A   1      40.681  24.605  27.791  1.00  0.00    -0.034 C 
ATOM     78  H   UNL A   1      38.833  25.695  27.867  1.00  0.00     0.065 H 
ATOM     79  C   UNL A   1      43.277  29.542  30.277  1.00  0.00    -0.036 A 
ATOM     80  H   UNL A   1      43.186  28.178  28.661  1.00  0.00     0.065 H 
ATOM     81  C   UNL A   1      42.229  30.008  31.167  1.00  0.00     0.049 A 
ATOM     82  H   UNL A   1      40.269  30.526  30.411  1.00  0.00     0.167 HD
ATOM     83  C   UNL A   1      43.277  24.446  27.910  1.00  0.00     0.037 A 
ATOM     84  H   UNL A   1      40.399  23.717  27.345  1.00  0.00     0.065 H 
ATOM     85  H   UNL A   1      44.280  29.779  30.331  1.00  0.00     0.065 H 
ATOM     86  C   UNL A   1      42.184  29.768  32.511  1.00  0.00     0.037 A 
ATOM     87  C   UNL A   1      44.274  25.050  28.797  1.00  0.00     0.049 A 
ATOM     88  C   UNL A   1      43.008  28.583  32.978  1.00  0.00     0.074 A 
ATOM     89  C   UNL A   1      45.288  25.983  28.664  1.00  0.00    -0.036 A 
ATOM     90  N   UNL A   1      44.127  24.840  30.159  1.00  0.00    -0.354 N 
ATOM     91  N   UNL A   1      43.656  27.774  32.185  1.00  0.00    -0.248 NA
ATOM     92  C   UNL A   1      43.073  28.159  34.378  1.00  0.00    -0.034 C 
ATOM     93  C   UNL A   1      45.686  26.386  29.978  1.00  0.00    -0.036 A 
ATOM     94  H   UNL A   1      45.685  26.327  27.776  1.00  0.00     0.065 H 
ATOM     95  C   UNL A   1      44.938  25.673  30.899  1.00  0.00     0.049 A 
ATOM     96  H   UNL A   1      43.517  24.174  30.550  1.00  0.00     0.167 HD
ATOM     97  C   UNL A   1      44.151  26.728  32.914  1.00  0.00     0.074 A 
ATOM     98  C   UNL A   1      43.768  27.012  34.283  1.00  0.00    -0.034 C 
ATOM     99  H   UNL A   1      42.686  28.618  35.217  1.00  0.00     0.065 H 
ATOM    100  H   UNL A   1      46.407  27.089  30.202  1.00  0.00     0.065 H 
ATOM    101  C   UNL A   1      44.798  25.671  32.345  1.00  0.00     0.037 A 
ATOM    102  H   UNL A   1      44.001  26.409  35.087  1.00  0.00     0.065 H 
BRANCH  83 103
ATOM    103  C   UNL A   1      43.634  23.528  26.760  1.00  0.00     0.064 A 
ATOM    104  C   UNL A   1      43.225  22.175  26.784  1.00  0.00     0.173 A 
ATOM    105  C   UNL A   1      44.477  23.865  25.679  1.00  0.00     0.173 A 
ATOM    106  F   UNL A   1      42.434  21.705  27.758  1.00  0.00    -0.203 F 
ATOM    107  C   UNL A   1      43.637  21.248  25.819  1.00  0.00     0.198 A 
ATOM    108  C   UNL A   1      44.843  22.949  24.688  1.00  0.00     0.198 A 
ATOM    109  F   UNL A   1      45.044  25.068  25.559  1.00  0.00    -0.203 F 
ATOM    110  F   UNL A   1      43.267  19.964  25.931  1.00  0.00    -0.200 F 
ATOM    111  C   UNL A   1      44.437  21.637  24.765  1.00  0.00     0.200 A 
ATOM    112  F   UNL A   1      45.625  23.351  23.675  1.00  0.00    -0.200 F 
ATOM    113  F   UNL A   1      44.834  20.751  23.843  1.00  0.00    -0.200 F 
ENDBRANCH  83 103
BRANCH  86 114
ATOM    114  C   UNL A   1      40.903  30.206  33.128  1.00  0.00     0.064 A 
ATOM    115  C   UNL A   1      40.679  31.586  33.301  1.00  0.00     0.173 A 
ATOM    116  C   UNL A   1      39.794  29.356  33.192  1.00  0.00     0.173 A 
ATOM    117  F   UNL A   1      41.711  32.445  33.249  1.00  0.00    -0.203 F 
ATOM    118  C   UNL A   1      39.390  32.102  33.410  1.00  0.00     0.198 A 
ATOM    119  C   UNL A   1      38.505  29.875  33.322  1.00  0.00     0.198 A 
ATOM    120  F   UNL A   1      39.937  28.036  33.011  1.00  0.00    -0.203 F 
ATOM    121  F   UNL A   1      39.202  33.428  33.457  1.00  0.00    -0.200 F 
ATOM    122  C   UNL A   1      38.302  31.246  33.394  1.00  0.00     0.200 A 
ATOM    123  F   UNL A   1      37.451  29.049  33.277  1.00  0.00    -0.200 F 
ATOM    124  F   UNL A   1      37.056  31.741  33.404  1.00  0.00    -0.200 F 
ENDBRANCH  86 114
BRANCH 101 125
ATOM    125  C   UNL A   1      45.335  24.530  33.151  1.00  0.00     0.064 A 
ATOM    126  C   UNL A   1      44.548  23.410  33.460  1.00  0.00     0.173 A 
ATOM    127  C   UNL A   1      46.617  24.579  33.732  1.00  0.00     0.173 A 
ATOM    128  F   UNL A   1      43.304  23.294  32.972  1.00  0.00    -0.203 F 
ATOM    129  C   UNL A   1      45.024  22.391  34.287  1.00  0.00     0.198 A 
ATOM    130  C   UNL A   1      47.071  23.585  34.595  1.00  0.00     0.198 A 
ATOM    131  F   UNL A   1      47.467  25.580  33.455  1.00  0.00    -0.203 F 
ATOM    132  F   UNL A   1      44.261  21.316  34.524  1.00  0.00    -0.200 F 
ATOM    133  C   UNL A   1      46.278  22.487  34.866  1.00  0.00     0.200 A 
ATOM    134  F   UNL A   1      48.284  23.695  35.158  1.00  0.00    -0.200 F 
ATOM    135  F   UNL A   1      46.723  21.519  35.680  1.00  0.00    -0.200 F 
ENDBRANCH 101 125
ENDBRANCH  66  69
ENDBRANCH  56  59
ENDBRANCH  52  55
ENDBRANCH  49  52
ENDBRANCH  46  49
ENDBRANCH  43  46
ENDBRANCH   1  43
TORSDOF 18
ENDMDL
MODEL 2
REMARK VINA RESULT:     -12.6      0.676      1.484
REMARK SMILES Cc1ccc(Nc2c(C)cccc2Cl)c(CC(=O)NCCCCCCNC(=O)c2ccc(-c3c4nc(c(-c5c(F)c(F)c(F)c(F)c5F)c5ccc([nH]5)c(-c5c(F)c(F)c(F)c(F)c5F)c5nc(c(-c6c(F)c(F)c(F)c(F)c6F)c6ccc3[nH]6)C=C5)C=C4)cc2)c1
REMARK SMILES IDX 21 1 20 4 19 7 17 8 18 9 16 11 15 14 2 15 3 16 92 17 4 18
REMARK SMILES IDX 5 21 1 23 6 27 7 29 8 30 13 31 10 32 12 33 14 34 11 35 9 39
REMARK SMILES IDX 22 43 23 46 24 49 25 52 26 55 27 56 28 58 29 59 30 60 91 61
REMARK SMILES IDX 31 62 90 64 32 66 33 69 34 70 84 71 35 72 89 73 83 74 85 75
REMARK SMILES IDX 36 76 88 77 82 79 81 81 37 83 69 86 49 87 68 88 50 89 53 90
REMARK SMILES IDX 67 91 86 92 51 93 52 95 66 97 87 98 54 101 38 103 39 104
REMARK SMILES IDX 47 105 40 106 41 107 45 108 48 109 42 110 43 111 46 112
REMARK SMILES IDX 44 113 70 114 71 115 79 116 72 117 73 118 77 119 80 120
REMARK SMILES IDX 74 121 75 122 78 123 76 124 55 125 56 126 64 127 57 128
REMARK SMILES IDX 58 129 62 130 65 131 59 132 60 133 63 134 61 135
REMARK H PARENT 21 2 21 3 20 5 20 6 19 10 16 12 16 13 3 19 92 20 4 22 1 24
REMARK H PARENT 1 25 1 26 6 28 10 36 12 37 11 38 9 40 9 41 9 42 22 44 22 45
REMARK H PARENT 23 47 23 48 24 50 24 51 25 53 25 54 26 57 30 63 91 65 31 67
REMARK H PARENT 90 68 89 78 83 80 85 82 88 84 82 85 50 94 53 96 86 99 51 100
REMARK H PARENT 87 102
REMARK Flexibility Score: inf
ROOT
ATOM      1  C   UNL A   1      31.425  27.494  26.378  1.00  0.00    -0.036 C 
ATOM      2  H   UNL A   1      32.400  27.113  26.595  1.00  0.00     0.028 H 
ATOM      3  H   UNL A   1      30.948  27.951  27.219  1.00  0.00     0.028 H 
ENDROOT
BRANCH   1   4
ATOM      4  C   UNL A   1      30.535  26.315  25.974  1.00  0.00     0.017 C 
ATOM      5  H   UNL A   1      29.513  26.579  26.148  1.00  0.00     0.049 H 
ATOM      6  H   UNL A   1      30.711  26.107  24.939  1.00  0.00     0.049 H 
BRANCH   4   7
ATOM      7  N   UNL A   1      30.844  25.118  26.727  1.00  0.00    -0.356 N 
ATOM      8  C   UNL A   1      31.994  24.387  26.735  1.00  0.00     0.224 C 
ATOM      9  O   UNL A   1      32.008  23.319  27.352  1.00  0.00    -0.275 OA
ATOM     10  H   UNL A   1      30.125  24.786  27.311  1.00  0.00     0.163 HD
BRANCH   8  11
ATOM     11  C   UNL A   1      33.228  24.867  25.991  1.00  0.00     0.054 C 
ATOM     12  H   UNL A   1      33.236  25.937  26.006  1.00  0.00     0.042 H 
ATOM     13  H   UNL A   1      34.075  24.442  26.490  1.00  0.00     0.042 H 
BRANCH  11  14
ATOM     14  C   UNL A   1      33.294  24.411  24.549  1.00  0.00    -0.015 A 
ATOM     15  C   UNL A   1      32.785  24.935  22.209  1.00  0.00    -0.051 A 
ATOM     16  C   UNL A   1      33.246  23.672  21.846  1.00  0.00    -0.057 A 
ATOM     17  C   UNL A   1      32.833  25.303  23.556  1.00  0.00    -0.054 A 
ATOM     18  C   UNL A   1      33.747  22.798  22.815  1.00  0.00    -0.038 A 
ATOM     19  H   UNL A   1      33.217  23.380  20.857  1.00  0.00     0.063 H 
ATOM     20  H   UNL A   1      32.526  26.249  23.831  1.00  0.00     0.063 H 
ATOM     21  C   UNL A   1      33.782  23.141  24.176  1.00  0.00     0.042 A 
ATOM     22  H   UNL A   1      34.102  21.875  22.521  1.00  0.00     0.064 H 
BRANCH  15  23
ATOM     23  C   UNL A   1      32.253  25.872  21.168  1.00  0.00    -0.040 C 
ATOM     24  H   UNL A   1      31.190  25.773  21.108  1.00  0.00     0.028 H 
ATOM     25  H   UNL A   1      32.687  25.634  20.219  1.00  0.00     0.028 H 
ATOM     26  H   UNL A   1      32.503  26.879  21.431  1.00  0.00     0.028 H 
ENDBRANCH  15  23
BRANCH  21  27
ATOM     27  N   UNL A   1      34.355  22.271  25.129  1.00  0.00    -0.354 N 
ATOM     28  H   UNL A   1      33.894  22.232  25.999  1.00  0.00     0.167 HD
BRANCH  27  29
ATOM     29  C   UNL A   1      35.502  21.448  25.011  1.00  0.00     0.060 A 
ATOM     30  C   UNL A   1      35.400  20.050  24.846  1.00  0.00    -0.026 A 
ATOM     31  C   UNL A   1      36.785  22.024  25.133  1.00  0.00     0.064 A 
ATOM     32  C   UNL A   1      36.568  19.267  24.861  1.00  0.00    -0.057 A 
ATOM     33  C   UNL A   1      37.936  21.233  25.126  1.00  0.00    -0.041 A 
ATOM     34  Cl  UNL A   1      36.980  23.734  25.333  1.00  0.00    -0.082 Cl
ATOM     35  C   UNL A   1      37.826  19.853  25.002  1.00  0.00    -0.060 A 
ATOM     36  H   UNL A   1      36.494  18.241  24.767  1.00  0.00     0.063 H 
ATOM     37  H   UNL A   1      38.866  21.673  25.212  1.00  0.00     0.064 H 
ATOM     38  H   UNL A   1      38.673  19.263  25.014  1.00  0.00     0.062 H 
BRANCH  30  39
ATOM     39  C   UNL A   1      34.084  19.348  24.643  1.00  0.00    -0.038 C 
ATOM     40  H   UNL A   1      34.065  18.451  25.227  1.00  0.00     0.028 H 
ATOM     41  H   UNL A   1      33.967  19.101  23.608  1.00  0.00     0.028 H 
ATOM     42  H   UNL A   1      33.286  19.990  24.950  1.00  0.00     0.028 H 
ENDBRANCH  30  39
ENDBRANCH  27  29
ENDBRANCH  21  27
ENDBRANCH  11  14
ENDBRANCH   8  11
ENDBRANCH   4   7
ENDBRANCH   1   4
BRANCH   1  43
ATOM     43  C   UNL A   1      31.569  28.596  25.317  1.00  0.00    -0.052 C 
ATOM     44  H   UNL A   1      30.621  28.712  24.836  1.00  0.00     0.027 H 
ATOM     45  H   UNL A   1      32.356  28.265  24.671  1.00  0.00     0.027 H 
BRANCH  43  46
ATOM     46  C   UNL A   1      32.011  29.979  25.819  1.00  0.00    -0.052 C 
ATOM     47  H   UNL A   1      31.353  30.264  26.615  1.00  0.00     0.027 H 
ATOM     48  H   UNL A   1      31.971  30.623  24.967  1.00  0.00     0.027 H 
BRANCH  46  49
ATOM     49  C   UNL A   1      33.445  30.076  26.343  1.00  0.00    -0.036 C 
ATOM     50  H   UNL A   1      33.888  30.965  25.943  1.00  0.00     0.028 H 
ATOM     51  H   UNL A   1      33.946  29.184  26.030  1.00  0.00     0.028 H 
BRANCH  49  52
ATOM     52  C   UNL A   1      33.560  30.128  27.860  1.00  0.00     0.018 C 
ATOM     53  H   UNL A   1      33.989  29.207  28.198  1.00  0.00     0.049 H 
ATOM     54  H   UNL A   1      32.573  30.283  28.244  1.00  0.00     0.049 H 
BRANCH  52  55
ATOM     55  N   UNL A   1      34.383  31.225  28.347  1.00  0.00    -0.352 N 
ATOM     56  C   UNL A   1      35.658  31.219  28.890  1.00  0.00     0.251 C 
ATOM     57  H   UNL A   1      33.967  32.115  28.278  1.00  0.00     0.163 HD
ATOM     58  O   UNL A   1      36.140  32.251  29.315  1.00  0.00    -0.269 OA
BRANCH  56  59
ATOM     59  C   UNL A   1      36.492  29.990  28.810  1.00  0.00     0.039 A 
ATOM     60  C   UNL A   1      36.714  29.286  30.002  1.00  0.00    -0.049 A 
ATOM     61  C   UNL A   1      37.209  29.658  27.666  1.00  0.00    -0.049 A 
ATOM     62  C   UNL A   1      37.831  28.462  30.114  1.00  0.00    -0.053 A 
ATOM     63  H   UNL A   1      36.055  29.378  30.790  1.00  0.00     0.063 H 
ATOM     64  C   UNL A   1      38.369  28.922  27.798  1.00  0.00    -0.053 A 
ATOM     65  H   UNL A   1      36.879  29.955  26.734  1.00  0.00     0.063 H 
ATOM     66  C   UNL A   1      38.723  28.403  29.047  1.00  0.00    -0.014 A 
ATOM     67  H   UNL A   1      37.993  27.907  30.969  1.00  0.00     0.063 H 
ATOM     68  H   UNL A   1      38.973  28.754  26.979  1.00  0.00     0.063 H 
BRANCH  66  69
ATOM     69  C   UNL A   1      40.116  27.996  29.182  1.00  0.00     0.031 A 
ATOM     70  C   UNL A   1      40.561  26.654  28.765  1.00  0.00     0.074 A 
ATOM     71  C   UNL A   1      41.023  28.943  29.520  1.00  0.00     0.049 A 
ATOM     72  N   UNL A   1      41.750  26.198  28.974  1.00  0.00    -0.248 NA
ATOM     73  C   UNL A   1      39.679  25.677  28.132  1.00  0.00    -0.034 C 
ATOM     74  C   UNL A   1      42.472  28.904  29.334  1.00  0.00    -0.036 A 
ATOM     75  N   UNL A   1      40.812  30.081  30.322  1.00  0.00    -0.354 N 
ATOM     76  C   UNL A   1      41.881  25.031  28.265  1.00  0.00     0.074 A 
ATOM     77  C   UNL A   1      40.537  24.683  27.879  1.00  0.00    -0.034 C 
ATOM     78  H   UNL A   1      38.668  25.737  27.935  1.00  0.00     0.065 H 
ATOM     79  C   UNL A   1      43.044  29.737  30.217  1.00  0.00    -0.036 A 
ATOM     80  H   UNL A   1      42.974  28.328  28.639  1.00  0.00     0.065 H 
ATOM     81  C   UNL A   1      41.991  30.206  31.099  1.00  0.00     0.049 A 
ATOM     82  H   UNL A   1      40.018  30.663  30.339  1.00  0.00     0.167 HD
ATOM     83  C   UNL A   1      43.136  24.580  27.990  1.00  0.00     0.037 A 
ATOM     84  H   UNL A   1      40.271  23.778  27.458  1.00  0.00     0.065 H 
ATOM     85  H   UNL A   1      44.042  29.995  30.260  1.00  0.00     0.065 H 
ATOM     86  C   UNL A   1      41.957  30.002  32.449  1.00  0.00     0.037 A 
ATOM     87  C   UNL A   1      44.125  25.228  28.855  1.00  0.00     0.049 A 
ATOM     88  C   UNL A   1      42.806  28.846  32.944  1.00  0.00     0.074 A 
ATOM     89  C   UNL A   1      45.119  26.176  28.691  1.00  0.00    -0.036 A 
ATOM     90  N   UNL A   1      43.988  25.051  30.222  1.00  0.00    -0.354 N 
ATOM     91  N   UNL A   1      43.467  28.030  32.171  1.00  0.00    -0.248 NA
ATOM     92  C   UNL A   1      42.885  28.462  34.355  1.00  0.00    -0.034 C 
ATOM     93  C   UNL A   1      45.514  26.623  29.992  1.00  0.00    -0.036 A 
ATOM     94  H   UNL A   1      45.505  26.504  27.792  1.00  0.00     0.065 H 
ATOM     95  C   UNL A   1      44.785  25.920  30.936  1.00  0.00     0.049 A 
ATOM     96  H   UNL A   1      43.393  24.384  30.635  1.00  0.00     0.167 HD
ATOM     97  C   UNL A   1      43.986  27.014  32.925  1.00  0.00     0.074 A 
ATOM     98  C   UNL A   1      43.603  27.327  34.288  1.00  0.00    -0.034 C 
ATOM     99  H   UNL A   1      42.493  28.936  35.183  1.00  0.00     0.065 H 
ATOM    100  H   UNL A   1      46.222  27.346  30.193  1.00  0.00     0.065 H 
ATOM    101  C   UNL A   1      44.652  25.956  32.382  1.00  0.00     0.037 A 
ATOM    102  H   UNL A   1      43.852  26.751  35.107  1.00  0.00     0.065 H 
BRANCH  83 103
ATOM    103  C   UNL A   1      43.507  23.637  26.863  1.00  0.00     0.064 A 
ATOM    104  C   UNL A   1      43.123  22.278  26.925  1.00  0.00     0.173 A 
ATOM    105  C   UNL A   1      44.339  23.961  25.770  1.00  0.00     0.173 A 
ATOM    106  F   UNL A   1      42.345  21.820  27.915  1.00  0.00    -0.203 F 
ATOM    107  C   UNL A   1      43.549  21.333  25.984  1.00  0.00     0.198 A 
ATOM    108  C   UNL A   1      44.719  23.026  24.802  1.00  0.00     0.198 A 
ATOM    109  F   UNL A   1      44.883  25.171  25.616  1.00  0.00    -0.203 F 
ATOM    110  F   UNL A   1      43.205  20.046  26.132  1.00  0.00    -0.200 F 
ATOM    111  C   UNL A   1      44.338  21.709  24.917  1.00  0.00     0.200 A 
ATOM    112  F   UNL A   1      45.490  23.416  23.776  1.00  0.00    -0.200 F 
ATOM    113  F   UNL A   1      44.748  20.806  24.017  1.00  0.00    -0.200 F 
ENDBRANCH  83 103
BRANCH  86 114
ATOM    114  C   UNL A   1      40.670  30.431  33.060  1.00  0.00     0.064 A 
ATOM    115  C   UNL A   1      40.408  31.811  33.176  1.00  0.00     0.173 A 
ATOM    116  C   UNL A   1      39.585  29.554  33.174  1.00  0.00     0.173 A 
ATOM    117  F   UNL A   1      41.415  32.695  33.074  1.00  0.00    -0.203 F 
ATOM    118  C   UNL A   1      39.107  32.294  33.276  1.00  0.00     0.198 A 
ATOM    119  C   UNL A   1      38.284  30.042  33.295  1.00  0.00     0.198 A 
ATOM    120  F   UNL A   1      39.764  28.231  33.049  1.00  0.00    -0.203 F 
ATOM    121  F   UNL A   1      38.881  33.616  33.267  1.00  0.00    -0.200 F 
ATOM    122  C   UNL A   1      38.043  31.408  33.309  1.00  0.00     0.200 A 
ATOM    123  F   UNL A   1      37.253  29.186  33.298  1.00  0.00    -0.200 F 
ATOM    124  F   UNL A   1      36.784  31.869  33.311  1.00  0.00    -0.200 F 
ENDBRANCH  86 114
BRANCH 101 125
ATOM    125  C   UNL A   1      45.215  24.847  33.216  1.00  0.00     0.064 A 
ATOM    126  C   UNL A   1      46.553  24.845  33.636  1.00  0.00     0.173 A 
ATOM    127  C   UNL A   1      44.455  23.701  33.524  1.00  0.00     0.173 A 
ATOM    128  F   UNL A   1      47.356  25.884  33.363  1.00  0.00    -0.203 F 
ATOM    129  C   UNL A   1      47.095  23.766  34.337  1.00  0.00     0.198 A 
ATOM    130  C   UNL A   1      45.012  22.606  34.180  1.00  0.00     0.198 A 
ATOM    131  F   UNL A   1      43.151  23.629  33.215  1.00  0.00    -0.203 F 
ATOM    132  F   UNL A   1      48.365  23.818  34.759  1.00  0.00    -0.200 F 
ATOM    133  C   UNL A   1      46.329  22.642  34.594  1.00  0.00     0.200 A 
ATOM    134  F   UNL A   1      44.262  21.519  34.414  1.00  0.00    -0.200 F 
ATOM    135  F   UNL A   1      46.859  21.596  35.245  1.00  0.00    -0.200 F 
ENDBRANCH 101 125
ENDBRANCH  66  69
ENDBRANCH  56  59
ENDBRANCH  52  55
ENDBRANCH  49  52
ENDBRANCH  46  49
ENDBRANCH  43  46
ENDBRANCH   1  43
TORSDOF 18
ENDMDL
MODEL 3
REMARK VINA RESULT:     -12.6      1.273      2.098
REMARK SMILES Cc1ccc(Nc2c(C)cccc2Cl)c(CC(=O)NCCCCCCNC(=O)c2ccc(-c3c4nc(c(-c5c(F)c(F)c(F)c(F)c5F)c5ccc([nH]5)c(-c5c(F)c(F)c(F)c(F)c5F)c5nc(c(-c6c(F)c(F)c(F)c(F)c6F)c6ccc3[nH]6)C=C5)C=C4)cc2)c1
REMARK SMILES IDX 21 1 20 4 19 7 17 8 18 9 16 11 15 14 2 15 3 16 92 17 4 18
REMARK SMILES IDX 5 21 1 23 6 27 7 29 8 30 13 31 10 32 12 33 14 34 11 35 9 39
REMARK SMILES IDX 22 43 23 46 24 49 25 52 26 55 27 56 28 58 29 59 30 60 91 61
REMARK SMILES IDX 31 62 90 64 32 66 33 69 34 70 84 71 35 72 89 73 83 74 85 75
REMARK SMILES IDX 36 76 88 77 82 79 81 81 37 83 69 86 49 87 68 88 50 89 53 90
REMARK SMILES IDX 67 91 86 92 51 93 52 95 66 97 87 98 54 101 38 103 39 104
REMARK SMILES IDX 47 105 40 106 41 107 45 108 48 109 42 110 43 111 46 112
REMARK SMILES IDX 44 113 70 114 71 115 79 116 72 117 73 118 77 119 80 120
REMARK SMILES IDX 74 121 75 122 78 123 76 124 55 125 56 126 64 127 57 128
REMARK SMILES IDX 58 129 62 130 65 131 59 132 60 133 63 134 61 135
REMARK H PARENT 21 2 21 3 20 5 20 6 19 10 16 12 16 13 3 19 92 20 4 22 1 24
REMARK H PARENT 1 25 1 26 6 28 10 36 12 37 11 38 9 40 9 41 9 42 22 44 22 45
REMARK H PARENT 23 47 23 48 24 50 24 51 25 53 25 54 26 57 30 63 91 65 31 67
REMARK H PARENT 90 68 89 78 83 80 85 82 88 84 82 85 50 94 53 96 86 99 51 100
REMARK H PARENT 87 102
REMARK Flexibility Score: inf
ROOT
ATOM      1  C   UNL A   1      31.238  27.877  25.933  1.00  0.00    -0.036 C 
ATOM      2  H   UNL A   1      30.317  28.418  26.003  1.00  0.00     0.028 H 
ATOM      3  H   UNL A   1      31.905  28.264  25.192  1.00  0.00     0.028 H 
ENDROOT
BRANCH   1   4
ATOM      4  C   UNL A   1      30.914  26.443  25.507  1.00  0.00     0.017 C 
ATOM      5  H   UNL A   1      29.880  26.388  25.238  1.00  0.00     0.049 H 
ATOM      6  H   UNL A   1      31.544  26.193  24.679  1.00  0.00     0.049 H 
BRANCH   4   7
ATOM      7  N   UNL A   1      31.172  25.490  26.566  1.00  0.00    -0.356 N 
ATOM      8  C   UNL A   1      31.802  24.284  26.495  1.00  0.00     0.224 C 
ATOM      9  O   UNL A   1      31.804  23.562  27.495  1.00  0.00    -0.275 OA
ATOM     10  H   UNL A   1      30.849  25.748  27.459  1.00  0.00     0.163 HD
BRANCH   8  11
ATOM     11  C   UNL A   1      32.475  23.830  25.211  1.00  0.00     0.054 C 
ATOM     12  H   UNL A   1      31.801  23.184  24.688  1.00  0.00     0.042 H 
ATOM     13  H   UNL A   1      32.711  24.715  24.656  1.00  0.00     0.042 H 
BRANCH  11  14
ATOM     14  C   UNL A   1      33.776  23.088  25.427  1.00  0.00    -0.015 A 
ATOM     15  C   UNL A   1      36.182  23.255  25.866  1.00  0.00    -0.051 A 
ATOM     16  C   UNL A   1      36.281  21.872  25.744  1.00  0.00    -0.057 A 
ATOM     17  C   UNL A   1      34.926  23.851  25.729  1.00  0.00    -0.054 A 
ATOM     18  C   UNL A   1      35.142  21.102  25.491  1.00  0.00    -0.038 A 
ATOM     19  H   UNL A   1      37.201  21.413  25.840  1.00  0.00     0.063 H 
ATOM     20  H   UNL A   1      34.835  24.871  25.852  1.00  0.00     0.063 H 
ATOM     21  C   UNL A   1      33.875  21.684  25.327  1.00  0.00     0.042 A 
ATOM     22  H   UNL A   1      35.236  20.077  25.424  1.00  0.00     0.064 H 
BRANCH  15  23
ATOM     23  C   UNL A   1      37.404  24.078  26.142  1.00  0.00    -0.040 C 
ATOM     24  H   UNL A   1      38.158  23.461  26.582  1.00  0.00     0.028 H 
ATOM     25  H   UNL A   1      37.154  24.871  26.817  1.00  0.00     0.028 H 
ATOM     26  H   UNL A   1      37.771  24.492  25.226  1.00  0.00     0.028 H 
ENDBRANCH  15  23
BRANCH  21  27
ATOM     27  N   UNL A   1      32.727  20.884  25.141  1.00  0.00    -0.354 N 
ATOM     28  H   UNL A   1      31.955  21.111  25.709  1.00  0.00     0.167 HD
BRANCH  27  29
ATOM     29  C   UNL A   1      32.529  19.799  24.252  1.00  0.00     0.060 A 
ATOM     30  C   UNL A   1      32.671  18.458  24.670  1.00  0.00    -0.026 A 
ATOM     31  C   UNL A   1      32.253  20.058  22.892  1.00  0.00     0.064 A 
ATOM     32  C   UNL A   1      32.588  17.426  23.719  1.00  0.00    -0.057 A 
ATOM     33  C   UNL A   1      32.153  19.019  21.964  1.00  0.00    -0.041 A 
ATOM     34  Cl  UNL A   1      32.061  21.680  22.314  1.00  0.00    -0.082 Cl
ATOM     35  C   UNL A   1      32.333  17.703  22.376  1.00  0.00    -0.060 A 
ATOM     36  H   UNL A   1      32.719  16.447  24.019  1.00  0.00     0.063 H 
ATOM     37  H   UNL A   1      31.946  19.228  20.974  1.00  0.00     0.064 H 
ATOM     38  H   UNL A   1      32.278  16.934  21.691  1.00  0.00     0.062 H 
BRANCH  30  39
ATOM     39  C   UNL A   1      32.903  18.074  26.107  1.00  0.00    -0.038 C 
ATOM     40  H   UNL A   1      33.212  18.937  26.661  1.00  0.00     0.028 H 
ATOM     41  H   UNL A   1      33.667  17.327  26.158  1.00  0.00     0.028 H 
ATOM     42  H   UNL A   1      31.997  17.688  26.525  1.00  0.00     0.028 H 
ENDBRANCH  30  39
ENDBRANCH  27  29
ENDBRANCH  21  27
ENDBRANCH  11  14
ENDBRANCH   8  11
ENDBRANCH   4   7
ENDBRANCH   1   4
BRANCH   1  43
ATOM     43  C   UNL A   1      31.969  28.010  27.278  1.00  0.00    -0.052 C 
ATOM     44  H   UNL A   1      32.122  27.024  27.664  1.00  0.00     0.027 H 
ATOM     45  H   UNL A   1      31.341  28.630  27.882  1.00  0.00     0.027 H 
BRANCH  43  46
ATOM     46  C   UNL A   1      33.333  28.717  27.251  1.00  0.00    -0.052 C 
ATOM     47  H   UNL A   1      33.769  28.550  26.287  1.00  0.00     0.027 H 
ATOM     48  H   UNL A   1      33.892  28.300  28.062  1.00  0.00     0.027 H 
BRANCH  46  49
ATOM     49  C   UNL A   1      33.311  30.227  27.498  1.00  0.00    -0.036 C 
ATOM     50  H   UNL A   1      33.029  30.395  28.517  1.00  0.00     0.028 H 
ATOM     51  H   UNL A   1      32.614  30.641  26.799  1.00  0.00     0.028 H 
BRANCH  49  52
ATOM     52  C   UNL A   1      34.640  30.926  27.251  1.00  0.00     0.018 C 
ATOM     53  H   UNL A   1      34.501  31.653  26.478  1.00  0.00     0.049 H 
ATOM     54  H   UNL A   1      35.346  30.169  26.976  1.00  0.00     0.049 H 
BRANCH  52  55
ATOM     55  N   UNL A   1      35.174  31.599  28.425  1.00  0.00    -0.352 N 
ATOM     56  C   UNL A   1      36.126  31.185  29.343  1.00  0.00     0.251 C 
ATOM     57  H   UNL A   1      34.800  32.494  28.594  1.00  0.00     0.163 HD
ATOM     58  O   UNL A   1      36.374  31.875  30.313  1.00  0.00    -0.269 OA
BRANCH  56  59
ATOM     59  C   UNL A   1      36.951  29.979  29.063  1.00  0.00     0.039 A 
ATOM     60  C   UNL A   1      37.059  29.023  30.083  1.00  0.00    -0.049 A 
ATOM     61  C   UNL A   1      37.763  29.886  27.938  1.00  0.00    -0.049 A 
ATOM     62  C   UNL A   1      38.153  28.162  30.102  1.00  0.00    -0.053 A 
ATOM     63  H   UNL A   1      36.333  28.959  30.813  1.00  0.00     0.063 H 
ATOM     64  C   UNL A   1      38.899  29.105  28.001  1.00  0.00    -0.053 A 
ATOM     65  H   UNL A   1      37.520  30.391  27.072  1.00  0.00     0.063 H 
ATOM     66  C   UNL A   1      39.135  28.312  29.129  1.00  0.00    -0.014 A 
ATOM     67  H   UNL A   1      38.232  27.428  30.823  1.00  0.00     0.063 H 
ATOM     68  H   UNL A   1      39.571  29.104  27.218  1.00  0.00     0.063 H 
BRANCH  66  69
ATOM     69  C   UNL A   1      40.507  27.845  29.286  1.00  0.00     0.031 A 
ATOM     70  C   UNL A   1      40.916  26.512  28.807  1.00  0.00     0.074 A 
ATOM     71  C   UNL A   1      41.436  28.735  29.709  1.00  0.00     0.049 A 
ATOM     72  N   UNL A   1      42.079  25.999  29.030  1.00  0.00    -0.248 NA
ATOM     73  C   UNL A   1      40.021  25.607  28.090  1.00  0.00    -0.034 C 
ATOM     74  C   UNL A   1      42.888  28.650  29.570  1.00  0.00    -0.036 A 
ATOM     75  N   UNL A   1      41.238  29.833  30.567  1.00  0.00    -0.354 N 
ATOM     76  C   UNL A   1      42.192  24.870  28.259  1.00  0.00     0.074 A 
ATOM     77  C   UNL A   1      40.851  24.596  27.808  1.00  0.00    -0.034 C 
ATOM     78  H   UNL A   1      39.021  25.718  27.862  1.00  0.00     0.065 H 
ATOM     79  C   UNL A   1      43.458  29.408  30.518  1.00  0.00    -0.036 A 
ATOM     80  H   UNL A   1      43.392  28.095  28.860  1.00  0.00     0.065 H 
ATOM     81  C   UNL A   1      42.392  29.868  31.390  1.00  0.00     0.049 A 
ATOM     82  H   UNL A   1      40.466  30.444  30.591  1.00  0.00     0.167 HD
ATOM     83  C   UNL A   1      43.439  24.386  28.001  1.00  0.00     0.037 A 
ATOM     84  H   UNL A   1      40.566  23.728  27.328  1.00  0.00     0.065 H 
ATOM     85  H   UNL A   1      44.463  29.625  30.609  1.00  0.00     0.065 H 
ATOM     86  C   UNL A   1      42.302  29.590  32.724  1.00  0.00     0.037 A 
ATOM     87  C   UNL A   1      44.419  24.945  28.935  1.00  0.00     0.049 A 
ATOM     88  C   UNL A   1      43.090  28.375  33.180  1.00  0.00     0.074 A 
ATOM     89  C   UNL A   1      45.453  25.862  28.860  1.00  0.00    -0.036 A 
ATOM     90  N   UNL A   1      44.227  24.697  30.284  1.00  0.00    -0.354 N 
ATOM     91  N   UNL A   1      43.747  27.578  32.383  1.00  0.00    -0.248 NA
ATOM     92  C   UNL A   1      43.104  27.909  34.568  1.00  0.00    -0.034 C 
ATOM     93  C   UNL A   1      45.818  26.218  30.197  1.00  0.00    -0.036 A 
ATOM     94  H   UNL A   1      45.883  26.224  27.995  1.00  0.00     0.065 H 
ATOM     95  C   UNL A   1      45.029  25.492  31.073  1.00  0.00     0.049 A 
ATOM     96  H   UNL A   1      43.593  24.031  30.637  1.00  0.00     0.167 HD
ATOM     97  C   UNL A   1      44.201  26.502  33.094  1.00  0.00     0.074 A 
ATOM     98  C   UNL A   1      43.781  26.753  34.460  1.00  0.00    -0.034 C 
ATOM     99  H   UNL A   1      42.700  28.351  35.408  1.00  0.00     0.065 H 
ATOM    100  H   UNL A   1      46.545  26.901  30.463  1.00  0.00     0.065 H 
ATOM    101  C   UNL A   1      44.846  25.451  32.514  1.00  0.00     0.037 A 
ATOM    102  H   UNL A   1      43.979  26.122  35.251  1.00  0.00     0.065 H 
BRANCH  83 103
ATOM    103  C   UNL A   1      43.814  23.495  26.835  1.00  0.00     0.064 A 
ATOM    104  C   UNL A   1      43.331  22.168  26.776  1.00  0.00     0.173 A 
ATOM    105  C   UNL A   1      44.738  23.826  25.820  1.00  0.00     0.173 A 
ATOM    106  F   UNL A   1      42.459  21.705  27.682  1.00  0.00    -0.203 F 
ATOM    107  C   UNL A   1      43.750  21.258  25.798  1.00  0.00     0.198 A 
ATOM    108  C   UNL A   1      45.113  22.932  24.813  1.00  0.00     0.198 A 
ATOM    109  F   UNL A   1      45.376  24.999  25.785  1.00  0.00    -0.203 F 
ATOM    110  F   UNL A   1      43.305  19.994  25.833  1.00  0.00    -0.200 F 
ATOM    111  C   UNL A   1      44.632  21.643  24.810  1.00  0.00     0.200 A 
ATOM    112  F   UNL A   1      45.976  23.329  23.866  1.00  0.00    -0.200 F 
ATOM    113  F   UNL A   1      45.035  20.773  23.874  1.00  0.00    -0.200 F 
ENDBRANCH  83 103
BRANCH  86 114
ATOM    114  C   UNL A   1      41.011  30.033  33.315  1.00  0.00     0.064 A 
ATOM    115  C   UNL A   1      40.824  31.407  33.568  1.00  0.00     0.173 A 
ATOM    116  C   UNL A   1      39.872  29.221  33.280  1.00  0.00     0.173 A 
ATOM    117  F   UNL A   1      41.885  32.230  33.612  1.00  0.00    -0.203 F 
ATOM    118  C   UNL A   1      39.550  31.959  33.657  1.00  0.00     0.198 A 
ATOM    119  C   UNL A   1      38.597  29.776  33.391  1.00  0.00     0.198 A 
ATOM    120  F   UNL A   1      39.980  27.910  33.021  1.00  0.00    -0.203 F 
ATOM    121  F   UNL A   1      39.404  33.286  33.781  1.00  0.00    -0.200 F 
ATOM    122  C   UNL A   1      38.436  31.145  33.542  1.00  0.00     0.200 A 
ATOM    123  F   UNL A   1      37.519  28.992  33.250  1.00  0.00    -0.200 F 
ATOM    124  F   UNL A   1      37.208  31.682  33.533  1.00  0.00    -0.200 F 
ENDBRANCH  86 114
BRANCH 101 125
ATOM    125  C   UNL A   1      45.337  24.276  33.301  1.00  0.00     0.064 A 
ATOM    126  C   UNL A   1      44.516  23.170  33.567  1.00  0.00     0.173 A 
ATOM    127  C   UNL A   1      46.609  24.277  33.907  1.00  0.00     0.173 A 
ATOM    128  F   UNL A   1      43.280  23.099  33.052  1.00  0.00    -0.203 F 
ATOM    129  C   UNL A   1      44.950  22.118  34.376  1.00  0.00     0.198 A 
ATOM    130  C   UNL A   1      47.021  23.251  34.753  1.00  0.00     0.198 A 
ATOM    131  F   UNL A   1      47.489  25.262  33.670  1.00  0.00    -0.203 F 
ATOM    132  F   UNL A   1      44.154  21.059  34.572  1.00  0.00    -0.200 F 
ATOM    133  C   UNL A   1      46.194  22.167  34.981  1.00  0.00     0.200 A 
ATOM    134  F   UNL A   1      48.224  23.315  35.341  1.00  0.00    -0.200 F 
ATOM    135  F   UNL A   1      46.599  21.169  35.779  1.00  0.00    -0.200 F 
ENDBRANCH 101 125
ENDBRANCH  66  69
ENDBRANCH  56  59
ENDBRANCH  52  55
ENDBRANCH  49  52
ENDBRANCH  46  49
ENDBRANCH  43  46
ENDBRANCH   1  43
TORSDOF 18
ENDMDL
MODEL 4
REMARK VINA RESULT:     -12.6      1.932      2.923
REMARK SMILES Cc1ccc(Nc2c(C)cccc2Cl)c(CC(=O)NCCCCCCNC(=O)c2ccc(-c3c4nc(c(-c5c(F)c(F)c(F)c(F)c5F)c5ccc([nH]5)c(-c5c(F)c(F)c(F)c(F)c5F)c5nc(c(-c6c(F)c(F)c(F)c(F)c6F)c6ccc3[nH]6)C=C5)C=C4)cc2)c1
REMARK SMILES IDX 21 1 20 4 19 7 17 8 18 9 16 11 15 14 2 15 3 16 92 17 4 18
REMARK SMILES IDX 5 21 1 23 6 27 7 29 8 30 13 31 10 32 12 33 14 34 11 35 9 39
REMARK SMILES IDX 22 43 23 46 24 49 25 52 26 55 27 56 28 58 29 59 30 60 91 61
REMARK SMILES IDX 31 62 90 64 32 66 33 69 34 70 84 71 35 72 89 73 83 74 85 75
REMARK SMILES IDX 36 76 88 77 82 79 81 81 37 83 69 86 49 87 68 88 50 89 53 90
REMARK SMILES IDX 67 91 86 92 51 93 52 95 66 97 87 98 54 101 38 103 39 104
REMARK SMILES IDX 47 105 40 106 41 107 45 108 48 109 42 110 43 111 46 112
REMARK SMILES IDX 44 113 70 114 71 115 79 116 72 117 73 118 77 119 80 120
REMARK SMILES IDX 74 121 75 122 78 123 76 124 55 125 56 126 64 127 57 128
REMARK SMILES IDX 58 129 62 130 65 131 59 132 60 133 63 134 61 135
REMARK H PARENT 21 2 21 3 20 5 20 6 19 10 16 12 16 13 3 19 92 20 4 22 1 24
REMARK H PARENT 1 25 1 26 6 28 10 36 12 37 11 38 9 40 9 41 9 42 22 44 22 45
REMARK H PARENT 23 47 23 48 24 50 24 51 25 53 25 54 26 57 30 63 91 65 31 67
REMARK H PARENT 90 68 89 78 83 80 85 82 88 84 82 85 50 94 53 96 86 99 51 100
REMARK H PARENT 87 102
REMARK Flexibility Score: inf
ROOT
ATOM      1  C   UNL A   1      33.373  27.354  26.185  1.00  0.00    -0.036 C 
ATOM      2  H   UNL A   1      34.088  28.149  26.160  1.00  0.00     0.028 H 
ATOM      3  H   UNL A   1      33.415  26.770  27.080  1.00  0.00     0.028 H 
ENDROOT
BRANCH   1   4
ATOM      4  C   UNL A   1      33.691  26.395  25.035  1.00  0.00     0.017 C 
ATOM      5  H   UNL A   1      34.522  25.782  25.316  1.00  0.00     0.049 H 
ATOM      6  H   UNL A   1      32.819  25.803  24.847  1.00  0.00     0.049 H 
BRANCH   4   7
ATOM      7  N   UNL A   1      34.021  27.100  23.815  1.00  0.00    -0.356 N 
ATOM      8  C   UNL A   1      33.512  26.924  22.563  1.00  0.00     0.224 C 
ATOM      9  O   UNL A   1      34.026  27.544  21.628  1.00  0.00    -0.275 OA
ATOM     10  H   UNL A   1      34.707  27.800  23.900  1.00  0.00     0.163 HD
BRANCH   8  11
ATOM     11  C   UNL A   1      32.349  25.980  22.319  1.00  0.00     0.054 C 
ATOM     12  H   UNL A   1      32.315  25.749  21.275  1.00  0.00     0.042 H 
ATOM     13  H   UNL A   1      32.520  25.115  22.927  1.00  0.00     0.042 H 
BRANCH  11  14
ATOM     14  C   UNL A   1      31.003  26.542  22.726  1.00  0.00    -0.015 A 
ATOM     15  C   UNL A   1      29.536  28.505  22.784  1.00  0.00    -0.051 A 
ATOM     16  C   UNL A   1      28.604  27.763  23.504  1.00  0.00    -0.057 A 
ATOM     17  C   UNL A   1      30.720  27.882  22.381  1.00  0.00    -0.054 A 
ATOM     18  C   UNL A   1      28.854  26.423  23.811  1.00  0.00    -0.038 A 
ATOM     19  H   UNL A   1      27.724  28.205  23.813  1.00  0.00     0.063 H 
ATOM     20  H   UNL A   1      31.402  28.413  21.817  1.00  0.00     0.063 H 
ATOM     21  C   UNL A   1      30.048  25.785  23.435  1.00  0.00     0.042 A 
ATOM     22  H   UNL A   1      28.140  25.886  24.329  1.00  0.00     0.064 H 
BRANCH  15  23
ATOM     23  C   UNL A   1      29.263  29.941  22.451  1.00  0.00    -0.040 C 
ATOM     24  H   UNL A   1      30.134  30.526  22.657  1.00  0.00     0.028 H 
ATOM     25  H   UNL A   1      28.447  30.295  23.045  1.00  0.00     0.028 H 
ATOM     26  H   UNL A   1      29.013  30.026  21.414  1.00  0.00     0.028 H 
ENDBRANCH  15  23
BRANCH  21  27
ATOM     27  N   UNL A   1      30.251  24.413  23.695  1.00  0.00    -0.354 N 
ATOM     28  H   UNL A   1      29.765  23.793  23.102  1.00  0.00     0.167 HD
BRANCH  27  29
ATOM     29  C   UNL A   1      31.053  23.801  24.688  1.00  0.00     0.060 A 
ATOM     30  C   UNL A   1      30.900  24.101  26.059  1.00  0.00    -0.026 A 
ATOM     31  C   UNL A   1      32.086  22.919  24.300  1.00  0.00     0.064 A 
ATOM     32  C   UNL A   1      31.807  23.562  26.989  1.00  0.00    -0.057 A 
ATOM     33  C   UNL A   1      32.964  22.375  25.240  1.00  0.00    -0.041 A 
ATOM     34  Cl  UNL A   1      32.324  22.503  22.635  1.00  0.00    -0.082 Cl
ATOM     35  C   UNL A   1      32.832  22.708  26.584  1.00  0.00    -0.060 A 
ATOM     36  H   UNL A   1      31.712  23.803  27.989  1.00  0.00     0.063 H 
ATOM     37  H   UNL A   1      33.710  21.729  24.937  1.00  0.00     0.064 H 
ATOM     38  H   UNL A   1      33.489  22.322  27.279  1.00  0.00     0.062 H 
BRANCH  30  39
ATOM     39  C   UNL A   1      29.793  24.978  26.581  1.00  0.00    -0.038 C 
ATOM     40  H   UNL A   1      29.790  25.904  26.044  1.00  0.00     0.028 H 
ATOM     41  H   UNL A   1      29.952  25.170  27.622  1.00  0.00     0.028 H 
ATOM     42  H   UNL A   1      28.854  24.485  26.447  1.00  0.00     0.028 H 
ENDBRANCH  30  39
ENDBRANCH  27  29
ENDBRANCH  21  27
ENDBRANCH  11  14
ENDBRANCH   8  11
ENDBRANCH   4   7
ENDBRANCH   1   4
BRANCH   1  43
ATOM     43  C   UNL A   1      31.968  27.976  26.147  1.00  0.00    -0.052 C 
ATOM     44  H   UNL A   1      31.571  27.944  27.139  1.00  0.00     0.027 H 
ATOM     45  H   UNL A   1      31.422  27.398  25.431  1.00  0.00     0.027 H 
BRANCH  43  46
ATOM     46  C   UNL A   1      31.874  29.428  25.652  1.00  0.00    -0.052 C 
ATOM     47  H   UNL A   1      30.956  29.840  26.019  1.00  0.00     0.027 H 
ATOM     48  H   UNL A   1      31.935  29.375  24.586  1.00  0.00     0.027 H 
BRANCH  46  49
ATOM     49  C   UNL A   1      33.008  30.359  26.085  1.00  0.00    -0.036 C 
ATOM     50  H   UNL A   1      32.817  31.331  25.679  1.00  0.00     0.028 H 
ATOM     51  H   UNL A   1      33.916  29.925  25.719  1.00  0.00     0.028 H 
BRANCH  49  52
ATOM     52  C   UNL A   1      33.170  30.497  27.592  1.00  0.00     0.018 C 
ATOM     53  H   UNL A   1      33.619  29.600  27.967  1.00  0.00     0.049 H 
ATOM     54  H   UNL A   1      32.194  30.664  27.998  1.00  0.00     0.049 H 
BRANCH  52  55
ATOM     55  N   UNL A   1      33.995  31.627  27.991  1.00  0.00    -0.352 N 
ATOM     56  C   UNL A   1      35.282  31.663  28.506  1.00  0.00     0.251 C 
ATOM     57  H   UNL A   1      33.572  32.508  27.875  1.00  0.00     0.163 HD
ATOM     58  O   UNL A   1      35.765  32.722  28.855  1.00  0.00    -0.269 OA
BRANCH  56  59
ATOM     59  C   UNL A   1      36.122  30.436  28.486  1.00  0.00     0.039 A 
ATOM     60  C   UNL A   1      36.352  29.795  29.712  1.00  0.00    -0.049 A 
ATOM     61  C   UNL A   1      36.837  30.048  27.358  1.00  0.00    -0.049 A 
ATOM     62  C   UNL A   1      37.474  28.984  29.861  1.00  0.00    -0.053 A 
ATOM     63  H   UNL A   1      35.695  29.924  30.497  1.00  0.00     0.063 H 
ATOM     64  C   UNL A   1      38.001  29.327  27.523  1.00  0.00    -0.053 A 
ATOM     65  H   UNL A   1      36.501  30.295  26.413  1.00  0.00     0.063 H 
ATOM     66  C   UNL A   1      38.363  28.874  28.796  1.00  0.00    -0.014 A 
ATOM     67  H   UNL A   1      37.642  28.475  30.743  1.00  0.00     0.063 H 
ATOM     68  H   UNL A   1      38.602  29.120  26.711  1.00  0.00     0.063 H 
BRANCH  66  69
ATOM     69  C   UNL A   1      39.759  28.483  28.946  1.00  0.00     0.031 A 
ATOM     70  C   UNL A   1      40.198  27.106  28.655  1.00  0.00     0.074 A 
ATOM     71  C   UNL A   1      40.670  29.458  29.173  1.00  0.00     0.049 A 
ATOM     72  N   UNL A   1      41.391  26.672  28.888  1.00  0.00    -0.248 NA
ATOM     73  C   UNL A   1      39.306  26.071  28.138  1.00  0.00    -0.034 C 
ATOM     74  C   UNL A   1      42.115  29.400  28.966  1.00  0.00    -0.036 A 
ATOM     75  N   UNL A   1      40.471  30.670  29.861  1.00  0.00    -0.354 N 
ATOM     76  C   UNL A   1      41.511  25.441  28.295  1.00  0.00     0.074 A 
ATOM     77  C   UNL A   1      40.161  25.057  27.969  1.00  0.00    -0.034 C 
ATOM     78  H   UNL A   1      38.292  26.112  27.953  1.00  0.00     0.065 H 
ATOM     79  C   UNL A   1      42.701  30.317  29.752  1.00  0.00    -0.036 A 
ATOM     80  H   UNL A   1      42.606  28.759  28.323  1.00  0.00     0.065 H 
ATOM     81  C   UNL A   1      41.663  30.871  30.602  1.00  0.00     0.049 A 
ATOM     82  H   UNL A   1      39.676  31.251  29.835  1.00  0.00     0.167 HD
ATOM     83  C   UNL A   1      42.762  24.964  28.044  1.00  0.00     0.037 A 
ATOM     84  H   UNL A   1      39.889  24.115  27.645  1.00  0.00     0.065 H 
ATOM     85  H   UNL A   1      43.700  30.578  29.752  1.00  0.00     0.065 H 
ATOM     86  C   UNL A   1      41.653  30.802  31.966  1.00  0.00     0.037 A 
ATOM     87  C   UNL A   1      43.765  25.694  28.824  1.00  0.00     0.049 A 
ATOM     88  C   UNL A   1      42.512  29.700  32.558  1.00  0.00     0.074 A 
ATOM     89  C   UNL A   1      44.755  26.622  28.550  1.00  0.00    -0.036 A 
ATOM     90  N   UNL A   1      43.653  25.654  30.204  1.00  0.00    -0.354 N 
ATOM     91  N   UNL A   1      43.161  28.811  31.858  1.00  0.00    -0.248 NA
ATOM     92  C   UNL A   1      42.617  29.457  33.998  1.00  0.00    -0.034 C 
ATOM     93  C   UNL A   1      45.172  27.195  29.793  1.00  0.00    -0.036 A 
ATOM     94  H   UNL A   1      45.125  26.859  27.616  1.00  0.00     0.065 H 
ATOM     95  C   UNL A   1      44.460  26.589  30.814  1.00  0.00     0.049 A 
ATOM     96  H   UNL A   1      43.066  25.031  30.691  1.00  0.00     0.167 HD
ATOM     97  C   UNL A   1      43.694  27.874  32.699  1.00  0.00     0.074 A 
ATOM     98  C   UNL A   1      43.335  28.321  34.031  1.00  0.00    -0.034 C 
ATOM     99  H   UNL A   1      42.239  30.011  34.782  1.00  0.00     0.065 H 
ATOM    100  H   UNL A   1      45.882  27.935  29.909  1.00  0.00     0.065 H 
ATOM    101  C   UNL A   1      44.353  26.767  32.252  1.00  0.00     0.037 A 
ATOM    102  H   UNL A   1      43.599  27.829  34.898  1.00  0.00     0.065 H 
BRANCH  83 103
ATOM    103  C   UNL A   1      43.114  23.915  27.010  1.00  0.00     0.064 A 
ATOM    104  C   UNL A   1      42.786  22.560  27.239  1.00  0.00     0.173 A 
ATOM    105  C   UNL A   1      43.881  24.142  25.847  1.00  0.00     0.173 A 
ATOM    106  F   UNL A   1      42.074  22.189  28.312  1.00  0.00    -0.203 F 
ATOM    107  C   UNL A   1      43.203  21.530  26.387  1.00  0.00     0.198 A 
ATOM    108  C   UNL A   1      44.250  23.119  24.969  1.00  0.00     0.198 A 
ATOM    109  F   UNL A   1      44.371  25.345  25.533  1.00  0.00    -0.203 F 
ATOM    110  F   UNL A   1      42.914  20.257  26.692  1.00  0.00    -0.200 F 
ATOM    111  C   UNL A   1      43.925  21.811  25.246  1.00  0.00     0.200 A 
ATOM    112  F   UNL A   1      44.956  23.416  23.868  1.00  0.00    -0.200 F 
ATOM    113  F   UNL A   1      44.326  20.827  24.430  1.00  0.00    -0.200 F 
ENDBRANCH  83 103
BRANCH  86 114
ATOM    114  C   UNL A   1      40.376  31.289  32.554  1.00  0.00     0.064 A 
ATOM    115  C   UNL A   1      40.120  32.675  32.548  1.00  0.00     0.173 A 
ATOM    116  C   UNL A   1      39.291  30.431  32.762  1.00  0.00     0.173 A 
ATOM    117  F   UNL A   1      41.127  33.542  32.353  1.00  0.00    -0.203 F 
ATOM    118  C   UNL A   1      38.821  33.171  32.623  1.00  0.00     0.198 A 
ATOM    119  C   UNL A   1      37.993  30.933  32.857  1.00  0.00     0.198 A 
ATOM    120  F   UNL A   1      39.464  29.101  32.754  1.00  0.00    -0.203 F 
ATOM    121  F   UNL A   1      38.600  34.487  32.497  1.00  0.00    -0.200 F 
ATOM    122  C   UNL A   1      37.756  32.295  32.751  1.00  0.00     0.200 A 
ATOM    123  F   UNL A   1      36.960  30.085  32.951  1.00  0.00    -0.200 F 
ATOM    124  F   UNL A   1      36.498  32.759  32.729  1.00  0.00    -0.200 F 
ENDBRANCH  86 114
BRANCH 101 125
ATOM    125  C   UNL A   1      44.931  25.747  33.182  1.00  0.00     0.064 A 
ATOM    126  C   UNL A   1      46.309  25.486  33.227  1.00  0.00     0.173 A 
ATOM    127  C   UNL A   1      44.107  24.922  33.973  1.00  0.00     0.173 A 
ATOM    128  F   UNL A   1      47.164  26.206  32.486  1.00  0.00    -0.203 F 
ATOM    129  C   UNL A   1      46.832  24.471  34.031  1.00  0.00     0.198 A 
ATOM    130  C   UNL A   1      44.626  23.880  34.736  1.00  0.00     0.198 A 
ATOM    131  F   UNL A   1      42.782  25.127  34.041  1.00  0.00    -0.203 F 
ATOM    132  F   UNL A   1      48.157  24.280  34.082  1.00  0.00    -0.200 F 
ATOM    133  C   UNL A   1      45.989  23.659  34.771  1.00  0.00     0.200 A 
ATOM    134  F   UNL A   1      43.799  23.094  35.440  1.00  0.00    -0.200 F 
ATOM    135  F   UNL A   1      46.492  22.669  35.522  1.00  0.00    -0.200 F 
ENDBRANCH 101 125
ENDBRANCH  66  69
ENDBRANCH  56  59
ENDBRANCH  52  55
ENDBRANCH  49  52
ENDBRANCH  46  49
ENDBRANCH  43  46
ENDBRANCH   1  43
TORSDOF 18
ENDMDL
MODEL 5
REMARK VINA RESULT:     -12.6      4.034     10.362
REMARK SMILES Cc1ccc(Nc2c(C)cccc2Cl)c(CC(=O)NCCCCCCNC(=O)c2ccc(-c3c4nc(c(-c5c(F)c(F)c(F)c(F)c5F)c5ccc([nH]5)c(-c5c(F)c(F)c(F)c(F)c5F)c5nc(c(-c6c(F)c(F)c(F)c(F)c6F)c6ccc3[nH]6)C=C5)C=C4)cc2)c1
REMARK SMILES IDX 21 1 20 4 19 7 17 8 18 9 16 11 15 14 2 15 3 16 92 17 4 18
REMARK SMILES IDX 5 21 1 23 6 27 7 29 8 30 13 31 10 32 12 33 14 34 11 35 9 39
REMARK SMILES IDX 22 43 23 46 24 49 25 52 26 55 27 56 28 58 29 59 30 60 91 61
REMARK SMILES IDX 31 62 90 64 32 66 33 69 34 70 84 71 35 72 89 73 83 74 85 75
REMARK SMILES IDX 36 76 88 77 82 79 81 81 37 83 69 86 49 87 68 88 50 89 53 90
REMARK SMILES IDX 67 91 86 92 51 93 52 95 66 97 87 98 54 101 38 103 39 104
REMARK SMILES IDX 47 105 40 106 41 107 45 108 48 109 42 110 43 111 46 112
REMARK SMILES IDX 44 113 70 114 71 115 79 116 72 117 73 118 77 119 80 120
REMARK SMILES IDX 74 121 75 122 78 123 76 124 55 125 56 126 64 127 57 128
REMARK SMILES IDX 58 129 62 130 65 131 59 132 60 133 63 134 61 135
REMARK H PARENT 21 2 21 3 20 5 20 6 19 10 16 12 16 13 3 19 92 20 4 22 1 24
REMARK H PARENT 1 25 1 26 6 28 10 36 12 37 11 38 9 40 9 41 9 42 22 44 22 45
REMARK H PARENT 23 47 23 48 24 50 24 51 25 53 25 54 26 57 30 63 91 65 31 67
REMARK H PARENT 90 68 89 78 83 80 85 82 88 84 82 85 50 94 53 96 86 99 51 100
REMARK H PARENT 87 102
REMARK Flexibility Score: inf
ROOT
ATOM      1  C   UNL A   1      34.451  22.185  24.562  1.00  0.00    -0.036 C 
ATOM      2  H   UNL A   1      34.253  22.058  23.519  1.00  0.00     0.028 H 
ATOM      3  H   UNL A   1      33.629  21.913  25.189  1.00  0.00     0.028 H 
ENDROOT
BRANCH   1   4
ATOM      4  C   UNL A   1      34.708  23.672  24.817  1.00  0.00     0.017 C 
ATOM      5  H   UNL A   1      33.925  24.057  25.436  1.00  0.00     0.049 H 
ATOM      6  H   UNL A   1      35.661  23.766  25.295  1.00  0.00     0.049 H 
BRANCH   4   7
ATOM      7  N   UNL A   1      34.750  24.435  23.588  1.00  0.00    -0.356 N 
ATOM      8  C   UNL A   1      33.831  25.312  23.096  1.00  0.00     0.224 C 
ATOM      9  O   UNL A   1      33.998  25.762  21.959  1.00  0.00    -0.275 OA
ATOM     10  H   UNL A   1      35.551  24.303  23.032  1.00  0.00     0.163 HD
BRANCH   8  11
ATOM     11  C   UNL A   1      32.621  25.717  23.918  1.00  0.00     0.054 C 
ATOM     12  H   UNL A   1      31.752  25.645  23.298  1.00  0.00     0.042 H 
ATOM     13  H   UNL A   1      32.582  25.055  24.759  1.00  0.00     0.042 H 
BRANCH  11  14
ATOM     14  C   UNL A   1      32.695  27.124  24.471  1.00  0.00    -0.015 A 
ATOM     15  C   UNL A   1      33.787  28.651  26.048  1.00  0.00    -0.051 A 
ATOM     16  C   UNL A   1      32.892  29.649  25.672  1.00  0.00    -0.057 A 
ATOM     17  C   UNL A   1      33.696  27.403  25.429  1.00  0.00    -0.054 A 
ATOM     18  C   UNL A   1      31.927  29.399  24.692  1.00  0.00    -0.038 A 
ATOM     19  H   UNL A   1      32.941  30.578  26.119  1.00  0.00     0.063 H 
ATOM     20  H   UNL A   1      34.376  26.667  25.675  1.00  0.00     0.063 H 
ATOM     21  C   UNL A   1      31.804  28.144  24.074  1.00  0.00     0.042 A 
ATOM     22  H   UNL A   1      31.287  30.160  24.414  1.00  0.00     0.064 H 
BRANCH  15  23
ATOM     23  C   UNL A   1      34.824  28.923  27.095  1.00  0.00    -0.040 C 
ATOM     24  H   UNL A   1      34.502  29.733  27.715  1.00  0.00     0.028 H 
ATOM     25  H   UNL A   1      35.748  29.182  26.622  1.00  0.00     0.028 H 
ATOM     26  H   UNL A   1      34.964  28.049  27.696  1.00  0.00     0.028 H 
ENDBRANCH  15  23
BRANCH  21  27
ATOM     27  N   UNL A   1      30.869  27.933  23.039  1.00  0.00    -0.354 N 
ATOM     28  H   UNL A   1      31.247  27.625  22.182  1.00  0.00     0.167 HD
BRANCH  27  29
ATOM     29  C   UNL A   1      29.463  28.101  23.057  1.00  0.00     0.060 A 
ATOM     30  C   UNL A   1      28.845  29.261  22.543  1.00  0.00    -0.026 A 
ATOM     31  C   UNL A   1      28.654  27.119  23.670  1.00  0.00     0.064 A 
ATOM     32  C   UNL A   1      27.458  29.433  22.701  1.00  0.00    -0.057 A 
ATOM     33  C   UNL A   1      27.275  27.296  23.801  1.00  0.00    -0.041 A 
ATOM     34  Cl  UNL A   1      29.348  25.669  24.317  1.00  0.00    -0.082 Cl
ATOM     35  C   UNL A   1      26.679  28.459  23.326  1.00  0.00    -0.060 A 
ATOM     36  H   UNL A   1      27.009  30.293  22.349  1.00  0.00     0.063 H 
ATOM     37  H   UNL A   1      26.700  26.565  24.248  1.00  0.00     0.064 H 
ATOM     38  H   UNL A   1      25.663  28.602  23.436  1.00  0.00     0.062 H 
BRANCH  30  39
ATOM     39  C   UNL A   1      29.609  30.335  21.816  1.00  0.00    -0.038 C 
ATOM     40  H   UNL A   1      30.644  30.068  21.771  1.00  0.00     0.028 H 
ATOM     41  H   UNL A   1      29.503  31.264  22.338  1.00  0.00     0.028 H 
ATOM     42  H   UNL A   1      29.224  30.438  20.823  1.00  0.00     0.028 H 
ENDBRANCH  30  39
ENDBRANCH  27  29
ENDBRANCH  21  27
ENDBRANCH  11  14
ENDBRANCH   8  11
ENDBRANCH   4   7
ENDBRANCH   1   4
BRANCH   1  43
ATOM     43  C   UNL A   1      35.608  21.247  24.943  1.00  0.00    -0.052 C 
ATOM     44  H   UNL A   1      35.348  20.261  24.620  1.00  0.00     0.027 H 
ATOM     45  H   UNL A   1      35.719  21.352  26.003  1.00  0.00     0.027 H 
BRANCH  43  46
ATOM     46  C   UNL A   1      36.987  21.585  24.355  1.00  0.00    -0.052 C 
ATOM     47  H   UNL A   1      36.950  22.591  23.992  1.00  0.00     0.027 H 
ATOM     48  H   UNL A   1      37.165  20.852  23.597  1.00  0.00     0.027 H 
BRANCH  46  49
ATOM     49  C   UNL A   1      38.171  21.478  25.318  1.00  0.00    -0.036 C 
ATOM     50  H   UNL A   1      39.005  21.077  24.780  1.00  0.00     0.028 H 
ATOM     51  H   UNL A   1      37.854  20.850  26.124  1.00  0.00     0.028 H 
BRANCH  49  52
ATOM     52  C   UNL A   1      38.598  22.800  25.941  1.00  0.00     0.018 C 
ATOM     53  H   UNL A   1      37.986  22.982  26.800  1.00  0.00     0.049 H 
ATOM     54  H   UNL A   1      38.478  23.553  25.189  1.00  0.00     0.049 H 
BRANCH  52  55
ATOM     55  N   UNL A   1      39.993  22.829  26.353  1.00  0.00    -0.352 N 
ATOM     56  C   UNL A   1      40.788  23.888  26.761  1.00  0.00     0.251 C 
ATOM     57  H   UNL A   1      40.444  21.954  26.343  1.00  0.00     0.163 HD
ATOM     58  O   UNL A   1      41.968  23.708  26.987  1.00  0.00    -0.269 OA
BRANCH  56  59
ATOM     59  C   UNL A   1      40.167  25.205  27.069  1.00  0.00     0.039 A 
ATOM     60  C   UNL A   1      40.576  26.303  26.299  1.00  0.00    -0.049 A 
ATOM     61  C   UNL A   1      39.385  25.406  28.201  1.00  0.00    -0.049 A 
ATOM     62  C   UNL A   1      40.442  27.590  26.815  1.00  0.00    -0.053 A 
ATOM     63  H   UNL A   1      40.973  26.159  25.358  1.00  0.00     0.063 H 
ATOM     64  C   UNL A   1      39.337  26.665  28.761  1.00  0.00    -0.053 A 
ATOM     65  H   UNL A   1      38.849  24.626  28.614  1.00  0.00     0.063 H 
ATOM     66  C   UNL A   1      39.948  27.740  28.107  1.00  0.00    -0.014 A 
ATOM     67  H   UNL A   1      40.703  28.413  26.251  1.00  0.00     0.063 H 
ATOM     68  H   UNL A   1      38.852  26.815  29.659  1.00  0.00     0.063 H 
BRANCH  66  69
ATOM     69  C   UNL A   1      40.193  28.916  28.933  1.00  0.00     0.031 A 
ATOM     70  C   UNL A   1      39.185  29.987  29.049  1.00  0.00     0.074 A 
ATOM     71  C   UNL A   1      41.281  28.911  29.738  1.00  0.00     0.049 A 
ATOM     72  N   UNL A   1      39.396  31.102  29.663  1.00  0.00    -0.248 NA
ATOM     73  C   UNL A   1      37.868  29.921  28.421  1.00  0.00    -0.034 C 
ATOM     74  C   UNL A   1      41.532  29.742  30.913  1.00  0.00    -0.036 A 
ATOM     75  N   UNL A   1      42.511  28.266  29.507  1.00  0.00    -0.354 N 
ATOM     76  C   UNL A   1      38.193  31.752  29.772  1.00  0.00     0.074 A 
ATOM     77  C   UNL A   1      37.313  31.052  28.871  1.00  0.00    -0.034 C 
ATOM     78  H   UNL A   1      37.474  29.198  27.800  1.00  0.00     0.065 H 
ATOM     79  C   UNL A   1      42.856  29.814  31.117  1.00  0.00    -0.036 A 
ATOM     80  H   UNL A   1      40.809  30.200  31.490  1.00  0.00     0.065 H 
ATOM     81  C   UNL A   1      43.494  29.168  29.985  1.00  0.00     0.049 A 
ATOM     82  H   UNL A   1      42.657  27.380  29.101  1.00  0.00     0.167 HD
ATOM     83  C   UNL A   1      38.069  32.729  30.714  1.00  0.00     0.037 A 
ATOM     84  H   UNL A   1      36.372  31.383  28.606  1.00  0.00     0.065 H 
ATOM     85  H   UNL A   1      43.330  30.246  31.926  1.00  0.00     0.065 H 
ATOM     86  C   UNL A   1      44.351  29.784  29.118  1.00  0.00     0.037 A 
ATOM     87  C   UNL A   1      39.385  33.177  31.177  1.00  0.00     0.049 A 
ATOM     88  C   UNL A   1      44.245  31.297  29.078  1.00  0.00     0.074 A 
ATOM     89  C   UNL A   1      40.131  33.040  32.334  1.00  0.00    -0.036 A 
ATOM     90  N   UNL A   1      40.243  33.718  30.233  1.00  0.00    -0.354 N 
ATOM     91  N   UNL A   1      43.361  31.994  29.737  1.00  0.00    -0.248 NA
ATOM     92  C   UNL A   1      45.068  32.131  28.200  1.00  0.00    -0.034 C 
ATOM     93  C   UNL A   1      41.475  33.433  32.037  1.00  0.00    -0.036 A 
ATOM     94  H   UNL A   1      39.781  32.712  33.248  1.00  0.00     0.065 H 
ATOM     95  C   UNL A   1      41.529  33.838  30.714  1.00  0.00     0.049 A 
ATOM     96  H   UNL A   1      39.966  33.985  29.326  1.00  0.00     0.167 HD
ATOM     97  C   UNL A   1      43.437  33.303  29.349  1.00  0.00     0.074 A 
ATOM     98  C   UNL A   1      44.524  33.346  28.390  1.00  0.00    -0.034 C 
ATOM     99  H   UNL A   1      45.857  31.859  27.593  1.00  0.00     0.065 H 
ATOM    100  H   UNL A   1      42.269  33.418  32.695  1.00  0.00     0.065 H 
ATOM    101  C   UNL A   1      42.576  34.259  29.799  1.00  0.00     0.037 A 
ATOM    102  H   UNL A   1      44.841  34.203  27.912  1.00  0.00     0.065 H 
BRANCH  83 103
ATOM    103  C   UNL A   1      36.766  33.212  31.316  1.00  0.00     0.064 A 
ATOM    104  C   UNL A   1      35.862  33.963  30.531  1.00  0.00     0.173 A 
ATOM    105  C   UNL A   1      36.402  33.092  32.674  1.00  0.00     0.173 A 
ATOM    106  F   UNL A   1      36.082  34.173  29.226  1.00  0.00    -0.203 F 
ATOM    107  C   UNL A   1      34.709  34.549  31.067  1.00  0.00     0.198 A 
ATOM    108  C   UNL A   1      35.223  33.633  33.195  1.00  0.00     0.198 A 
ATOM    109  F   UNL A   1      37.192  32.510  33.581  1.00  0.00    -0.203 F 
ATOM    110  F   UNL A   1      33.923  35.304  30.285  1.00  0.00    -0.200 F 
ATOM    111  C   UNL A   1      34.383  34.375  32.396  1.00  0.00     0.200 A 
ATOM    112  F   UNL A   1      34.930  33.454  34.491  1.00  0.00    -0.200 F 
ATOM    113  F   UNL A   1      33.282  34.937  32.910  1.00  0.00    -0.200 F 
ENDBRANCH  83 103
BRANCH  86 114
ATOM    114  C   UNL A   1      44.699  28.928  27.952  1.00  0.00     0.064 A 
ATOM    115  C   UNL A   1      45.590  27.853  28.150  1.00  0.00     0.173 A 
ATOM    116  C   UNL A   1      43.914  28.913  26.794  1.00  0.00     0.173 A 
ATOM    117  F   UNL A   1      46.367  27.820  29.246  1.00  0.00    -0.203 F 
ATOM    118  C   UNL A   1      45.603  26.757  27.292  1.00  0.00     0.198 A 
ATOM    119  C   UNL A   1      43.946  27.821  25.926  1.00  0.00     0.198 A 
ATOM    120  F   UNL A   1      43.030  29.893  26.560  1.00  0.00    -0.203 F 
ATOM    121  F   UNL A   1      46.378  25.699  27.571  1.00  0.00    -0.200 F 
ATOM    122  C   UNL A   1      44.760  26.731  26.194  1.00  0.00     0.200 A 
ATOM    123  F   UNL A   1      43.109  27.783  24.879  1.00  0.00    -0.200 F 
ATOM    124  F   UNL A   1      44.701  25.640  25.418  1.00  0.00    -0.200 F 
ENDBRANCH  86 114
BRANCH 101 125
ATOM    125  C   UNL A   1      42.666  35.689  29.366  1.00  0.00     0.064 A 
ATOM    126  C   UNL A   1      42.052  36.146  28.190  1.00  0.00     0.173 A 
ATOM    127  C   UNL A   1      43.466  36.618  30.061  1.00  0.00     0.173 A 
ATOM    128  F   UNL A   1      41.294  35.321  27.453  1.00  0.00    -0.203 F 
ATOM    129  C   UNL A   1      42.214  37.459  27.746  1.00  0.00     0.198 A 
ATOM    130  C   UNL A   1      43.666  37.913  29.590  1.00  0.00     0.198 A 
ATOM    131  F   UNL A   1      44.051  36.296  31.226  1.00  0.00    -0.203 F 
ATOM    132  F   UNL A   1      41.578  37.871  26.642  1.00  0.00    -0.200 F 
ATOM    133  C   UNL A   1      43.034  38.336  28.437  1.00  0.00     0.200 A 
ATOM    134  F   UNL A   1      44.470  38.750  30.263  1.00  0.00    -0.200 F 
ATOM    135  F   UNL A   1      43.209  39.589  27.994  1.00  0.00    -0.200 F 
ENDBRANCH 101 125
ENDBRANCH  66  69
ENDBRANCH  56  59
ENDBRANCH  52  55
ENDBRANCH  49  52
ENDBRANCH  46  49
ENDBRANCH  43  46
ENDBRANCH   1  43
TORSDOF 18
ENDMDL
MODEL 6
REMARK VINA RESULT:     -12.5      3.853     10.052
REMARK SMILES Cc1ccc(Nc2c(C)cccc2Cl)c(CC(=O)NCCCCCCNC(=O)c2ccc(-c3c4nc(c(-c5c(F)c(F)c(F)c(F)c5F)c5ccc([nH]5)c(-c5c(F)c(F)c(F)c(F)c5F)c5nc(c(-c6c(F)c(F)c(F)c(F)c6F)c6ccc3[nH]6)C=C5)C=C4)cc2)c1
REMARK SMILES IDX 21 1 20 4 19 7 17 8 18 9 16 11 15 14 2 15 3 16 92 17 4 18
REMARK SMILES IDX 5 21 1 23 6 27 7 29 8 30 13 31 10 32 12 33 14 34 11 35 9 39
REMARK SMILES IDX 22 43 23 46 24 49 25 52 26 55 27 56 28 58 29 59 30 60 91 61
REMARK SMILES IDX 31 62 90 64 32 66 33 69 34 70 84 71 35 72 89 73 83 74 85 75
REMARK SMILES IDX 36 76 88 77 82 79 81 81 37 83 69 86 49 87 68 88 50 89 53 90
REMARK SMILES IDX 67 91 86 92 51 93 52 95 66 97 87 98 54 101 38 103 39 104
REMARK SMILES IDX 47 105 40 106 41 107 45 108 48 109 42 110 43 111 46 112
REMARK SMILES IDX 44 113 70 114 71 115 79 116 72 117 73 118 77 119 80 120
REMARK SMILES IDX 74 121 75 122 78 123 76 124 55 125 56 126 64 127 57 128
REMARK SMILES IDX 58 129 62 130 65 131 59 132 60 133 63 134 61 135
REMARK H PARENT 21 2 21 3 20 5 20 6 19 10 16 12 16 13 3 19 92 20 4 22 1 24
REMARK H PARENT 1 25 1 26 6 28 10 36 12 37 11 38 9 40 9 41 9 42 22 44 22 45
REMARK H PARENT 23 47 23 48 24 50 24 51 25 53 25 54 26 57 30 63 91 65 31 67
REMARK H PARENT 90 68 89 78 83 80 85 82 88 84 82 85 50 94 53 96 86 99 51 100
REMARK H PARENT 87 102
REMARK Flexibility Score: inf
ROOT
ATOM      1  C   UNL A   1      36.030  23.017  23.985  1.00  0.00    -0.036 C 
ATOM      2  H   UNL A   1      36.605  23.911  23.865  1.00  0.00     0.028 H 
ATOM      3  H   UNL A   1      36.137  22.328  23.175  1.00  0.00     0.028 H 
ENDROOT
BRANCH   1   4
ATOM      4  C   UNL A   1      34.550  23.406  24.020  1.00  0.00     0.017 C 
ATOM      5  H   UNL A   1      33.998  22.718  23.415  1.00  0.00     0.049 H 
ATOM      6  H   UNL A   1      34.223  23.375  25.039  1.00  0.00     0.049 H 
BRANCH   4   7
ATOM      7  N   UNL A   1      34.328  24.748  23.523  1.00  0.00    -0.356 N 
ATOM      8  C   UNL A   1      33.978  25.868  24.215  1.00  0.00     0.224 C 
ATOM      9  O   UNL A   1      33.710  26.891  23.580  1.00  0.00    -0.275 OA
ATOM     10  H   UNL A   1      34.446  24.867  22.553  1.00  0.00     0.163 HD
BRANCH   8  11
ATOM     11  C   UNL A   1      33.905  25.857  25.731  1.00  0.00     0.054 C 
ATOM     12  H   UNL A   1      33.356  24.991  26.036  1.00  0.00     0.042 H 
ATOM     13  H   UNL A   1      34.914  25.851  26.090  1.00  0.00     0.042 H 
BRANCH  11  14
ATOM     14  C   UNL A   1      33.237  27.078  26.325  1.00  0.00    -0.015 A 
ATOM     15  C   UNL A   1      33.468  29.433  26.967  1.00  0.00    -0.051 A 
ATOM     16  C   UNL A   1      32.180  29.396  27.493  1.00  0.00    -0.057 A 
ATOM     17  C   UNL A   1      33.979  28.279  26.367  1.00  0.00    -0.054 A 
ATOM     18  C   UNL A   1      31.419  28.227  27.416  1.00  0.00    -0.038 A 
ATOM     19  H   UNL A   1      31.785  30.237  27.942  1.00  0.00     0.063 H 
ATOM     20  H   UNL A   1      34.919  28.305  25.943  1.00  0.00     0.063 H 
ATOM     21  C   UNL A   1      31.922  27.050  26.837  1.00  0.00     0.042 A 
ATOM     22  H   UNL A   1      30.459  28.228  27.794  1.00  0.00     0.064 H 
BRANCH  15  23
ATOM     23  C   UNL A   1      34.280  30.690  27.046  1.00  0.00    -0.040 C 
ATOM     24  H   UNL A   1      33.631  31.538  27.000  1.00  0.00     0.028 H 
ATOM     25  H   UNL A   1      34.968  30.722  26.226  1.00  0.00     0.028 H 
ATOM     26  H   UNL A   1      34.825  30.707  27.968  1.00  0.00     0.028 H 
ENDBRANCH  15  23
BRANCH  21  27
ATOM     27  N   UNL A   1      31.113  25.901  26.708  1.00  0.00    -0.354 N 
ATOM     28  H   UNL A   1      30.620  25.636  27.519  1.00  0.00     0.167 HD
BRANCH  27  29
ATOM     29  C   UNL A   1      30.910  25.075  25.576  1.00  0.00     0.060 A 
ATOM     30  C   UNL A   1      31.192  23.692  25.603  1.00  0.00    -0.026 A 
ATOM     31  C   UNL A   1      30.483  25.654  24.361  1.00  0.00     0.064 A 
ATOM     32  C   UNL A   1      31.093  22.944  24.416  1.00  0.00    -0.057 A 
ATOM     33  C   UNL A   1      30.370  24.892  23.196  1.00  0.00    -0.041 A 
ATOM     34  Cl  UNL A   1      30.114  27.345  24.260  1.00  0.00    -0.082 Cl
ATOM     35  C   UNL A   1      30.687  23.538  23.222  1.00  0.00    -0.060 A 
ATOM     36  H   UNL A   1      31.325  21.938  24.429  1.00  0.00     0.063 H 
ATOM     37  H   UNL A   1      30.051  25.333  22.319  1.00  0.00     0.064 H 
ATOM     38  H   UNL A   1      30.622  22.975  22.360  1.00  0.00     0.062 H 
BRANCH  30  39
ATOM     39  C   UNL A   1      31.592  22.968  26.861  1.00  0.00    -0.038 C 
ATOM     40  H   UNL A   1      32.659  22.899  26.908  1.00  0.00     0.028 H 
ATOM     41  H   UNL A   1      31.172  21.984  26.855  1.00  0.00     0.028 H 
ATOM     42  H   UNL A   1      31.232  23.505  27.712  1.00  0.00     0.028 H 
ENDBRANCH  30  39
ENDBRANCH  27  29
ENDBRANCH  21  27
ENDBRANCH  11  14
ENDBRANCH   8  11
ENDBRANCH   4   7
ENDBRANCH   1   4
BRANCH   1  43
ATOM     43  C   UNL A   1      36.543  22.288  25.237  1.00  0.00    -0.052 C 
ATOM     44  H   UNL A   1      35.690  21.954  25.791  1.00  0.00     0.027 H 
ATOM     45  H   UNL A   1      37.153  23.002  25.751  1.00  0.00     0.027 H 
BRANCH  43  46
ATOM     46  C   UNL A   1      37.452  21.072  24.999  1.00  0.00    -0.052 C 
ATOM     47  H   UNL A   1      37.592  20.971  23.943  1.00  0.00     0.027 H 
ATOM     48  H   UNL A   1      36.953  20.244  25.456  1.00  0.00     0.027 H 
BRANCH  46  49
ATOM     49  C   UNL A   1      38.835  21.132  25.651  1.00  0.00    -0.036 C 
ATOM     50  H   UNL A   1      39.567  20.906  24.903  1.00  0.00     0.028 H 
ATOM     51  H   UNL A   1      38.826  20.424  26.453  1.00  0.00     0.028 H 
BRANCH  49  52
ATOM     52  C   UNL A   1      39.184  22.480  26.266  1.00  0.00     0.018 C 
ATOM     53  H   UNL A   1      38.779  22.514  27.256  1.00  0.00     0.049 H 
ATOM     54  H   UNL A   1      38.767  23.233  25.629  1.00  0.00     0.049 H 
BRANCH  52  55
ATOM     55  N   UNL A   1      40.615  22.735  26.344  1.00  0.00    -0.352 N 
ATOM     56  C   UNL A   1      41.308  23.923  26.511  1.00  0.00     0.251 C 
ATOM     57  H   UNL A   1      41.181  21.933  26.268  1.00  0.00     0.163 HD
ATOM     58  O   UNL A   1      42.523  23.926  26.467  1.00  0.00    -0.269 OA
BRANCH  56  59
ATOM     59  C   UNL A   1      40.578  25.160  26.896  1.00  0.00     0.039 A 
ATOM     60  C   UNL A   1      40.802  26.306  26.120  1.00  0.00    -0.049 A 
ATOM     61  C   UNL A   1      39.874  25.259  28.091  1.00  0.00    -0.049 A 
ATOM     62  C   UNL A   1      40.574  27.563  26.674  1.00  0.00    -0.053 A 
ATOM     63  H   UNL A   1      41.134  26.218  25.148  1.00  0.00     0.063 H 
ATOM     64  C   UNL A   1      39.737  26.499  28.680  1.00  0.00    -0.053 A 
ATOM     65  H   UNL A   1      39.460  24.421  28.528  1.00  0.00     0.063 H 
ATOM     66  C   UNL A   1      40.174  27.642  28.004  1.00  0.00    -0.014 A 
ATOM     67  H   UNL A   1      40.698  28.418  26.109  1.00  0.00     0.063 H 
ATOM     68  H   UNL A   1      39.313  26.583  29.617  1.00  0.00     0.063 H 
BRANCH  66  69
ATOM     69  C   UNL A   1      40.357  28.827  28.834  1.00  0.00     0.031 A 
ATOM     70  C   UNL A   1      39.320  29.873  28.906  1.00  0.00     0.074 A 
ATOM     71  C   UNL A   1      41.413  28.850  29.680  1.00  0.00     0.049 A 
ATOM     72  N   UNL A   1      39.480  30.995  29.522  1.00  0.00    -0.248 NA
ATOM     73  C   UNL A   1      38.031  29.773  28.227  1.00  0.00    -0.034 C 
ATOM     74  C   UNL A   1      41.598  29.692  30.860  1.00  0.00    -0.036 A 
ATOM     75  N   UNL A   1      42.667  28.235  29.500  1.00  0.00    -0.354 N 
ATOM     76  C   UNL A   1      38.259  31.616  29.581  1.00  0.00     0.074 A 
ATOM     77  C   UNL A   1      37.432  30.892  28.650  1.00  0.00    -0.034 C 
ATOM     78  H   UNL A   1      37.678  29.038  27.594  1.00  0.00     0.065 H 
ATOM     79  C   UNL A   1      42.911  29.797  31.115  1.00  0.00    -0.036 A 
ATOM     80  H   UNL A   1      40.842  30.135  31.407  1.00  0.00     0.065 H 
ATOM     81  C   UNL A   1      43.608  29.163  30.012  1.00  0.00     0.049 A 
ATOM     82  H   UNL A   1      42.850  27.351  29.104  1.00  0.00     0.167 HD
ATOM     83  C   UNL A   1      38.075  32.593  30.513  1.00  0.00     0.037 A 
ATOM     84  H   UNL A   1      36.493  31.198  28.347  1.00  0.00     0.065 H 
ATOM     85  H   UNL A   1      43.342  30.243  31.940  1.00  0.00     0.065 H 
ATOM     86  C   UNL A   1      44.483  29.796  29.176  1.00  0.00     0.037 A 
ATOM     87  C   UNL A   1      39.360  33.074  31.025  1.00  0.00     0.049 A 
ATOM     88  C   UNL A   1      44.342  31.306  29.125  1.00  0.00     0.074 A 
ATOM     89  C   UNL A   1      40.063  32.960  32.211  1.00  0.00    -0.036 A 
ATOM     90  N   UNL A   1      40.240  33.632  30.112  1.00  0.00    -0.354 N 
ATOM     91  N   UNL A   1      43.416  31.983  29.746  1.00  0.00    -0.248 NA
ATOM     92  C   UNL A   1      45.178  32.157  28.276  1.00  0.00    -0.034 C 
ATOM     93  C   UNL A   1      41.408  33.385  31.964  1.00  0.00    -0.036 A 
ATOM     94  H   UNL A   1      39.686  32.627  33.112  1.00  0.00     0.065 H 
ATOM     95  C   UNL A   1      41.503  33.786  30.642  1.00  0.00     0.049 A 
ATOM     96  H   UNL A   1      39.993  33.889  29.194  1.00  0.00     0.167 HD
ATOM     97  C   UNL A   1      43.476  33.293  29.356  1.00  0.00     0.074 A 
ATOM     98  C   UNL A   1      44.598  33.358  28.439  1.00  0.00    -0.034 C 
ATOM     99  H   UNL A   1      45.997  31.902  27.702  1.00  0.00     0.065 H 
ATOM    100  H   UNL A   1      42.176  33.391  32.653  1.00  0.00     0.065 H 
ATOM    101  C   UNL A   1      42.575  34.229  29.767  1.00  0.00     0.037 A 
ATOM    102  H   UNL A   1      44.912  34.221  27.970  1.00  0.00     0.065 H 
BRANCH  83 103
ATOM    103  C   UNL A   1      36.738  33.046  31.062  1.00  0.00     0.064 A 
ATOM    104  C   UNL A   1      35.899  33.875  30.282  1.00  0.00     0.173 A 
ATOM    105  C   UNL A   1      36.277  32.820  32.377  1.00  0.00     0.173 A 
ATOM    106  F   UNL A   1      36.214  34.190  29.018  1.00  0.00    -0.203 F 
ATOM    107  C   UNL A   1      34.718  34.434  30.784  1.00  0.00     0.198 A 
ATOM    108  C   UNL A   1      35.070  33.336  32.858  1.00  0.00     0.198 A 
ATOM    109  F   UNL A   1      36.995  32.151  33.284  1.00  0.00    -0.203 F 
ATOM    110  F   UNL A   1      33.998  35.265  30.016  1.00  0.00    -0.200 F 
ATOM    111  C   UNL A   1      34.298  34.156  32.068  1.00  0.00     0.200 A 
ATOM    112  F   UNL A   1      34.685  33.055  34.111  1.00  0.00    -0.200 F 
ATOM    113  F   UNL A   1      33.169  34.692  32.550  1.00  0.00    -0.200 F 
ENDBRANCH  83 103
BRANCH  86 114
ATOM    114  C   UNL A   1      44.897  28.944  28.029  1.00  0.00     0.064 A 
ATOM    115  C   UNL A   1      45.845  27.927  28.255  1.00  0.00     0.173 A 
ATOM    116  C   UNL A   1      44.131  28.867  26.861  1.00  0.00     0.173 A 
ATOM    117  F   UNL A   1      46.607  27.954  29.362  1.00  0.00    -0.203 F 
ATOM    118  C   UNL A   1      45.934  26.820  27.415  1.00  0.00     0.198 A 
ATOM    119  C   UNL A   1      44.238  27.766  26.009  1.00  0.00     0.198 A 
ATOM    120  F   UNL A   1      43.195  29.790  26.599  1.00  0.00    -0.203 F 
ATOM    121  F   UNL A   1      46.765  25.813  27.721  1.00  0.00    -0.200 F 
ATOM    122  C   UNL A   1      45.110  26.729  26.306  1.00  0.00     0.200 A 
ATOM    123  F   UNL A   1      43.420  27.664  24.953  1.00  0.00    -0.200 F 
ATOM    124  F   UNL A   1      45.125  25.625  25.546  1.00  0.00    -0.200 F 
ENDBRANCH  86 114
BRANCH 101 125
ATOM    125  C   UNL A   1      42.647  35.659  29.332  1.00  0.00     0.064 A 
ATOM    126  C   UNL A   1      42.045  36.102  28.145  1.00  0.00     0.173 A 
ATOM    127  C   UNL A   1      43.419  36.604  30.038  1.00  0.00     0.173 A 
ATOM    128  F   UNL A   1      41.314  35.262  27.397  1.00  0.00    -0.203 F 
ATOM    129  C   UNL A   1      42.192  37.417  27.699  1.00  0.00     0.198 A 
ATOM    130  C   UNL A   1      43.604  37.901  29.566  1.00  0.00     0.198 A 
ATOM    131  F   UNL A   1      43.990  36.295  31.212  1.00  0.00    -0.203 F 
ATOM    132  F   UNL A   1      41.567  37.814  26.584  1.00  0.00    -0.200 F 
ATOM    133  C   UNL A   1      42.984  38.310  28.401  1.00  0.00     0.200 A 
ATOM    134  F   UNL A   1      44.382  38.753  30.249  1.00  0.00    -0.200 F 
ATOM    135  F   UNL A   1      43.145  39.565  27.958  1.00  0.00    -0.200 F 
ENDBRANCH 101 125
ENDBRANCH  66  69
ENDBRANCH  56  59
ENDBRANCH  52  55
ENDBRANCH  49  52
ENDBRANCH  46  49
ENDBRANCH  43  46
ENDBRANCH   1  43
TORSDOF 18
ENDMDL
MODEL 7
REMARK VINA RESULT:     -12.5      1.358      3.003
REMARK SMILES Cc1ccc(Nc2c(C)cccc2Cl)c(CC(=O)NCCCCCCNC(=O)c2ccc(-c3c4nc(c(-c5c(F)c(F)c(F)c(F)c5F)c5ccc([nH]5)c(-c5c(F)c(F)c(F)c(F)c5F)c5nc(c(-c6c(F)c(F)c(F)c(F)c6F)c6ccc3[nH]6)C=C5)C=C4)cc2)c1
REMARK SMILES IDX 21 1 20 4 19 7 17 8 18 9 16 11 15 14 2 15 3 16 92 17 4 18
REMARK SMILES IDX 5 21 1 23 6 27 7 29 8 30 13 31 10 32 12 33 14 34 11 35 9 39
REMARK SMILES IDX 22 43 23 46 24 49 25 52 26 55 27 56 28 58 29 59 30 60 91 61
REMARK SMILES IDX 31 62 90 64 32 66 33 69 34 70 84 71 35 72 89 73 83 74 85 75
REMARK SMILES IDX 36 76 88 77 82 79 81 81 37 83 69 86 49 87 68 88 50 89 53 90
REMARK SMILES IDX 67 91 86 92 51 93 52 95 66 97 87 98 54 101 38 103 39 104
REMARK SMILES IDX 47 105 40 106 41 107 45 108 48 109 42 110 43 111 46 112
REMARK SMILES IDX 44 113 70 114 71 115 79 116 72 117 73 118 77 119 80 120
REMARK SMILES IDX 74 121 75 122 78 123 76 124 55 125 56 126 64 127 57 128
REMARK SMILES IDX 58 129 62 130 65 131 59 132 60 133 63 134 61 135
REMARK H PARENT 21 2 21 3 20 5 20 6 19 10 16 12 16 13 3 19 92 20 4 22 1 24
REMARK H PARENT 1 25 1 26 6 28 10 36 12 37 11 38 9 40 9 41 9 42 22 44 22 45
REMARK H PARENT 23 47 23 48 24 50 24 51 25 53 25 54 26 57 30 63 91 65 31 67
REMARK H PARENT 90 68 89 78 83 80 85 82 88 84 82 85 50 94 53 96 86 99 51 100
REMARK H PARENT 87 102
REMARK Flexibility Score: inf
ROOT
ATOM      1  C   UNL A   1      31.358  27.573  27.033  1.00  0.00    -0.036 C 
ATOM      2  H   UNL A   1      31.058  27.297  28.022  1.00  0.00     0.028 H 
ATOM      3  H   UNL A   1      30.570  28.004  26.453  1.00  0.00     0.028 H 
ENDROOT
BRANCH   1   4
ATOM      4  C   UNL A   1      31.784  26.301  26.294  1.00  0.00     0.017 C 
ATOM      5  H   UNL A   1      31.305  26.281  25.338  1.00  0.00     0.049 H 
ATOM      6  H   UNL A   1      32.849  26.318  26.195  1.00  0.00     0.049 H 
BRANCH   4   7
ATOM      7  N   UNL A   1      31.424  25.103  27.023  1.00  0.00    -0.356 N 
ATOM      8  C   UNL A   1      30.848  23.960  26.555  1.00  0.00     0.224 C 
ATOM      9  O   UNL A   1      30.501  23.101  27.369  1.00  0.00    -0.275 OA
ATOM     10  H   UNL A   1      31.620  25.116  27.987  1.00  0.00     0.163 HD
BRANCH   8  11
ATOM     11  C   UNL A   1      30.624  23.752  25.067  1.00  0.00     0.054 C 
ATOM     12  H   UNL A   1      29.985  22.904  24.938  1.00  0.00     0.042 H 
ATOM     13  H   UNL A   1      30.192  24.656  24.690  1.00  0.00     0.042 H 
BRANCH  11  14
ATOM     14  C   UNL A   1      31.896  23.513  24.281  1.00  0.00    -0.015 A 
ATOM     15  C   UNL A   1      33.997  22.262  24.115  1.00  0.00    -0.051 A 
ATOM     16  C   UNL A   1      34.340  23.024  23.001  1.00  0.00    -0.057 A 
ATOM     17  C   UNL A   1      32.767  22.497  24.733  1.00  0.00    -0.054 A 
ATOM     18  C   UNL A   1      33.466  24.001  22.517  1.00  0.00    -0.038 A 
ATOM     19  H   UNL A   1      35.246  22.867  22.531  1.00  0.00     0.063 H 
ATOM     20  H   UNL A   1      32.488  21.915  25.538  1.00  0.00     0.063 H 
ATOM     21  C   UNL A   1      32.235  24.269  23.139  1.00  0.00     0.042 A 
ATOM     22  H   UNL A   1      33.732  24.540  21.679  1.00  0.00     0.064 H 
BRANCH  15  23
ATOM     23  C   UNL A   1      34.935  21.212  24.628  1.00  0.00    -0.040 C 
ATOM     24  H   UNL A   1      35.380  21.546  25.541  1.00  0.00     0.028 H 
ATOM     25  H   UNL A   1      35.700  21.032  23.902  1.00  0.00     0.028 H 
ATOM     26  H   UNL A   1      34.394  20.306  24.807  1.00  0.00     0.028 H 
ENDBRANCH  15  23
BRANCH  21  27
ATOM     27  N   UNL A   1      31.336  25.211  22.594  1.00  0.00    -0.354 N 
ATOM     28  H   UNL A   1      30.752  24.874  21.876  1.00  0.00     0.167 HD
BRANCH  27  29
ATOM     29  C   UNL A   1      31.156  26.574  22.935  1.00  0.00     0.060 A 
ATOM     30  C   UNL A   1      29.943  27.052  23.474  1.00  0.00    -0.026 A 
ATOM     31  C   UNL A   1      32.188  27.499  22.664  1.00  0.00     0.064 A 
ATOM     32  C   UNL A   1      29.774  28.434  23.676  1.00  0.00    -0.057 A 
ATOM     33  C   UNL A   1      32.011  28.866  22.889  1.00  0.00    -0.041 A 
ATOM     34  Cl  UNL A   1      33.704  26.977  22.007  1.00  0.00    -0.082 Cl
ATOM     35  C   UNL A   1      30.798  29.334  23.384  1.00  0.00    -0.060 A 
ATOM     36  H   UNL A   1      28.877  28.787  24.045  1.00  0.00     0.063 H 
ATOM     37  H   UNL A   1      32.778  29.527  22.689  1.00  0.00     0.064 H 
ATOM     38  H   UNL A   1      30.657  30.345  23.535  1.00  0.00     0.062 H 
BRANCH  30  39
ATOM     39  C   UNL A   1      28.807  26.141  23.857  1.00  0.00    -0.038 C 
ATOM     40  H   UNL A   1      28.717  26.112  24.923  1.00  0.00     0.028 H 
ATOM     41  H   UNL A   1      29.002  25.155  23.490  1.00  0.00     0.028 H 
ATOM     42  H   UNL A   1      27.896  26.507  23.432  1.00  0.00     0.028 H 
ENDBRANCH  30  39
ENDBRANCH  27  29
ENDBRANCH  21  27
ENDBRANCH  11  14
ENDBRANCH   8  11
ENDBRANCH   4   7
ENDBRANCH   1   4
BRANCH   1  43
ATOM     43  C   UNL A   1      32.443  28.655  27.149  1.00  0.00    -0.052 C 
ATOM     44  H   UNL A   1      33.252  28.375  26.508  1.00  0.00     0.027 H 
ATOM     45  H   UNL A   1      32.694  28.693  28.189  1.00  0.00     0.027 H 
BRANCH  43  46
ATOM     46  C   UNL A   1      32.027  30.087  26.779  1.00  0.00    -0.052 C 
ATOM     47  H   UNL A   1      31.064  30.269  27.210  1.00  0.00     0.027 H 
ATOM     48  H   UNL A   1      32.043  30.126  25.711  1.00  0.00     0.027 H 
BRANCH  46  49
ATOM     49  C   UNL A   1      32.966  31.200  27.248  1.00  0.00    -0.036 C 
ATOM     50  H   UNL A   1      32.561  31.626  28.143  1.00  0.00     0.028 H 
ATOM     51  H   UNL A   1      33.032  31.903  26.444  1.00  0.00     0.028 H 
BRANCH  49  52
ATOM     52  C   UNL A   1      34.388  30.743  27.541  1.00  0.00     0.018 C 
ATOM     53  H   UNL A   1      34.960  30.818  26.639  1.00  0.00     0.049 H 
ATOM     54  H   UNL A   1      34.326  29.737  27.901  1.00  0.00     0.049 H 
BRANCH  52  55
ATOM     55  N   UNL A   1      35.053  31.524  28.573  1.00  0.00    -0.352 N 
ATOM     56  C   UNL A   1      36.133  31.210  29.382  1.00  0.00     0.251 C 
ATOM     57  H   UNL A   1      34.675  32.422  28.718  1.00  0.00     0.163 HD
ATOM     58  O   UNL A   1      36.486  31.985  30.249  1.00  0.00    -0.269 OA
BRANCH  56  59
ATOM     59  C   UNL A   1      36.953  30.004  29.089  1.00  0.00     0.039 A 
ATOM     60  C   UNL A   1      37.063  29.041  30.102  1.00  0.00    -0.049 A 
ATOM     61  C   UNL A   1      37.758  29.915  27.959  1.00  0.00    -0.049 A 
ATOM     62  C   UNL A   1      38.155  28.176  30.109  1.00  0.00    -0.053 A 
ATOM     63  H   UNL A   1      36.342  28.974  30.836  1.00  0.00     0.063 H 
ATOM     64  C   UNL A   1      38.891  29.130  28.009  1.00  0.00    -0.053 A 
ATOM     65  H   UNL A   1      37.511  30.426  27.097  1.00  0.00     0.063 H 
ATOM     66  C   UNL A   1      39.132  28.330  29.131  1.00  0.00    -0.014 A 
ATOM     67  H   UNL A   1      38.236  27.437  30.825  1.00  0.00     0.063 H 
ATOM     68  H   UNL A   1      39.559  29.132  27.223  1.00  0.00     0.063 H 
BRANCH  66  69
ATOM     69  C   UNL A   1      40.503  27.857  29.277  1.00  0.00     0.031 A 
ATOM     70  C   UNL A   1      40.902  26.520  28.800  1.00  0.00     0.074 A 
ATOM     71  C   UNL A   1      41.439  28.744  29.687  1.00  0.00     0.049 A 
ATOM     72  N   UNL A   1      42.064  26.002  29.014  1.00  0.00    -0.248 NA
ATOM     73  C   UNL A   1      39.996  25.616  28.095  1.00  0.00    -0.034 C 
ATOM     74  C   UNL A   1      42.890  28.652  29.534  1.00  0.00    -0.036 A 
ATOM     75  N   UNL A   1      41.255  29.847  30.542  1.00  0.00    -0.354 N 
ATOM     76  C   UNL A   1      42.165  24.870  28.247  1.00  0.00     0.074 A 
ATOM     77  C   UNL A   1      40.818  24.600  27.810  1.00  0.00    -0.034 C 
ATOM     78  H   UNL A   1      38.994  25.731  27.877  1.00  0.00     0.065 H 
ATOM     79  C   UNL A   1      43.473  29.412  30.474  1.00  0.00    -0.036 A 
ATOM     80  H   UNL A   1      43.385  28.092  28.822  1.00  0.00     0.065 H 
ATOM     81  C   UNL A   1      42.417  29.880  31.353  1.00  0.00     0.049 A 
ATOM     82  H   UNL A   1      40.486  30.462  30.571  1.00  0.00     0.167 HD
ATOM     83  C   UNL A   1      43.407  24.379  27.978  1.00  0.00     0.037 A 
ATOM     84  H   UNL A   1      40.525  23.731  27.336  1.00  0.00     0.065 H 
ATOM     85  H   UNL A   1      44.479  29.625  30.554  1.00  0.00     0.065 H 
ATOM     86  C   UNL A   1      42.339  29.608  32.690  1.00  0.00     0.037 A 
ATOM     87  C   UNL A   1      44.399  24.938  28.900  1.00  0.00     0.049 A 
ATOM     88  C   UNL A   1      43.126  28.393  33.143  1.00  0.00     0.074 A 
ATOM     89  C   UNL A   1      45.436  25.850  28.811  1.00  0.00    -0.036 A 
ATOM     90  N   UNL A   1      44.219  24.697  30.253  1.00  0.00    -0.354 N 
ATOM     91  N   UNL A   1      43.772  27.589  32.344  1.00  0.00    -0.248 NA
ATOM     92  C   UNL A   1      43.152  27.933  34.533  1.00  0.00    -0.034 C 
ATOM     93  C   UNL A   1      45.815  26.211  30.143  1.00  0.00    -0.036 A 
ATOM     94  H   UNL A   1      45.859  26.206  27.941  1.00  0.00     0.065 H 
ATOM     95  C   UNL A   1      45.032  25.492  31.031  1.00  0.00     0.049 A 
ATOM     96  H   UNL A   1      43.585  24.035  30.615  1.00  0.00     0.167 HD
ATOM     97  C   UNL A   1      44.228  26.514  33.055  1.00  0.00     0.074 A 
ATOM     98  C   UNL A   1      43.823  26.773  34.423  1.00  0.00    -0.034 C 
ATOM     99  H   UNL A   1      42.758  28.380  35.375  1.00  0.00     0.065 H 
ATOM    100  H   UNL A   1      46.547  26.891  30.400  1.00  0.00     0.065 H 
ATOM    101  C   UNL A   1      44.863  25.458  32.473  1.00  0.00     0.037 A 
ATOM    102  H   UNL A   1      44.025  26.144  35.216  1.00  0.00     0.065 H 
BRANCH  83 103
ATOM    103  C   UNL A   1      43.767  23.481  26.813  1.00  0.00     0.064 A 
ATOM    104  C   UNL A   1      43.316  22.142  26.787  1.00  0.00     0.173 A 
ATOM    105  C   UNL A   1      44.649  23.821  25.765  1.00  0.00     0.173 A 
ATOM    106  F   UNL A   1      42.484  21.671  27.727  1.00  0.00    -0.203 F 
ATOM    107  C   UNL A   1      43.725  21.229  25.808  1.00  0.00     0.198 A 
ATOM    108  C   UNL A   1      45.014  22.922  24.758  1.00  0.00     0.198 A 
ATOM    109  F   UNL A   1      45.257  25.009  25.694  1.00  0.00    -0.203 F 
ATOM    110  F   UNL A   1      43.313  19.955  25.874  1.00  0.00    -0.200 F 
ATOM    111  C   UNL A   1      44.566  21.621  24.788  1.00  0.00     0.200 A 
ATOM    112  F   UNL A   1      45.836  23.326  23.778  1.00  0.00    -0.200 F 
ATOM    113  F   UNL A   1      44.960  20.749  23.851  1.00  0.00    -0.200 F 
ENDBRANCH  83 103
BRANCH  86 114
ATOM    114  C   UNL A   1      41.056  30.060  33.291  1.00  0.00     0.064 A 
ATOM    115  C   UNL A   1      40.877  31.436  33.538  1.00  0.00     0.173 A 
ATOM    116  C   UNL A   1      39.913  29.253  33.272  1.00  0.00     0.173 A 
ATOM    117  F   UNL A   1      41.942  32.255  33.567  1.00  0.00    -0.203 F 
ATOM    118  C   UNL A   1      39.606  31.995  33.637  1.00  0.00     0.198 A 
ATOM    119  C   UNL A   1      38.641  29.813  33.392  1.00  0.00     0.198 A 
ATOM    120  F   UNL A   1      40.013  27.940  33.018  1.00  0.00    -0.203 F 
ATOM    121  F   UNL A   1      39.466  33.323  33.755  1.00  0.00    -0.200 F 
ATOM    122  C   UNL A   1      38.488  31.184  33.537  1.00  0.00     0.200 A 
ATOM    123  F   UNL A   1      37.559  29.033  33.267  1.00  0.00    -0.200 F 
ATOM    124  F   UNL A   1      37.262  31.726  33.538  1.00  0.00    -0.200 F 
ENDBRANCH  86 114
BRANCH 101 125
ATOM    125  C   UNL A   1      45.356  24.284  33.261  1.00  0.00     0.064 A 
ATOM    126  C   UNL A   1      44.518  23.207  33.584  1.00  0.00     0.173 A 
ATOM    127  C   UNL A   1      46.654  24.260  33.809  1.00  0.00     0.173 A 
ATOM    128  F   UNL A   1      43.258  23.161  33.126  1.00  0.00    -0.203 F 
ATOM    129  C   UNL A   1      44.958  22.158  34.394  1.00  0.00     0.198 A 
ATOM    130  C   UNL A   1      47.074  23.238  34.657  1.00  0.00     0.198 A 
ATOM    131  F   UNL A   1      47.549  25.216  33.515  1.00  0.00    -0.203 F 
ATOM    132  F   UNL A   1      44.144  21.125  34.646  1.00  0.00    -0.200 F 
ATOM    133  C   UNL A   1      46.230  22.183  34.942  1.00  0.00     0.200 A 
ATOM    134  F   UNL A   1      48.304  23.279  35.189  1.00  0.00    -0.200 F 
ATOM    135  F   UNL A   1      46.642  21.188  35.741  1.00  0.00    -0.200 F 
ENDBRANCH 101 125
ENDBRANCH  66  69
ENDBRANCH  56  59
ENDBRANCH  52  55
ENDBRANCH  49  52
ENDBRANCH  46  49
ENDBRANCH  43  46
ENDBRANCH   1  43
TORSDOF 18
ENDMDL
MODEL 8
REMARK VINA RESULT:     -12.5      1.214      2.097
REMARK SMILES Cc1ccc(Nc2c(C)cccc2Cl)c(CC(=O)NCCCCCCNC(=O)c2ccc(-c3c4nc(c(-c5c(F)c(F)c(F)c(F)c5F)c5ccc([nH]5)c(-c5c(F)c(F)c(F)c(F)c5F)c5nc(c(-c6c(F)c(F)c(F)c(F)c6F)c6ccc3[nH]6)C=C5)C=C4)cc2)c1
REMARK SMILES IDX 21 1 20 4 19 7 17 8 18 9 16 11 15 14 2 15 3 16 92 17 4 18
REMARK SMILES IDX 5 21 1 23 6 27 7 29 8 30 13 31 10 32 12 33 14 34 11 35 9 39
REMARK SMILES IDX 22 43 23 46 24 49 25 52 26 55 27 56 28 58 29 59 30 60 91 61
REMARK SMILES IDX 31 62 90 64 32 66 33 69 34 70 84 71 35 72 89 73 83 74 85 75
REMARK SMILES IDX 36 76 88 77 82 79 81 81 37 83 69 86 49 87 68 88 50 89 53 90
REMARK SMILES IDX 67 91 86 92 51 93 52 95 66 97 87 98 54 101 38 103 39 104
REMARK SMILES IDX 47 105 40 106 41 107 45 108 48 109 42 110 43 111 46 112
REMARK SMILES IDX 44 113 70 114 71 115 79 116 72 117 73 118 77 119 80 120
REMARK SMILES IDX 74 121 75 122 78 123 76 124 55 125 56 126 64 127 57 128
REMARK SMILES IDX 58 129 62 130 65 131 59 132 60 133 63 134 61 135
REMARK H PARENT 21 2 21 3 20 5 20 6 19 10 16 12 16 13 3 19 92 20 4 22 1 24
REMARK H PARENT 1 25 1 26 6 28 10 36 12 37 11 38 9 40 9 41 9 42 22 44 22 45
REMARK H PARENT 23 47 23 48 24 50 24 51 25 53 25 54 26 57 30 63 91 65 31 67
REMARK H PARENT 90 68 89 78 83 80 85 82 88 84 82 85 50 94 53 96 86 99 51 100
REMARK H PARENT 87 102
REMARK Flexibility Score: inf
ROOT
ATOM      1  C   UNL A   1      31.267  29.025  23.289  1.00  0.00    -0.036 C 
ATOM      2  H   UNL A   1      30.712  28.113  23.352  1.00  0.00     0.028 H 
ATOM      3  H   UNL A   1      30.850  29.733  22.605  1.00  0.00     0.028 H 
ENDROOT
BRANCH   1   4
ATOM      4  C   UNL A   1      32.665  28.693  22.760  1.00  0.00     0.017 C 
ATOM      5  H   UNL A   1      33.019  29.519  22.179  1.00  0.00     0.049 H 
ATOM      6  H   UNL A   1      33.301  28.508  23.599  1.00  0.00     0.049 H 
BRANCH   4   7
ATOM      7  N   UNL A   1      32.664  27.506  21.931  1.00  0.00    -0.356 N 
ATOM      8  C   UNL A   1      33.347  26.340  22.109  1.00  0.00     0.224 C 
ATOM      9  O   UNL A   1      33.309  25.494  21.213  1.00  0.00    -0.275 OA
ATOM     10  H   UNL A   1      32.094  27.546  21.130  1.00  0.00     0.163 HD
BRANCH   8  11
ATOM     11  C   UNL A   1      34.148  26.092  23.375  1.00  0.00     0.054 C 
ATOM     12  H   UNL A   1      34.925  25.391  23.150  1.00  0.00     0.042 H 
ATOM     13  H   UNL A   1      34.529  27.041  23.692  1.00  0.00     0.042 H 
BRANCH  11  14
ATOM     14  C   UNL A   1      33.330  25.542  24.524  1.00  0.00    -0.015 A 
ATOM     15  C   UNL A   1      31.861  26.047  26.419  1.00  0.00    -0.051 A 
ATOM     16  C   UNL A   1      31.854  24.695  26.750  1.00  0.00    -0.057 A 
ATOM     17  C   UNL A   1      32.581  26.457  25.295  1.00  0.00    -0.054 A 
ATOM     18  C   UNL A   1      32.554  23.773  25.967  1.00  0.00    -0.038 A 
ATOM     19  H   UNL A   1      31.329  24.372  27.579  1.00  0.00     0.063 H 
ATOM     20  H   UNL A   1      32.564  27.452  25.020  1.00  0.00     0.063 H 
ATOM     21  C   UNL A   1      33.303  24.169  24.847  1.00  0.00     0.042 A 
ATOM     22  H   UNL A   1      32.519  22.773  26.220  1.00  0.00     0.064 H 
BRANCH  15  23
ATOM     23  C   UNL A   1      31.105  27.033  27.257  1.00  0.00    -0.040 C 
ATOM     24  H   UNL A   1      30.114  26.669  27.430  1.00  0.00     0.028 H 
ATOM     25  H   UNL A   1      31.055  27.972  26.746  1.00  0.00     0.028 H 
ATOM     26  H   UNL A   1      31.605  27.164  28.194  1.00  0.00     0.028 H 
ENDBRANCH  15  23
BRANCH  21  27
ATOM     27  N   UNL A   1      33.946  23.214  24.030  1.00  0.00    -0.354 N 
ATOM     28  H   UNL A   1      33.862  23.361  23.060  1.00  0.00     0.167 HD
BRANCH  27  29
ATOM     29  C   UNL A   1      34.696  22.074  24.410  1.00  0.00     0.060 A 
ATOM     30  C   UNL A   1      36.081  22.147  24.671  1.00  0.00    -0.026 A 
ATOM     31  C   UNL A   1      34.063  20.813  24.461  1.00  0.00     0.064 A 
ATOM     32  C   UNL A   1      36.800  20.964  24.920  1.00  0.00    -0.057 A 
ATOM     33  C   UNL A   1      34.789  19.650  24.730  1.00  0.00    -0.041 A 
ATOM     34  Cl  UNL A   1      32.365  20.654  24.157  1.00  0.00    -0.082 Cl
ATOM     35  C   UNL A   1      36.160  19.725  24.947  1.00  0.00    -0.060 A 
ATOM     36  H   UNL A   1      37.818  21.013  25.084  1.00  0.00     0.063 H 
ATOM     37  H   UNL A   1      34.308  18.737  24.768  1.00  0.00     0.064 H 
ATOM     38  H   UNL A   1      36.703  18.867  25.129  1.00  0.00     0.062 H 
BRANCH  30  39
ATOM     39  C   UNL A   1      36.835  23.449  24.704  1.00  0.00    -0.038 C 
ATOM     40  H   UNL A   1      36.797  23.908  23.737  1.00  0.00     0.028 H 
ATOM     41  H   UNL A   1      37.856  23.264  24.969  1.00  0.00     0.028 H 
ATOM     42  H   UNL A   1      36.391  24.101  25.426  1.00  0.00     0.028 H 
ENDBRANCH  30  39
ENDBRANCH  27  29
ENDBRANCH  21  27
ENDBRANCH  11  14
ENDBRANCH   8  11
ENDBRANCH   4   7
ENDBRANCH   1   4
BRANCH   1  43
ATOM     43  C   UNL A   1      31.236  29.697  24.671  1.00  0.00    -0.052 C 
ATOM     44  H   UNL A   1      30.587  29.121  25.299  1.00  0.00     0.027 H 
ATOM     45  H   UNL A   1      30.904  30.699  24.492  1.00  0.00     0.027 H 
BRANCH  43  46
ATOM     46  C   UNL A   1      32.583  29.839  25.396  1.00  0.00    -0.052 C 
ATOM     47  H   UNL A   1      33.267  30.316  24.725  1.00  0.00     0.027 H 
ATOM     48  H   UNL A   1      32.866  28.847  25.677  1.00  0.00     0.027 H 
BRANCH  46  49
ATOM     49  C   UNL A   1      32.564  30.647  26.695  1.00  0.00    -0.036 C 
ATOM     50  H   UNL A   1      31.584  30.575  27.120  1.00  0.00     0.028 H 
ATOM     51  H   UNL A   1      32.834  31.649  26.436  1.00  0.00     0.028 H 
BRANCH  49  52
ATOM     52  C   UNL A   1      33.570  30.183  27.740  1.00  0.00     0.018 C 
ATOM     53  H   UNL A   1      34.230  29.475  27.283  1.00  0.00     0.049 H 
ATOM     54  H   UNL A   1      33.009  29.756  28.546  1.00  0.00     0.049 H 
BRANCH  52  55
ATOM     55  N   UNL A   1      34.369  31.262  28.302  1.00  0.00    -0.352 N 
ATOM     56  C   UNL A   1      35.622  31.238  28.894  1.00  0.00     0.251 C 
ATOM     57  H   UNL A   1      33.953  32.153  28.251  1.00  0.00     0.163 HD
ATOM     58  O   UNL A   1      36.083  32.253  29.378  1.00  0.00    -0.269 OA
BRANCH  56  59
ATOM     59  C   UNL A   1      36.463  30.015  28.799  1.00  0.00     0.039 A 
ATOM     60  C   UNL A   1      36.680  29.291  29.980  1.00  0.00    -0.049 A 
ATOM     61  C   UNL A   1      37.189  29.705  27.654  1.00  0.00    -0.049 A 
ATOM     62  C   UNL A   1      37.801  28.471  30.085  1.00  0.00    -0.053 A 
ATOM     63  H   UNL A   1      36.015  29.366  30.765  1.00  0.00     0.063 H 
ATOM     64  C   UNL A   1      38.351  28.973  27.782  1.00  0.00    -0.053 A 
ATOM     65  H   UNL A   1      36.864  30.016  26.725  1.00  0.00     0.063 H 
ATOM     66  C   UNL A   1      38.700  28.435  29.024  1.00  0.00    -0.014 A 
ATOM     67  H   UNL A   1      37.960  27.903  30.932  1.00  0.00     0.063 H 
ATOM     68  H   UNL A   1      38.962  28.823  26.964  1.00  0.00     0.063 H 
BRANCH  66  69
ATOM     69  C   UNL A   1      40.095  28.033  29.162  1.00  0.00     0.031 A 
ATOM     70  C   UNL A   1      40.545  26.692  28.746  1.00  0.00     0.074 A 
ATOM     71  C   UNL A   1      40.998  28.983  29.500  1.00  0.00     0.049 A 
ATOM     72  N   UNL A   1      41.735  26.240  28.957  1.00  0.00    -0.248 NA
ATOM     73  C   UNL A   1      39.667  25.711  28.112  1.00  0.00    -0.034 C 
ATOM     74  C   UNL A   1      42.447  28.949  29.317  1.00  0.00    -0.036 A 
ATOM     75  N   UNL A   1      40.781  30.121  30.301  1.00  0.00    -0.354 N 
ATOM     76  C   UNL A   1      41.871  25.074  28.249  1.00  0.00     0.074 A 
ATOM     77  C   UNL A   1      40.529  24.720  27.861  1.00  0.00    -0.034 C 
ATOM     78  H   UNL A   1      38.656  25.768  27.913  1.00  0.00     0.065 H 
ATOM     79  C   UNL A   1      43.014  29.785  30.200  1.00  0.00    -0.036 A 
ATOM     80  H   UNL A   1      42.952  28.375  28.623  1.00  0.00     0.065 H 
ATOM     81  C   UNL A   1      41.958  30.251  31.080  1.00  0.00     0.049 A 
ATOM     82  H   UNL A   1      39.985  30.701  30.316  1.00  0.00     0.167 HD
ATOM     83  C   UNL A   1      43.128  24.626  27.976  1.00  0.00     0.037 A 
ATOM     84  H   UNL A   1      40.266  23.814  27.441  1.00  0.00     0.065 H 
ATOM     85  H   UNL A   1      44.012  30.047  30.244  1.00  0.00     0.065 H 
ATOM     86  C   UNL A   1      41.922  30.048  32.430  1.00  0.00     0.037 A 
ATOM     87  C   UNL A   1      44.113  25.278  28.843  1.00  0.00     0.049 A 
ATOM     88  C   UNL A   1      42.775  28.895  32.927  1.00  0.00     0.074 A 
ATOM     89  C   UNL A   1      45.104  26.231  28.680  1.00  0.00    -0.036 A 
ATOM     90  N   UNL A   1      43.975  25.103  30.210  1.00  0.00    -0.354 N 
ATOM     91  N   UNL A   1      43.440  28.080  32.156  1.00  0.00    -0.248 NA
ATOM     92  C   UNL A   1      42.854  28.512  34.338  1.00  0.00    -0.034 C 
ATOM     93  C   UNL A   1      45.496  26.680  29.981  1.00  0.00    -0.036 A 
ATOM     94  H   UNL A   1      45.491  26.559  27.781  1.00  0.00     0.065 H 
ATOM     95  C   UNL A   1      44.768  25.975  30.924  1.00  0.00     0.049 A 
ATOM     96  H   UNL A   1      43.382  24.434  30.622  1.00  0.00     0.167 HD
ATOM     97  C   UNL A   1      43.962  27.067  32.911  1.00  0.00     0.074 A 
ATOM     98  C   UNL A   1      43.576  27.380  34.274  1.00  0.00    -0.034 C 
ATOM     99  H   UNL A   1      42.459  28.986  35.166  1.00  0.00     0.065 H 
ATOM    100  H   UNL A   1      46.201  27.405  30.183  1.00  0.00     0.065 H 
ATOM    101  C   UNL A   1      44.632  26.011  32.370  1.00  0.00     0.037 A 
ATOM    102  H   UNL A   1      43.825  26.805  35.093  1.00  0.00     0.065 H 
BRANCH  83 103
ATOM    103  C   UNL A   1      43.504  23.685  26.851  1.00  0.00     0.064 A 
ATOM    104  C   UNL A   1      43.147  22.319  26.924  1.00  0.00     0.173 A 
ATOM    105  C   UNL A   1      44.318  24.017  25.747  1.00  0.00     0.173 A 
ATOM    106  F   UNL A   1      42.388  21.852  27.926  1.00  0.00    -0.203 F 
ATOM    107  C   UNL A   1      43.580  21.377  25.984  1.00  0.00     0.198 A 
ATOM    108  C   UNL A   1      44.705  23.084  24.780  1.00  0.00     0.198 A 
ATOM    109  F   UNL A   1      44.838  25.237  25.580  1.00  0.00    -0.203 F 
ATOM    110  F   UNL A   1      43.261  20.084  26.143  1.00  0.00    -0.200 F 
ATOM    111  C   UNL A   1      44.350  21.761  24.906  1.00  0.00     0.200 A 
ATOM    112  F   UNL A   1      45.457  23.482  23.743  1.00  0.00    -0.200 F 
ATOM    113  F   UNL A   1      44.767  20.860  24.007  1.00  0.00    -0.200 F 
ENDBRANCH  83 103
BRANCH  86 114
ATOM    114  C   UNL A   1      40.633  30.472  33.039  1.00  0.00     0.064 A 
ATOM    115  C   UNL A   1      40.368  31.851  33.156  1.00  0.00     0.173 A 
ATOM    116  C   UNL A   1      39.551  29.593  33.149  1.00  0.00     0.173 A 
ATOM    117  F   UNL A   1      41.372  32.738  33.057  1.00  0.00    -0.203 F 
ATOM    118  C   UNL A   1      39.065  32.332  33.253  1.00  0.00     0.198 A 
ATOM    119  C   UNL A   1      38.248  30.078  33.268  1.00  0.00     0.198 A 
ATOM    120  F   UNL A   1      39.733  28.271  33.023  1.00  0.00    -0.203 F 
ATOM    121  F   UNL A   1      38.836  33.653  33.245  1.00  0.00    -0.200 F 
ATOM    122  C   UNL A   1      38.003  31.443  33.283  1.00  0.00     0.200 A 
ATOM    123  F   UNL A   1      37.219  29.219  33.267  1.00  0.00    -0.200 F 
ATOM    124  F   UNL A   1      36.743  31.900  33.282  1.00  0.00    -0.200 F 
ENDBRANCH  86 114
BRANCH 101 125
ATOM    125  C   UNL A   1      45.197  24.905  33.206  1.00  0.00     0.064 A 
ATOM    126  C   UNL A   1      46.532  24.914  33.639  1.00  0.00     0.173 A 
ATOM    127  C   UNL A   1      44.446  23.750  33.502  1.00  0.00     0.173 A 
ATOM    128  F   UNL A   1      47.326  25.962  33.378  1.00  0.00    -0.203 F 
ATOM    129  C   UNL A   1      47.077  23.838  34.342  1.00  0.00     0.198 A 
ATOM    130  C   UNL A   1      45.007  22.658  34.160  1.00  0.00     0.198 A 
ATOM    131  F   UNL A   1      43.146  23.667  33.180  1.00  0.00    -0.203 F 
ATOM    132  F   UNL A   1      48.342  23.901  34.777  1.00  0.00    -0.200 F 
ATOM    133  C   UNL A   1      46.319  22.705  34.587  1.00  0.00     0.200 A 
ATOM    134  F   UNL A   1      44.265  21.563  34.382  1.00  0.00    -0.200 F 
ATOM    135  F   UNL A   1      46.853  21.663  35.240  1.00  0.00    -0.200 F 
ENDBRANCH 101 125
ENDBRANCH  66  69
ENDBRANCH  56  59
ENDBRANCH  52  55
ENDBRANCH  49  52
ENDBRANCH  46  49
ENDBRANCH  43  46
ENDBRANCH   1  43
TORSDOF 18
ENDMDL
MODEL 9
REMARK VINA RESULT:     -12.2      3.942      9.886
REMARK SMILES Cc1ccc(Nc2c(C)cccc2Cl)c(CC(=O)NCCCCCCNC(=O)c2ccc(-c3c4nc(c(-c5c(F)c(F)c(F)c(F)c5F)c5ccc([nH]5)c(-c5c(F)c(F)c(F)c(F)c5F)c5nc(c(-c6c(F)c(F)c(F)c(F)c6F)c6ccc3[nH]6)C=C5)C=C4)cc2)c1
REMARK SMILES IDX 21 1 20 4 19 7 17 8 18 9 16 11 15 14 2 15 3 16 92 17 4 18
REMARK SMILES IDX 5 21 1 23 6 27 7 29 8 30 13 31 10 32 12 33 14 34 11 35 9 39
REMARK SMILES IDX 22 43 23 46 24 49 25 52 26 55 27 56 28 58 29 59 30 60 91 61
REMARK SMILES IDX 31 62 90 64 32 66 33 69 34 70 84 71 35 72 89 73 83 74 85 75
REMARK SMILES IDX 36 76 88 77 82 79 81 81 37 83 69 86 49 87 68 88 50 89 53 90
REMARK SMILES IDX 67 91 86 92 51 93 52 95 66 97 87 98 54 101 38 103 39 104
REMARK SMILES IDX 47 105 40 106 41 107 45 108 48 109 42 110 43 111 46 112
REMARK SMILES IDX 44 113 70 114 71 115 79 116 72 117 73 118 77 119 80 120
REMARK SMILES IDX 74 121 75 122 78 123 76 124 55 125 56 126 64 127 57 128
REMARK SMILES IDX 58 129 62 130 65 131 59 132 60 133 63 134 61 135
REMARK H PARENT 21 2 21 3 20 5 20 6 19 10 16 12 16 13 3 19 92 20 4 22 1 24
REMARK H PARENT 1 25 1 26 6 28 10 36 12 37 11 38 9 40 9 41 9 42 22 44 22 45
REMARK H PARENT 23 47 23 48 24 50 24 51 25 53 25 54 26 57 30 63 91 65 31 67
REMARK H PARENT 90 68 89 78 83 80 85 82 88 84 82 85 50 94 53 96 86 99 51 100
REMARK H PARENT 87 102
REMARK Flexibility Score: inf
ROOT
ATOM      1  C   UNL A   1      35.348  23.039  23.442  1.00  0.00    -0.036 C 
ATOM      2  H   UNL A   1      35.329  22.942  22.377  1.00  0.00     0.028 H 
ATOM      3  H   UNL A   1      34.785  22.286  23.950  1.00  0.00     0.028 H 
ENDROOT
BRANCH   1   4
ATOM      4  C   UNL A   1      34.697  24.376  23.807  1.00  0.00     0.017 C 
ATOM      5  H   UNL A   1      33.779  24.183  24.323  1.00  0.00     0.049 H 
ATOM      6  H   UNL A   1      35.381  24.920  24.424  1.00  0.00     0.049 H 
BRANCH   4   7
ATOM      7  N   UNL A   1      34.416  25.181  22.637  1.00  0.00    -0.356 N 
ATOM      8  C   UNL A   1      33.240  25.328  21.964  1.00  0.00     0.224 C 
ATOM      9  O   UNL A   1      33.244  25.965  20.907  1.00  0.00    -0.275 OA
ATOM     10  H   UNL A   1      35.178  25.692  22.279  1.00  0.00     0.163 HD
BRANCH   8  11
ATOM     11  C   UNL A   1      31.957  24.713  22.493  1.00  0.00     0.054 C 
ATOM     12  H   UNL A   1      31.193  24.839  21.754  1.00  0.00     0.042 H 
ATOM     13  H   UNL A   1      32.168  23.683  22.696  1.00  0.00     0.042 H 
BRANCH  11  14
ATOM     14  C   UNL A   1      31.470  25.324  23.789  1.00  0.00    -0.015 A 
ATOM     15  C   UNL A   1      31.103  27.378  25.076  1.00  0.00    -0.051 A 
ATOM     16  C   UNL A   1      30.703  26.603  26.162  1.00  0.00    -0.057 A 
ATOM     17  C   UNL A   1      31.462  26.733  23.891  1.00  0.00    -0.054 A 
ATOM     18  C   UNL A   1      30.662  25.211  26.059  1.00  0.00    -0.038 A 
ATOM     19  H   UNL A   1      30.436  27.061  27.048  1.00  0.00     0.063 H 
ATOM     20  H   UNL A   1      31.727  27.298  23.069  1.00  0.00     0.063 H 
ATOM     21  C   UNL A   1      31.042  24.542  24.883  1.00  0.00     0.042 A 
ATOM     22  H   UNL A   1      30.344  24.657  26.869  1.00  0.00     0.064 H 
BRANCH  15  23
ATOM     23  C   UNL A   1      31.141  28.872  25.188  1.00  0.00    -0.040 C 
ATOM     24  H   UNL A   1      30.647  29.305  24.344  1.00  0.00     0.028 H 
ATOM     25  H   UNL A   1      32.159  29.202  25.214  1.00  0.00     0.028 H 
ATOM     26  H   UNL A   1      30.645  29.176  26.086  1.00  0.00     0.028 H 
ENDBRANCH  15  23
BRANCH  21  27
ATOM     27  N   UNL A   1      30.928  23.139  24.777  1.00  0.00    -0.354 N 
ATOM     28  H   UNL A   1      30.022  22.801  24.587  1.00  0.00     0.167 HD
BRANCH  27  29
ATOM     29  C   UNL A   1      31.932  22.149  24.905  1.00  0.00     0.060 A 
ATOM     30  C   UNL A   1      32.260  21.279  23.843  1.00  0.00    -0.026 A 
ATOM     31  C   UNL A   1      32.579  21.974  26.148  1.00  0.00     0.064 A 
ATOM     32  C   UNL A   1      33.175  20.234  24.064  1.00  0.00    -0.057 A 
ATOM     33  C   UNL A   1      33.501  20.943  26.344  1.00  0.00    -0.041 A 
ATOM     34  Cl  UNL A   1      32.228  23.011  27.491  1.00  0.00    -0.082 Cl
ATOM     35  C   UNL A   1      33.789  20.065  25.305  1.00  0.00    -0.060 A 
ATOM     36  H   UNL A   1      33.395  19.580  23.296  1.00  0.00     0.063 H 
ATOM     37  H   UNL A   1      33.966  20.833  27.259  1.00  0.00     0.064 H 
ATOM     38  H   UNL A   1      34.456  19.292  25.451  1.00  0.00     0.062 H 
BRANCH  30  39
ATOM     39  C   UNL A   1      31.675  21.423  22.463  1.00  0.00    -0.038 C 
ATOM     40  H   UNL A   1      30.914  22.175  22.475  1.00  0.00     0.028 H 
ATOM     41  H   UNL A   1      31.248  20.490  22.158  1.00  0.00     0.028 H 
ATOM     42  H   UNL A   1      32.445  21.705  21.776  1.00  0.00     0.028 H 
ENDBRANCH  30  39
ENDBRANCH  27  29
ENDBRANCH  21  27
ENDBRANCH  11  14
ENDBRANCH   8  11
ENDBRANCH   4   7
ENDBRANCH   1   4
BRANCH   1  43
ATOM     43  C   UNL A   1      36.803  22.873  23.908  1.00  0.00    -0.052 C 
ATOM     44  H   UNL A   1      36.997  23.624  24.645  1.00  0.00     0.027 H 
ATOM     45  H   UNL A   1      37.396  22.959  23.021  1.00  0.00     0.027 H 
BRANCH  43  46
ATOM     46  C   UNL A   1      37.178  21.513  24.517  1.00  0.00    -0.052 C 
ATOM     47  H   UNL A   1      37.598  20.910  23.737  1.00  0.00     0.027 H 
ATOM     48  H   UNL A   1      36.273  21.123  24.932  1.00  0.00     0.027 H 
BRANCH  46  49
ATOM     49  C   UNL A   1      38.181  21.548  25.671  1.00  0.00    -0.036 C 
ATOM     50  H   UNL A   1      39.039  20.974  25.387  1.00  0.00     0.028 H 
ATOM     51  H   UNL A   1      37.677  21.149  26.526  1.00  0.00     0.028 H 
BRANCH  49  52
ATOM     52  C   UNL A   1      38.649  22.945  26.056  1.00  0.00     0.018 C 
ATOM     53  H   UNL A   1      38.031  23.300  26.854  1.00  0.00     0.049 H 
ATOM     54  H   UNL A   1      38.572  23.554  25.179  1.00  0.00     0.049 H 
BRANCH  52  55
ATOM     55  N   UNL A   1      40.037  22.997  26.490  1.00  0.00    -0.352 N 
ATOM     56  C   UNL A   1      40.805  24.069  26.917  1.00  0.00     0.251 C 
ATOM     57  H   UNL A   1      40.505  22.131  26.480  1.00  0.00     0.163 HD
ATOM     58  O   UNL A   1      41.985  23.910  27.160  1.00  0.00    -0.269 OA
BRANCH  56  59
ATOM     59  C   UNL A   1      40.154  25.370  27.226  1.00  0.00     0.039 A 
ATOM     60  C   UNL A   1      40.479  26.461  26.407  1.00  0.00    -0.049 A 
ATOM     61  C   UNL A   1      39.429  25.574  28.395  1.00  0.00    -0.049 A 
ATOM     62  C   UNL A   1      40.327  27.755  26.897  1.00  0.00    -0.053 A 
ATOM     63  H   UNL A   1      40.829  26.305  25.449  1.00  0.00     0.063 H 
ATOM     64  C   UNL A   1      39.365  26.846  28.925  1.00  0.00    -0.053 A 
ATOM     65  H   UNL A   1      38.945  24.788  28.857  1.00  0.00     0.063 H 
ATOM     66  C   UNL A   1      39.900  27.924  28.211  1.00  0.00    -0.014 A 
ATOM     67  H   UNL A   1      40.525  28.572  26.299  1.00  0.00     0.063 H 
ATOM     68  H   UNL A   1      38.925  27.003  29.844  1.00  0.00     0.063 H 
BRANCH  66  69
ATOM     69  C   UNL A   1      40.145  29.130  28.992  1.00  0.00     0.031 A 
ATOM     70  C   UNL A   1      39.139  30.205  29.068  1.00  0.00     0.074 A 
ATOM     71  C   UNL A   1      41.234  29.153  29.796  1.00  0.00     0.049 A 
ATOM     72  N   UNL A   1      39.351  31.342  29.639  1.00  0.00    -0.248 NA
ATOM     73  C   UNL A   1      37.822  30.117  28.443  1.00  0.00    -0.034 C 
ATOM     74  C   UNL A   1      41.486  30.028  30.939  1.00  0.00    -0.036 A 
ATOM     75  N   UNL A   1      42.463  28.499  29.589  1.00  0.00    -0.354 N 
ATOM     76  C   UNL A   1      38.149  31.998  29.723  1.00  0.00     0.074 A 
ATOM     77  C   UNL A   1      37.269  31.265  28.850  1.00  0.00    -0.034 C 
ATOM     78  H   UNL A   1      37.426  29.372  27.849  1.00  0.00     0.065 H 
ATOM     79  C   UNL A   1      42.810  30.107  31.140  1.00  0.00    -0.036 A 
ATOM     80  H   UNL A   1      40.764  30.509  31.499  1.00  0.00     0.065 H 
ATOM     81  C   UNL A   1      43.447  29.417  30.033  1.00  0.00     0.049 A 
ATOM     82  H   UNL A   1      42.608  27.598  29.217  1.00  0.00     0.167 HD
ATOM     83  C   UNL A   1      38.027  33.009  30.628  1.00  0.00     0.037 A 
ATOM     84  H   UNL A   1      36.327  31.587  28.573  1.00  0.00     0.065 H 
ATOM     85  H   UNL A   1      43.285  30.568  31.932  1.00  0.00     0.065 H 
ATOM     86  C   UNL A   1      44.305  29.999  29.143  1.00  0.00     0.037 A 
ATOM     87  C   UNL A   1      39.343  33.473  31.074  1.00  0.00     0.049 A 
ATOM     88  C   UNL A   1      44.200  31.510  29.046  1.00  0.00     0.074 A 
ATOM     89  C   UNL A   1      40.089  33.379  32.235  1.00  0.00    -0.036 A 
ATOM     90  N   UNL A   1      40.201  33.977  30.110  1.00  0.00    -0.354 N 
ATOM     91  N   UNL A   1      43.317  32.232  29.678  1.00  0.00    -0.248 NA
ATOM     92  C   UNL A   1      45.024  32.309  28.137  1.00  0.00    -0.034 C 
ATOM     93  C   UNL A   1      41.433  33.759  31.923  1.00  0.00    -0.036 A 
ATOM     94  H   UNL A   1      39.740  33.086  33.161  1.00  0.00     0.065 H 
ATOM     95  C   UNL A   1      41.487  34.114  30.585  1.00  0.00     0.049 A 
ATOM     96  H   UNL A   1      39.925  34.210  29.193  1.00  0.00     0.167 HD
ATOM     97  C   UNL A   1      43.395  33.525  29.242  1.00  0.00     0.074 A 
ATOM     98  C   UNL A   1      44.481  33.531  28.281  1.00  0.00    -0.034 C 
ATOM     99  H   UNL A   1      45.813  32.014  27.541  1.00  0.00     0.065 H 
ATOM    100  H   UNL A   1      42.228  33.767  32.581  1.00  0.00     0.065 H 
ATOM    101  C   UNL A   1      42.535  34.499  29.655  1.00  0.00     0.037 A 
ATOM    102  H   UNL A   1      44.799  34.369  27.771  1.00  0.00     0.065 H 
BRANCH  83 103
ATOM    103  C   UNL A   1      36.725  33.516  31.212  1.00  0.00     0.064 A 
ATOM    104  C   UNL A   1      36.402  33.244  32.561  1.00  0.00     0.173 A 
ATOM    105  C   UNL A   1      35.698  34.153  30.482  1.00  0.00     0.173 A 
ATOM    106  F   UNL A   1      37.274  32.631  33.373  1.00  0.00    -0.203 F 
ATOM    107  C   UNL A   1      35.160  33.569  33.118  1.00  0.00     0.198 A 
ATOM    108  C   UNL A   1      34.478  34.524  31.055  1.00  0.00     0.198 A 
ATOM    109  F   UNL A   1      35.788  34.387  29.170  1.00  0.00    -0.203 F 
ATOM    110  F   UNL A   1      34.890  33.228  34.386  1.00  0.00    -0.200 F 
ATOM    111  C   UNL A   1      34.201  34.219  32.368  1.00  0.00     0.200 A 
ATOM    112  F   UNL A   1      33.560  35.152  30.305  1.00  0.00    -0.200 F 
ATOM    113  F   UNL A   1      33.011  34.529  32.899  1.00  0.00    -0.200 F 
ENDBRANCH  83 103
BRANCH  86 114
ATOM    114  C   UNL A   1      44.652  29.099  28.010  1.00  0.00     0.064 A 
ATOM    115  C   UNL A   1      45.536  28.028  28.250  1.00  0.00     0.173 A 
ATOM    116  C   UNL A   1      43.870  29.046  26.851  1.00  0.00     0.173 A 
ATOM    117  F   UNL A   1      46.310  28.031  29.348  1.00  0.00    -0.203 F 
ATOM    118  C   UNL A   1      45.546  26.901  27.432  1.00  0.00     0.198 A 
ATOM    119  C   UNL A   1      43.898  27.923  26.023  1.00  0.00     0.198 A 
ATOM    120  F   UNL A   1      42.991  30.021  26.579  1.00  0.00    -0.203 F 
ATOM    121  F   UNL A   1      46.315  25.850  27.752  1.00  0.00    -0.200 F 
ATOM    122  C   UNL A   1      44.706  26.840  26.333  1.00  0.00     0.200 A 
ATOM    123  F   UNL A   1      43.064  27.851  24.977  1.00  0.00    -0.200 F 
ATOM    124  F   UNL A   1      44.643  25.721  25.597  1.00  0.00    -0.200 F 
ENDBRANCH  86 114
BRANCH 101 125
ATOM    125  C   UNL A   1      42.627  35.912  29.169  1.00  0.00     0.064 A 
ATOM    126  C   UNL A   1      41.983  36.332  27.996  1.00  0.00     0.173 A 
ATOM    127  C   UNL A   1      43.456  36.856  29.807  1.00  0.00     0.173 A 
ATOM    128  F   UNL A   1      41.196  35.490  27.310  1.00  0.00    -0.203 F 
ATOM    129  C   UNL A   1      42.145  37.627  27.499  1.00  0.00     0.198 A 
ATOM    130  C   UNL A   1      43.655  38.131  29.283  1.00  0.00     0.198 A 
ATOM    131  F   UNL A   1      44.071  36.569  30.964  1.00  0.00    -0.203 F 
ATOM    132  F   UNL A   1      41.481  38.006  26.400  1.00  0.00    -0.200 F 
ATOM    133  C   UNL A   1      42.993  38.519  28.135  1.00  0.00     0.200 A 
ATOM    134  F   UNL A   1      44.486  38.982  29.902  1.00  0.00    -0.200 F 
ATOM    135  F   UNL A   1      43.168  39.754  27.642  1.00  0.00    -0.200 F 
ENDBRANCH 101 125
ENDBRANCH  66  69
ENDBRANCH  56  59
ENDBRANCH  52  55
ENDBRANCH  49  52
ENDBRANCH  46  49
ENDBRANCH  43  46
ENDBRANCH   1  43
TORSDOF 18
ENDMDL
MODEL 10
REMARK VINA RESULT:     -12.2      1.314      2.436
REMARK SMILES Cc1ccc(Nc2c(C)cccc2Cl)c(CC(=O)NCCCCCCNC(=O)c2ccc(-c3c4nc(c(-c5c(F)c(F)c(F)c(F)c5F)c5ccc([nH]5)c(-c5c(F)c(F)c(F)c(F)c5F)c5nc(c(-c6c(F)c(F)c(F)c(F)c6F)c6ccc3[nH]6)C=C5)C=C4)cc2)c1
REMARK SMILES IDX 21 1 20 4 19 7 17 8 18 9 16 11 15 14 2 15 3 16 92 17 4 18
REMARK SMILES IDX 5 21 1 23 6 27 7 29 8 30 13 31 10 32 12 33 14 34 11 35 9 39
REMARK SMILES IDX 22 43 23 46 24 49 25 52 26 55 27 56 28 58 29 59 30 60 91 61
REMARK SMILES IDX 31 62 90 64 32 66 33 69 34 70 84 71 35 72 89 73 83 74 85 75
REMARK SMILES IDX 36 76 88 77 82 79 81 81 37 83 69 86 49 87 68 88 50 89 53 90
REMARK SMILES IDX 67 91 86 92 51 93 52 95 66 97 87 98 54 101 38 103 39 104
REMARK SMILES IDX 47 105 40 106 41 107 45 108 48 109 42 110 43 111 46 112
REMARK SMILES IDX 44 113 70 114 71 115 79 116 72 117 73 118 77 119 80 120
REMARK SMILES IDX 74 121 75 122 78 123 76 124 55 125 56 126 64 127 57 128
REMARK SMILES IDX 58 129 62 130 65 131 59 132 60 133 63 134 61 135
REMARK H PARENT 21 2 21 3 20 5 20 6 19 10 16 12 16 13 3 19 92 20 4 22 1 24
REMARK H PARENT 1 25 1 26 6 28 10 36 12 37 11 38 9 40 9 41 9 42 22 44 22 45
REMARK H PARENT 23 47 23 48 24 50 24 51 25 53 25 54 26 57 30 63 91 65 31 67
REMARK H PARENT 90 68 89 78 83 80 85 82 88 84 82 85 50 94 53 96 86 99 51 100
REMARK H PARENT 87 102
REMARK Flexibility Score: inf
ROOT
ATOM      1  C   UNL A   1      32.419  27.343  26.427  1.00  0.00    -0.036 C 
ATOM      2  H   UNL A   1      32.696  27.381  27.459  1.00  0.00     0.028 H 
ATOM      3  H   UNL A   1      31.362  27.305  26.269  1.00  0.00     0.028 H 
ENDROOT
BRANCH   1   4
ATOM      4  C   UNL A   1      32.984  26.051  25.831  1.00  0.00     0.017 C 
ATOM      5  H   UNL A   1      33.516  26.288  24.934  1.00  0.00     0.049 H 
ATOM      6  H   UNL A   1      33.630  25.606  26.559  1.00  0.00     0.049 H 
BRANCH   4   7
ATOM      7  N   UNL A   1      31.942  25.095  25.519  1.00  0.00    -0.356 N 
ATOM      8  C   UNL A   1      31.837  23.791  25.900  1.00  0.00     0.224 C 
ATOM      9  O   UNL A   1      30.931  23.109  25.415  1.00  0.00    -0.275 OA
ATOM     10  H   UNL A   1      31.211  25.433  24.953  1.00  0.00     0.163 HD
BRANCH   8  11
ATOM     11  C   UNL A   1      32.819  23.186  26.888  1.00  0.00     0.054 C 
ATOM     12  H   UNL A   1      33.085  23.938  27.602  1.00  0.00     0.042 H 
ATOM     13  H   UNL A   1      32.328  22.347  27.337  1.00  0.00     0.042 H 
BRANCH  11  14
ATOM     14  C   UNL A   1      34.089  22.663  26.252  1.00  0.00    -0.015 A 
ATOM     15  C   UNL A   1      36.490  23.000  25.891  1.00  0.00    -0.051 A 
ATOM     16  C   UNL A   1      36.502  21.886  25.057  1.00  0.00    -0.057 A 
ATOM     17  C   UNL A   1      35.287  23.367  26.500  1.00  0.00    -0.054 A 
ATOM     18  C   UNL A   1      35.331  21.153  24.841  1.00  0.00    -0.038 A 
ATOM     19  H   UNL A   1      37.380  21.599  24.596  1.00  0.00     0.063 H 
ATOM     20  H   UNL A   1      35.274  24.171  27.147  1.00  0.00     0.063 H 
ATOM     21  C   UNL A   1      34.108  21.520  25.425  1.00  0.00     0.042 A 
ATOM     22  H   UNL A   1      35.368  20.319  24.235  1.00  0.00     0.064 H 
BRANCH  15  23
ATOM     23  C   UNL A   1      37.747  23.781  26.126  1.00  0.00    -0.040 C 
ATOM     24  H   UNL A   1      38.043  23.682  27.149  1.00  0.00     0.028 H 
ATOM     25  H   UNL A   1      37.573  24.813  25.904  1.00  0.00     0.028 H 
ATOM     26  H   UNL A   1      38.524  23.406  25.492  1.00  0.00     0.028 H 
ENDBRANCH  15  23
BRANCH  21  27
ATOM     27  N   UNL A   1      32.953  20.727  25.249  1.00  0.00    -0.354 N 
ATOM     28  H   UNL A   1      32.266  20.817  25.950  1.00  0.00     0.167 HD
BRANCH  27  29
ATOM     29  C   UNL A   1      32.643  19.820  24.207  1.00  0.00     0.060 A 
ATOM     30  C   UNL A   1      32.675  18.423  24.402  1.00  0.00    -0.026 A 
ATOM     31  C   UNL A   1      32.362  20.317  22.915  1.00  0.00     0.064 A 
ATOM     32  C   UNL A   1      32.482  17.567  23.302  1.00  0.00    -0.057 A 
ATOM     33  C   UNL A   1      32.153  19.453  21.838  1.00  0.00    -0.041 A 
ATOM     34  Cl  UNL A   1      32.302  22.021  22.609  1.00  0.00    -0.082 Cl
ATOM     35  C   UNL A   1      32.225  18.078  22.030  1.00  0.00    -0.060 A 
ATOM     36  H   UNL A   1      32.533  16.545  23.438  1.00  0.00     0.063 H 
ATOM     37  H   UNL A   1      31.945  19.835  20.902  1.00  0.00     0.064 H 
ATOM     38  H   UNL A   1      32.089  17.436  21.233  1.00  0.00     0.062 H 
BRANCH  30  39
ATOM     39  C   UNL A   1      32.902  17.794  25.751  1.00  0.00    -0.038 C 
ATOM     40  H   UNL A   1      32.412  18.378  26.503  1.00  0.00     0.028 H 
ATOM     41  H   UNL A   1      33.951  17.758  25.956  1.00  0.00     0.028 H 
ATOM     42  H   UNL A   1      32.503  16.802  25.755  1.00  0.00     0.028 H 
ENDBRANCH  30  39
ENDBRANCH  27  29
ENDBRANCH  21  27
ENDBRANCH  11  14
ENDBRANCH   8  11
ENDBRANCH   4   7
ENDBRANCH   1   4
BRANCH   1  43
ATOM     43  C   UNL A   1      32.905  28.638  25.755  1.00  0.00    -0.052 C 
ATOM     44  H   UNL A   1      32.801  28.515  24.698  1.00  0.00     0.027 H 
ATOM     45  H   UNL A   1      33.913  28.769  26.090  1.00  0.00     0.027 H 
BRANCH  43  46
ATOM     46  C   UNL A   1      32.174  29.931  26.150  1.00  0.00    -0.052 C 
ATOM     47  H   UNL A   1      31.226  29.657  26.565  1.00  0.00     0.027 H 
ATOM     48  H   UNL A   1      32.108  30.510  25.253  1.00  0.00     0.027 H 
BRANCH  46  49
ATOM     49  C   UNL A   1      32.890  30.822  27.166  1.00  0.00    -0.036 C 
ATOM     50  H   UNL A   1      32.280  30.886  28.044  1.00  0.00     0.028 H 
ATOM     51  H   UNL A   1      33.038  31.769  26.691  1.00  0.00     0.028 H 
BRANCH  49  52
ATOM     52  C   UNL A   1      34.268  30.324  27.580  1.00  0.00     0.018 C 
ATOM     53  H   UNL A   1      34.809  30.056  26.697  1.00  0.00     0.049 H 
ATOM     54  H   UNL A   1      34.117  29.491  28.234  1.00  0.00     0.049 H 
BRANCH  52  55
ATOM     55  N   UNL A   1      35.048  31.307  28.316  1.00  0.00    -0.352 N 
ATOM     56  C   UNL A   1      36.244  31.174  29.004  1.00  0.00     0.251 C 
ATOM     57  H   UNL A   1      34.665  32.214  28.326  1.00  0.00     0.163 HD
ATOM     58  O   UNL A   1      36.692  32.115  29.629  1.00  0.00    -0.269 OA
BRANCH  56  59
ATOM     59  C   UNL A   1      37.053  29.935  28.850  1.00  0.00     0.039 A 
ATOM     60  C   UNL A   1      37.146  29.086  29.962  1.00  0.00    -0.049 A 
ATOM     61  C   UNL A   1      37.865  29.717  27.742  1.00  0.00    -0.049 A 
ATOM     62  C   UNL A   1      38.228  28.217  30.072  1.00  0.00    -0.053 A 
ATOM     63  H   UNL A   1      36.418  29.106  30.693  1.00  0.00     0.063 H 
ATOM     64  C   UNL A   1      38.989  28.931  27.887  1.00  0.00    -0.053 A 
ATOM     65  H   UNL A   1      37.630  30.134  26.828  1.00  0.00     0.063 H 
ATOM     66  C   UNL A   1      39.214  28.254  29.091  1.00  0.00    -0.014 A 
ATOM     67  H   UNL A   1      38.296  27.558  30.864  1.00  0.00     0.063 H 
ATOM     68  H   UNL A   1      39.663  28.841  27.111  1.00  0.00     0.063 H 
BRANCH  66  69
ATOM     69  C   UNL A   1      40.579  27.786  29.299  1.00  0.00     0.031 A 
ATOM     70  C   UNL A   1      41.000  26.445  28.854  1.00  0.00     0.074 A 
ATOM     71  C   UNL A   1      41.496  28.681  29.736  1.00  0.00     0.049 A 
ATOM     72  N   UNL A   1      42.153  25.933  29.122  1.00  0.00    -0.248 NA
ATOM     73  C   UNL A   1      40.125  25.531  28.124  1.00  0.00    -0.034 C 
ATOM     74  C   UNL A   1      42.951  28.591  29.644  1.00  0.00    -0.036 A 
ATOM     75  N   UNL A   1      41.274  29.793  30.570  1.00  0.00    -0.354 N 
ATOM     76  C   UNL A   1      42.288  24.792  28.373  1.00  0.00     0.074 A 
ATOM     77  C   UNL A   1      40.961  24.514  27.884  1.00  0.00    -0.034 C 
ATOM     78  H   UNL A   1      39.133  25.640  27.863  1.00  0.00     0.065 H 
ATOM     79  C   UNL A   1      43.493  29.364  30.598  1.00  0.00    -0.036 A 
ATOM     80  H   UNL A   1      43.476  28.024  28.960  1.00  0.00     0.065 H 
ATOM     81  C   UNL A   1      42.402  29.839  31.428  1.00  0.00     0.049 A 
ATOM     82  H   UNL A   1      40.503  30.407  30.560  1.00  0.00     0.167 HD
ATOM     83  C   UNL A   1      43.541  24.301  28.162  1.00  0.00     0.037 A 
ATOM     84  H   UNL A   1      40.689  23.638  27.409  1.00  0.00     0.065 H 
ATOM     85  H   UNL A   1      44.495  29.580  30.717  1.00  0.00     0.065 H 
ATOM     86  C   UNL A   1      42.269  29.583  32.763  1.00  0.00     0.037 A 
ATOM     87  C   UNL A   1      44.493  24.873  29.117  1.00  0.00     0.049 A 
ATOM     88  C   UNL A   1      43.039  28.374  33.263  1.00  0.00     0.074 A 
ATOM     89  C   UNL A   1      45.531  25.787  29.060  1.00  0.00    -0.036 A 
ATOM     90  N   UNL A   1      44.258  24.648  30.463  1.00  0.00    -0.354 N 
ATOM     91  N   UNL A   1      43.719  27.564  32.500  1.00  0.00    -0.248 NA
ATOM     92  C   UNL A   1      43.009  27.930  34.658  1.00  0.00    -0.034 C 
ATOM     93  C   UNL A   1      45.854  26.165  30.402  1.00  0.00    -0.036 A 
ATOM     94  H   UNL A   1      45.989  26.135  28.203  1.00  0.00     0.065 H 
ATOM     95  C   UNL A   1      45.037  25.454  31.265  1.00  0.00     0.049 A 
ATOM     96  H   UNL A   1      43.612  23.989  30.807  1.00  0.00     0.167 HD
ATOM     97  C   UNL A   1      44.147  26.498  33.242  1.00  0.00     0.074 A 
ATOM     98  C   UNL A   1      43.686  26.771  34.590  1.00  0.00    -0.034 C 
ATOM     99  H   UNL A   1      42.580  28.386  35.478  1.00  0.00     0.065 H 
ATOM    100  H   UNL A   1      46.574  26.850  30.680  1.00  0.00     0.065 H 
ATOM    101  C   UNL A   1      44.808  25.436  32.699  1.00  0.00     0.037 A 
ATOM    102  H   UNL A   1      43.857  26.153  35.397  1.00  0.00     0.065 H 
BRANCH  83 103
ATOM    103  C   UNL A   1      43.951  23.391  27.023  1.00  0.00     0.064 A 
ATOM    104  C   UNL A   1      44.785  23.881  25.992  1.00  0.00     0.173 A 
ATOM    105  C   UNL A   1      43.464  22.084  26.808  1.00  0.00     0.173 A 
ATOM    106  F   UNL A   1      45.311  25.113  26.050  1.00  0.00    -0.203 F 
ATOM    107  C   UNL A   1      45.087  23.132  24.849  1.00  0.00     0.198 A 
ATOM    108  C   UNL A   1      43.811  21.318  25.691  1.00  0.00     0.198 A 
ATOM    109  F   UNL A   1      42.579  21.505  27.624  1.00  0.00    -0.203 F 
ATOM    110  F   UNL A   1      45.832  23.677  23.876  1.00  0.00    -0.200 F 
ATOM    111  C   UNL A   1      44.609  21.847  24.703  1.00  0.00     0.200 A 
ATOM    112  F   UNL A   1      43.330  20.072  25.570  1.00  0.00    -0.200 F 
ATOM    113  F   UNL A   1      44.896  21.129  23.609  1.00  0.00    -0.200 F 
ENDBRANCH  83 103
BRANCH  86 114
ATOM    114  C   UNL A   1      40.961  30.038  33.306  1.00  0.00     0.064 A 
ATOM    115  C   UNL A   1      40.757  31.419  33.496  1.00  0.00     0.173 A 
ATOM    116  C   UNL A   1      39.830  29.214  33.280  1.00  0.00     0.173 A 
ATOM    117  F   UNL A   1      41.809  32.254  33.529  1.00  0.00    -0.203 F 
ATOM    118  C   UNL A   1      39.476  31.963  33.533  1.00  0.00     0.198 A 
ATOM    119  C   UNL A   1      38.548  29.761  33.339  1.00  0.00     0.198 A 
ATOM    120  F   UNL A   1      39.956  27.894  33.079  1.00  0.00    -0.203 F 
ATOM    121  F   UNL A   1      39.315  33.293  33.597  1.00  0.00    -0.200 F 
ATOM    122  C   UNL A   1      38.372  31.134  33.428  1.00  0.00     0.200 A 
ATOM    123  F   UNL A   1      37.481  28.962  33.208  1.00  0.00    -0.200 F 
ATOM    124  F   UNL A   1      37.140  31.658  33.369  1.00  0.00    -0.200 F 
ENDBRANCH  86 114
BRANCH 101 125
ATOM    125  C   UNL A   1      45.271  24.273  33.520  1.00  0.00     0.064 A 
ATOM    126  C   UNL A   1      44.499  23.110  33.655  1.00  0.00     0.173 A 
ATOM    127  C   UNL A   1      46.452  24.338  34.286  1.00  0.00     0.173 A 
ATOM    128  F   UNL A   1      43.346  22.975  32.982  1.00  0.00    -0.203 F 
ATOM    129  C   UNL A   1      44.894  22.066  34.493  1.00  0.00     0.198 A 
ATOM    130  C   UNL A   1      46.819  23.317  35.159  1.00  0.00     0.198 A 
ATOM    131  F   UNL A   1      47.287  25.384  34.186  1.00  0.00    -0.203 F 
ATOM    132  F   UNL A   1      44.153  20.952  34.562  1.00  0.00    -0.200 F 
ATOM    133  C   UNL A   1      46.045  22.177  35.256  1.00  0.00     0.200 A 
ATOM    134  F   UNL A   1      47.930  23.441  35.900  1.00  0.00    -0.200 F 
ATOM    135  F   UNL A   1      46.408  21.184  36.079  1.00  0.00    -0.200 F 
ENDBRANCH 101 125
ENDBRANCH  66  69
ENDBRANCH  56  59
ENDBRANCH  52  55
ENDBRANCH  49  52
ENDBRANCH  46  49
ENDBRANCH  43  46
ENDBRANCH   1  43
TORSDOF 18
ENDMDL
