MODEL 1
REMARK VINA RESULT:     -12.1      0.000      0.000
REMARK SMILES C[C@H](C(=O)NCCCCCCNC(=O)c1ccc(-c2c3nc(c(-c4c(F)c(F)c(F)c(F)c4F)c4ccc([nH]4)c(-c4c(F)c(F)c(F)c(F)c4F)c4nc(c(-c5c(F)c(F)c(F)c(F)c5F)c5ccc2[nH]5)C=C4)C=C3)cc1)c1ccc2c(c1)OCCO2
REMARK SMILES IDX 9 1 8 4 7 7 6 10 5 13 3 14 4 15 2 17 1 19 78 23 79 24 83 25
REMARK SMILES IDX 80 26 82 28 81 30 84 32 87 33 85 34 86 35 10 40 11 43 12 46
REMARK SMILES IDX 13 47 14 49 15 50 16 51 77 52 17 53 76 55 18 57 19 60 20 61
REMARK SMILES IDX 70 62 21 63 75 64 69 65 71 66 22 67 74 68 68 70 67 72 23 74
REMARK SMILES IDX 55 77 35 78 54 79 36 80 39 81 53 82 72 83 37 84 38 86 52 88
REMARK SMILES IDX 73 89 40 92 24 94 25 95 33 96 26 97 27 98 31 99 34 100
REMARK SMILES IDX 28 101 29 102 32 103 30 104 56 105 57 106 65 107 58 108
REMARK SMILES IDX 59 109 63 110 66 111 60 112 61 113 64 114 62 115 41 116
REMARK SMILES IDX 42 117 50 118 43 119 44 120 48 121 51 122 45 123 46 124
REMARK SMILES IDX 49 125 47 126
REMARK H PARENT 9 2 9 3 8 5 8 6 7 8 7 9 6 11 6 12 5 16 2 18 1 20 1 21 1 22
REMARK H PARENT 79 27 83 29 80 31 85 36 85 37 86 38 86 39 10 41 10 42 11 44
REMARK H PARENT 11 45 12 48 16 54 77 56 17 58 76 59 75 69 69 71 71 73 74 75
REMARK H PARENT 68 76 36 85 39 87 72 90 37 91 73 93
REMARK Flexibility Score: inf
ROOT
ATOM      1  C   UNL A   1      31.359  30.591  25.699  1.00  0.00    -0.052 C 
ATOM      2  H   UNL A   1      30.555  29.979  26.052  1.00  0.00     0.027 H 
ATOM      3  H   UNL A   1      31.345  30.785  24.647  1.00  0.00     0.027 H 
ENDROOT
BRANCH   1   4
ATOM      4  C   UNL A   1      32.664  29.831  25.951  1.00  0.00    -0.052 C 
ATOM      5  H   UNL A   1      32.936  29.342  25.039  1.00  0.00     0.027 H 
ATOM      6  H   UNL A   1      33.360  30.573  26.287  1.00  0.00     0.027 H 
BRANCH   4   7
ATOM      7  C   UNL A   1      32.646  28.771  27.056  1.00  0.00    -0.036 C 
ATOM      8  H   UNL A   1      33.550  28.872  27.620  1.00  0.00     0.028 H 
ATOM      9  H   UNL A   1      31.752  28.959  27.612  1.00  0.00     0.028 H 
BRANCH   7  10
ATOM     10  C   UNL A   1      32.541  27.315  26.606  1.00  0.00     0.017 C 
ATOM     11  H   UNL A   1      32.765  27.274  25.560  1.00  0.00     0.049 H 
ATOM     12  H   UNL A   1      33.232  26.765  27.210  1.00  0.00     0.049 H 
BRANCH  10  13
ATOM     13  N   UNL A   1      31.240  26.699  26.812  1.00  0.00    -0.356 N 
ATOM     14  C   UNL A   1      30.463  25.952  25.967  1.00  0.00     0.227 C 
ATOM     15  O   UNL A   1      29.536  25.322  26.490  1.00  0.00    -0.274 OA
ATOM     16  H   UNL A   1      30.855  26.843  27.707  1.00  0.00     0.163 HD
BRANCH  14  17
ATOM     17  C   UNL A   1      30.611  25.957  24.428  1.00  0.00     0.060 C 
ATOM     18  H   UNL A   1      31.523  26.450  24.157  1.00  0.00     0.045 H 
BRANCH  17  19
ATOM     19  C   UNL A   1      30.639  24.482  24.001  1.00  0.00    -0.049 C 
ATOM     20  H   UNL A   1      31.387  23.962  24.562  1.00  0.00     0.024 H 
ATOM     21  H   UNL A   1      30.868  24.418  22.957  1.00  0.00     0.024 H 
ATOM     22  H   UNL A   1      29.683  24.039  24.185  1.00  0.00     0.024 H 
ENDBRANCH  17  19
BRANCH  17  23
ATOM     23  C   UNL A   1      29.607  26.819  23.669  1.00  0.00    -0.032 A 
ATOM     24  C   UNL A   1      28.218  26.702  23.875  1.00  0.00    -0.054 A 
ATOM     25  C   UNL A   1      30.075  27.857  22.852  1.00  0.00    -0.012 A 
ATOM     26  C   UNL A   1      27.359  27.738  23.513  1.00  0.00    -0.016 A 
ATOM     27  H   UNL A   1      27.835  25.843  24.299  1.00  0.00     0.063 H 
ATOM     28  C   UNL A   1      29.249  28.948  22.616  1.00  0.00     0.161 A 
ATOM     29  H   UNL A   1      31.017  27.811  22.433  1.00  0.00     0.067 H 
ATOM     30  C   UNL A   1      27.906  28.900  22.992  1.00  0.00     0.161 A 
ATOM     31  H   UNL A   1      26.338  27.642  23.628  1.00  0.00     0.066 H 
ATOM     32  O   UNL A   1      29.873  30.095  22.201  1.00  0.00    -0.486 OA
ATOM     33  O   UNL A   1      27.140  30.039  23.021  1.00  0.00    -0.486 OA
ATOM     34  C   UNL A   1      29.152  31.291  22.528  1.00  0.00     0.122 C 
ATOM     35  C   UNL A   1      27.997  31.082  23.501  1.00  0.00     0.122 C 
ATOM     36  H   UNL A   1      28.757  31.702  21.622  1.00  0.00     0.074 H 
ATOM     37  H   UNL A   1      29.846  31.944  23.013  1.00  0.00     0.074 H 
ATOM     38  H   UNL A   1      27.437  31.989  23.588  1.00  0.00     0.074 H 
ATOM     39  H   UNL A   1      28.387  30.806  24.459  1.00  0.00     0.074 H 
ENDBRANCH  17  23
ENDBRANCH  14  17
ENDBRANCH  10  13
ENDBRANCH   7  10
ENDBRANCH   4   7
ENDBRANCH   1   4
BRANCH   1  40
ATOM     40  C   UNL A   1      31.223  31.965  26.363  1.00  0.00    -0.036 C 
ATOM     41  H   UNL A   1      30.491  31.879  27.139  1.00  0.00     0.028 H 
ATOM     42  H   UNL A   1      30.959  32.634  25.571  1.00  0.00     0.028 H 
BRANCH  40  43
ATOM     43  C   UNL A   1      32.489  32.556  26.982  1.00  0.00     0.018 C 
ATOM     44  H   UNL A   1      33.254  32.577  26.234  1.00  0.00     0.049 H 
ATOM     45  H   UNL A   1      32.751  31.935  27.814  1.00  0.00     0.049 H 
BRANCH  43  46
ATOM     46  N   UNL A   1      32.312  33.904  27.497  1.00  0.00    -0.352 N 
ATOM     47  C   UNL A   1      33.011  34.598  28.451  1.00  0.00     0.251 C 
ATOM     48  H   UNL A   1      31.565  34.401  27.093  1.00  0.00     0.163 HD
ATOM     49  O   UNL A   1      32.610  35.715  28.791  1.00  0.00    -0.269 OA
BRANCH  47  50
ATOM     50  C   UNL A   1      34.214  34.036  29.113  1.00  0.00     0.039 A 
ATOM     51  C   UNL A   1      34.028  33.087  30.124  1.00  0.00    -0.049 A 
ATOM     52  C   UNL A   1      35.510  34.451  28.796  1.00  0.00    -0.049 A 
ATOM     53  C   UNL A   1      35.130  32.516  30.768  1.00  0.00    -0.053 A 
ATOM     54  H   UNL A   1      33.073  32.808  30.398  1.00  0.00     0.063 H 
ATOM     55  C   UNL A   1      36.614  33.830  29.389  1.00  0.00    -0.053 A 
ATOM     56  H   UNL A   1      35.654  35.220  28.121  1.00  0.00     0.063 H 
ATOM     57  C   UNL A   1      36.437  32.853  30.380  1.00  0.00    -0.014 A 
ATOM     58  H   UNL A   1      34.982  31.841  31.534  1.00  0.00     0.063 H 
ATOM     59  H   UNL A   1      37.568  34.092  29.094  1.00  0.00     0.063 H 
BRANCH  57  60
ATOM     60  C   UNL A   1      37.607  32.167  30.995  1.00  0.00     0.031 A 
ATOM     61  C   UNL A   1      38.086  32.536  32.373  1.00  0.00     0.074 A 
ATOM     62  C   UNL A   1      38.259  31.218  30.295  1.00  0.00     0.049 A 
ATOM     63  N   UNL A   1      39.086  32.040  33.063  1.00  0.00    -0.248 NA
ATOM     64  C   UNL A   1      37.365  33.616  33.062  1.00  0.00    -0.034 C 
ATOM     65  C   UNL A   1      37.934  30.805  28.928  1.00  0.00    -0.036 A 
ATOM     66  N   UNL A   1      39.332  30.429  30.632  1.00  0.00    -0.354 N 
ATOM     67  C   UNL A   1      39.106  32.739  34.263  1.00  0.00     0.074 A 
ATOM     68  C   UNL A   1      38.061  33.738  34.184  1.00  0.00    -0.034 C 
ATOM     69  H   UNL A   1      36.532  34.141  32.754  1.00  0.00     0.065 H 
ATOM     70  C   UNL A   1      38.771  29.825  28.554  1.00  0.00    -0.036 A 
ATOM     71  H   UNL A   1      37.180  31.204  28.347  1.00  0.00     0.065 H 
ATOM     72  C   UNL A   1      39.713  29.561  29.637  1.00  0.00     0.049 A 
ATOM     73  H   UNL A   1      39.786  30.480  31.504  1.00  0.00     0.167 HD
ATOM     74  C   UNL A   1      39.901  32.547  35.344  1.00  0.00     0.037 A 
ATOM     75  H   UNL A   1      37.882  34.453  34.906  1.00  0.00     0.065 H 
ATOM     76  H   UNL A   1      38.750  29.337  27.644  1.00  0.00     0.065 H 
ATOM     77  C   UNL A   1      40.708  28.655  29.598  1.00  0.00     0.037 A 
ATOM     78  C   UNL A   1      40.939  31.550  35.428  1.00  0.00     0.049 A 
ATOM     79  C   UNL A   1      41.580  28.466  30.810  1.00  0.00     0.074 A 
ATOM     80  C   UNL A   1      41.777  31.262  36.492  1.00  0.00    -0.036 A 
ATOM     81  N   UNL A   1      41.281  30.678  34.405  1.00  0.00    -0.354 N 
ATOM     82  N   UNL A   1      41.543  29.091  31.961  1.00  0.00    -0.248 NA
ATOM     83  C   UNL A   1      42.623  27.436  30.721  1.00  0.00    -0.034 C 
ATOM     84  C   UNL A   1      42.654  30.246  36.099  1.00  0.00    -0.036 A 
ATOM     85  H   UNL A   1      41.758  31.720  37.417  1.00  0.00     0.065 H 
ATOM     86  C   UNL A   1      42.329  29.862  34.808  1.00  0.00     0.049 A 
ATOM     87  H   UNL A   1      40.846  30.643  33.523  1.00  0.00     0.167 HD
ATOM     88  C   UNL A   1      42.538  28.516  32.740  1.00  0.00     0.074 A 
ATOM     89  C   UNL A   1      43.143  27.472  31.939  1.00  0.00    -0.034 C 
ATOM     90  H   UNL A   1      42.883  26.839  29.919  1.00  0.00     0.065 H 
ATOM     91  H   UNL A   1      43.415  29.849  36.672  1.00  0.00     0.065 H 
ATOM     92  C   UNL A   1      42.922  28.827  34.002  1.00  0.00     0.037 A 
ATOM     93  H   UNL A   1      43.883  26.837  32.275  1.00  0.00     0.065 H 
BRANCH  74  94
ATOM     94  C   UNL A   1      39.669  33.424  36.542  1.00  0.00     0.064 A 
ATOM     95  C   UNL A   1      40.305  34.668  36.670  1.00  0.00     0.173 A 
ATOM     96  C   UNL A   1      38.762  33.047  37.544  1.00  0.00     0.173 A 
ATOM     97  F   UNL A   1      41.189  35.073  35.745  1.00  0.00    -0.203 F 
ATOM     98  C   UNL A   1      40.060  35.491  37.767  1.00  0.00     0.198 A 
ATOM     99  C   UNL A   1      38.496  33.886  38.624  1.00  0.00     0.198 A 
ATOM    100  F   UNL A   1      38.121  31.871  37.469  1.00  0.00    -0.203 F 
ATOM    101  F   UNL A   1      40.713  36.656  37.887  1.00  0.00    -0.200 F 
ATOM    102  C   UNL A   1      39.150  35.104  38.738  1.00  0.00     0.200 A 
ATOM    103  F   UNL A   1      37.605  33.516  39.555  1.00  0.00    -0.200 F 
ATOM    104  F   UNL A   1      38.907  35.901  39.787  1.00  0.00    -0.200 F 
ENDBRANCH  74  94
BRANCH  77 105
ATOM    105  C   UNL A   1      40.930  27.844  28.371  1.00  0.00     0.064 A 
ATOM    106  C   UNL A   1      40.319  26.592  28.205  1.00  0.00     0.173 A 
ATOM    107  C   UNL A   1      41.778  28.293  27.347  1.00  0.00     0.173 A 
ATOM    108  F   UNL A   1      39.515  26.109  29.165  1.00  0.00    -0.203 F 
ATOM    109  C   UNL A   1      40.572  25.810  27.081  1.00  0.00     0.198 A 
ATOM    110  C   UNL A   1      42.003  27.525  26.207  1.00  0.00     0.198 A 
ATOM    111  F   UNL A   1      42.382  29.486  27.451  1.00  0.00    -0.203 F 
ATOM    112  F   UNL A   1      40.021  24.592  26.977  1.00  0.00    -0.200 F 
ATOM    113  C   UNL A   1      41.410  26.278  26.081  1.00  0.00     0.200 A 
ATOM    114  F   UNL A   1      42.800  27.989  25.236  1.00  0.00    -0.200 F 
ATOM    115  F   UNL A   1      41.652  25.525  25.000  1.00  0.00    -0.200 F 
ENDBRANCH  77 105
BRANCH  92 116
ATOM    116  C   UNL A   1      44.031  28.010  34.602  1.00  0.00     0.064 A 
ATOM    117  C   UNL A   1      43.775  26.812  35.288  1.00  0.00     0.173 A 
ATOM    118  C   UNL A   1      45.367  28.423  34.481  1.00  0.00     0.173 A 
ATOM    119  F   UNL A   1      42.515  26.380  35.444  1.00  0.00    -0.203 F 
ATOM    120  C   UNL A   1      44.810  26.081  35.864  1.00  0.00     0.198 A 
ATOM    121  C   UNL A   1      46.403  27.671  35.029  1.00  0.00     0.198 A 
ATOM    122  F   UNL A   1      45.668  29.555  33.829  1.00  0.00    -0.203 F 
ATOM    123  F   UNL A   1      44.535  24.975  36.568  1.00  0.00    -0.200 F 
ATOM    124  C   UNL A   1      46.123  26.508  35.730  1.00  0.00     0.200 A 
ATOM    125  F   UNL A   1      47.671  28.077  34.887  1.00  0.00    -0.200 F 
ATOM    126  F   UNL A   1      47.118  25.803  36.286  1.00  0.00    -0.200 F 
ENDBRANCH  92 116
ENDBRANCH  57  60
ENDBRANCH  47  50
ENDBRANCH  43  46
ENDBRANCH  40  43
ENDBRANCH   1  40
TORSDOF 15
ENDMDL
MODEL 2
REMARK VINA RESULT:     -12.0      1.717      2.826
REMARK SMILES C[C@H](C(=O)NCCCCCCNC(=O)c1ccc(-c2c3nc(c(-c4c(F)c(F)c(F)c(F)c4F)c4ccc([nH]4)c(-c4c(F)c(F)c(F)c(F)c4F)c4nc(c(-c5c(F)c(F)c(F)c(F)c5F)c5ccc2[nH]5)C=C4)C=C3)cc1)c1ccc2c(c1)OCCO2
REMARK SMILES IDX 9 1 8 4 7 7 6 10 5 13 3 14 4 15 2 17 1 19 78 23 79 24 83 25
REMARK SMILES IDX 80 26 82 28 81 30 84 32 87 33 85 34 86 35 10 40 11 43 12 46
REMARK SMILES IDX 13 47 14 49 15 50 16 51 77 52 17 53 76 55 18 57 19 60 20 61
REMARK SMILES IDX 70 62 21 63 75 64 69 65 71 66 22 67 74 68 68 70 67 72 23 74
REMARK SMILES IDX 55 77 35 78 54 79 36 80 39 81 53 82 72 83 37 84 38 86 52 88
REMARK SMILES IDX 73 89 40 92 24 94 25 95 33 96 26 97 27 98 31 99 34 100
REMARK SMILES IDX 28 101 29 102 32 103 30 104 56 105 57 106 65 107 58 108
REMARK SMILES IDX 59 109 63 110 66 111 60 112 61 113 64 114 62 115 41 116
REMARK SMILES IDX 42 117 50 118 43 119 44 120 48 121 51 122 45 123 46 124
REMARK SMILES IDX 49 125 47 126
REMARK H PARENT 9 2 9 3 8 5 8 6 7 8 7 9 6 11 6 12 5 16 2 18 1 20 1 21 1 22
REMARK H PARENT 79 27 83 29 80 31 85 36 85 37 86 38 86 39 10 41 10 42 11 44
REMARK H PARENT 11 45 12 48 16 54 77 56 17 58 76 59 75 69 69 71 71 73 74 75
REMARK H PARENT 68 76 36 85 39 87 72 90 37 91 73 93
REMARK Flexibility Score: inf
ROOT
ATOM      1  C   UNL A   1      32.225  27.558  26.884  1.00  0.00    -0.052 C 
ATOM      2  H   UNL A   1      32.448  27.558  27.931  1.00  0.00     0.027 H 
ATOM      3  H   UNL A   1      31.429  26.903  26.597  1.00  0.00     0.027 H 
ENDROOT
BRANCH   1   4
ATOM      4  C   UNL A   1      33.461  27.035  26.147  1.00  0.00    -0.052 C 
ATOM      5  H   UNL A   1      33.596  27.637  25.272  1.00  0.00     0.027 H 
ATOM      6  H   UNL A   1      34.258  27.094  26.860  1.00  0.00     0.027 H 
BRANCH   4   7
ATOM      7  C   UNL A   1      33.433  25.570  25.699  1.00  0.00    -0.036 C 
ATOM      8  H   UNL A   1      34.388  25.342  25.273  1.00  0.00     0.028 H 
ATOM      9  H   UNL A   1      33.194  25.011  26.580  1.00  0.00     0.028 H 
BRANCH   7  10
ATOM     10  C   UNL A   1      32.365  25.188  24.677  1.00  0.00     0.017 C 
ATOM     11  H   UNL A   1      32.132  24.152  24.812  1.00  0.00     0.049 H 
ATOM     12  H   UNL A   1      31.534  25.837  24.856  1.00  0.00     0.049 H 
BRANCH  10  13
ATOM     13  N   UNL A   1      32.744  25.386  23.287  1.00  0.00    -0.356 N 
ATOM     14  C   UNL A   1      32.967  26.538  22.580  1.00  0.00     0.227 C 
ATOM     15  O   UNL A   1      33.548  26.410  21.495  1.00  0.00    -0.274 OA
ATOM     16  H   UNL A   1      32.860  24.556  22.770  1.00  0.00     0.163 HD
BRANCH  14  17
ATOM     17  C   UNL A   1      32.437  27.927  23.003  1.00  0.00     0.060 C 
ATOM     18  H   UNL A   1      32.395  27.984  24.071  1.00  0.00     0.045 H 
BRANCH  17  19
ATOM     19  C   UNL A   1      33.434  28.951  22.439  1.00  0.00    -0.049 C 
ATOM     20  H   UNL A   1      34.296  28.440  22.064  1.00  0.00     0.024 H 
ATOM     21  H   UNL A   1      33.729  29.625  23.216  1.00  0.00     0.024 H 
ATOM     22  H   UNL A   1      32.972  29.499  21.646  1.00  0.00     0.024 H 
ENDBRANCH  17  19
BRANCH  17  23
ATOM     23  C   UNL A   1      30.977  28.210  22.663  1.00  0.00    -0.032 A 
ATOM     24  C   UNL A   1      29.924  27.455  23.216  1.00  0.00    -0.054 A 
ATOM     25  C   UNL A   1      30.658  29.340  21.897  1.00  0.00    -0.012 A 
ATOM     26  C   UNL A   1      28.625  27.963  23.239  1.00  0.00    -0.016 A 
ATOM     27  H   UNL A   1      30.115  26.520  23.607  1.00  0.00     0.063 H 
ATOM     28  C   UNL A   1      29.401  29.913  22.040  1.00  0.00     0.161 A 
ATOM     29  H   UNL A   1      31.346  29.739  21.240  1.00  0.00     0.067 H 
ATOM     30  C   UNL A   1      28.406  29.242  22.752  1.00  0.00     0.161 A 
ATOM     31  H   UNL A   1      27.844  27.399  23.609  1.00  0.00     0.066 H 
ATOM     32  O   UNL A   1      29.285  31.215  21.631  1.00  0.00    -0.486 OA
ATOM     33  O   UNL A   1      27.257  29.886  23.137  1.00  0.00    -0.486 OA
ATOM     34  C   UNL A   1      28.238  31.934  22.297  1.00  0.00     0.122 C 
ATOM     35  C   UNL A   1      27.651  31.214  23.505  1.00  0.00     0.122 C 
ATOM     36  H   UNL A   1      27.449  32.105  21.593  1.00  0.00     0.074 H 
ATOM     37  H   UNL A   1      28.672  32.841  22.661  1.00  0.00     0.074 H 
ATOM     38  H   UNL A   1      26.798  31.752  23.860  1.00  0.00     0.074 H 
ATOM     39  H   UNL A   1      28.390  31.161  24.278  1.00  0.00     0.074 H 
ENDBRANCH  17  23
ENDBRANCH  14  17
ENDBRANCH  10  13
ENDBRANCH   7  10
ENDBRANCH   4   7
ENDBRANCH   1   4
BRANCH   1  40
ATOM     40  C   UNL A   1      31.744  28.963  26.512  1.00  0.00    -0.036 C 
ATOM     41  H   UNL A   1      31.329  29.408  27.392  1.00  0.00     0.028 H 
ATOM     42  H   UNL A   1      31.048  28.819  25.712  1.00  0.00     0.028 H 
BRANCH  40  43
ATOM     43  C   UNL A   1      32.797  29.924  25.960  1.00  0.00     0.018 C 
ATOM     44  H   UNL A   1      32.733  29.918  24.891  1.00  0.00     0.049 H 
ATOM     45  H   UNL A   1      33.748  29.584  26.312  1.00  0.00     0.049 H 
BRANCH  43  46
ATOM     46  N   UNL A   1      32.636  31.293  26.421  1.00  0.00    -0.352 N 
ATOM     47  C   UNL A   1      33.366  32.027  27.321  1.00  0.00     0.251 C 
ATOM     48  H   UNL A   1      31.875  31.773  26.022  1.00  0.00     0.163 HD
ATOM     49  O   UNL A   1      32.976  33.158  27.626  1.00  0.00    -0.269 OA
BRANCH  47  50
ATOM     50  C   UNL A   1      34.591  31.494  27.965  1.00  0.00     0.039 A 
ATOM     51  C   UNL A   1      35.645  32.380  28.215  1.00  0.00    -0.049 A 
ATOM     52  C   UNL A   1      34.745  30.142  28.286  1.00  0.00    -0.049 A 
ATOM     53  C   UNL A   1      36.815  31.929  28.835  1.00  0.00    -0.053 A 
ATOM     54  H   UNL A   1      35.559  33.371  27.940  1.00  0.00     0.063 H 
ATOM     55  C   UNL A   1      35.885  29.705  28.968  1.00  0.00    -0.053 A 
ATOM     56  H   UNL A   1      34.014  29.463  28.017  1.00  0.00     0.063 H 
ATOM     57  C   UNL A   1      36.932  30.593  29.253  1.00  0.00    -0.014 A 
ATOM     58  H   UNL A   1      37.599  32.583  28.985  1.00  0.00     0.063 H 
ATOM     59  H   UNL A   1      35.956  28.719  29.266  1.00  0.00     0.063 H 
BRANCH  57  60
ATOM     60  C   UNL A   1      38.136  30.141  30.005  1.00  0.00     0.031 A 
ATOM     61  C   UNL A   1      38.407  30.630  31.402  1.00  0.00     0.074 A 
ATOM     62  C   UNL A   1      39.006  29.299  29.412  1.00  0.00     0.049 A 
ATOM     63  N   UNL A   1      39.404  30.337  32.203  1.00  0.00    -0.248 NA
ATOM     64  C   UNL A   1      37.447  31.587  31.970  1.00  0.00    -0.034 C 
ATOM     65  C   UNL A   1      38.892  28.795  28.043  1.00  0.00    -0.036 A 
ATOM     66  N   UNL A   1      40.159  28.720  29.883  1.00  0.00    -0.354 N 
ATOM     67  C   UNL A   1      39.186  31.065  33.365  1.00  0.00     0.074 A 
ATOM     68  C   UNL A   1      37.999  31.863  33.144  1.00  0.00    -0.034 C 
ATOM     69  H   UNL A   1      36.571  31.950  31.563  1.00  0.00     0.065 H 
ATOM     70  C   UNL A   1      39.917  27.965  27.793  1.00  0.00    -0.036 A 
ATOM     71  H   UNL A   1      38.142  29.038  27.377  1.00  0.00     0.065 H 
ATOM     72  C   UNL A   1      40.779  27.902  28.969  1.00  0.00     0.049 A 
ATOM     73  H   UNL A   1      40.510  28.877  30.790  1.00  0.00     0.167 HD
ATOM     74  C   UNL A   1      39.891  31.048  34.523  1.00  0.00     0.037 A 
ATOM     75  H   UNL A   1      37.630  32.558  33.813  1.00  0.00     0.065 H 
ATOM     76  H   UNL A   1      40.069  27.453  26.909  1.00  0.00     0.065 H 
ATOM     77  C   UNL A   1      41.913  27.183  29.064  1.00  0.00     0.037 A 
ATOM     78  C   UNL A   1      41.071  30.250  34.748  1.00  0.00     0.049 A 
ATOM     79  C   UNL A   1      42.681  27.186  30.358  1.00  0.00     0.074 A 
ATOM     80  C   UNL A   1      41.837  30.146  35.896  1.00  0.00    -0.036 A 
ATOM     81  N   UNL A   1      41.656  29.421  33.803  1.00  0.00    -0.354 N 
ATOM     82  N   UNL A   1      42.424  27.830  31.471  1.00  0.00    -0.248 NA
ATOM     83  C   UNL A   1      43.888  26.351  30.414  1.00  0.00    -0.034 C 
ATOM     84  C   UNL A   1      42.910  29.286  35.634  1.00  0.00    -0.036 A 
ATOM     85  H   UNL A   1      41.650  30.621  36.793  1.00  0.00     0.065 H 
ATOM     86  C   UNL A   1      42.783  28.813  34.338  1.00  0.00     0.049 A 
ATOM     87  H   UNL A   1      41.322  29.283  32.888  1.00  0.00     0.167 HD
ATOM     88  C   UNL A   1      43.422  27.461  32.364  1.00  0.00     0.074 A 
ATOM     89  C   UNL A   1      44.272  26.515  31.671  1.00  0.00    -0.034 C 
ATOM     90  H   UNL A   1      44.324  25.786  29.668  1.00  0.00     0.065 H 
ATOM     91  H   UNL A   1      43.666  29.046  36.292  1.00  0.00     0.065 H 
ATOM     92  C   UNL A   1      43.621  27.873  33.639  1.00  0.00     0.037 A 
ATOM     93  H   UNL A   1      45.073  26.029  32.103  1.00  0.00     0.065 H 
BRANCH  74  94
ATOM     94  C   UNL A   1      39.397  31.907  35.652  1.00  0.00     0.064 A 
ATOM     95  C   UNL A   1      38.450  31.430  36.571  1.00  0.00     0.173 A 
ATOM     96  C   UNL A   1      39.913  33.196  35.854  1.00  0.00     0.173 A 
ATOM     97  F   UNL A   1      37.918  30.208  36.419  1.00  0.00    -0.203 F 
ATOM     98  C   UNL A   1      38.021  32.219  37.636  1.00  0.00     0.198 A 
ATOM     99  C   UNL A   1      39.504  33.971  36.937  1.00  0.00     0.198 A 
ATOM    100  F   UNL A   1      40.825  33.700  35.009  1.00  0.00    -0.203 F 
ATOM    101  F   UNL A   1      37.084  31.757  38.475  1.00  0.00    -0.200 F 
ATOM    102  C   UNL A   1      38.554  33.485  37.823  1.00  0.00     0.200 A 
ATOM    103  F   UNL A   1      40.032  35.189  37.124  1.00  0.00    -0.200 F 
ATOM    104  F   UNL A   1      38.149  34.239  38.854  1.00  0.00    -0.200 F 
ENDBRANCH  74  94
BRANCH  77 105
ATOM    105  C   UNL A   1      42.390  26.387  27.902  1.00  0.00     0.064 A 
ATOM    106  C   UNL A   1      43.320  26.913  26.993  1.00  0.00     0.173 A 
ATOM    107  C   UNL A   1      41.909  25.091  27.662  1.00  0.00     0.173 A 
ATOM    108  F   UNL A   1      43.796  28.156  27.167  1.00  0.00    -0.203 F 
ATOM    109  C   UNL A   1      43.725  26.187  25.874  1.00  0.00     0.198 A 
ATOM    110  C   UNL A   1      42.340  24.354  26.561  1.00  0.00     0.198 A 
ATOM    111  F   UNL A   1      41.024  24.537  28.503  1.00  0.00    -0.203 F 
ATOM    112  F   UNL A   1      44.569  26.738  24.991  1.00  0.00    -0.200 F 
ATOM    113  C   UNL A   1      43.239  24.907  25.662  1.00  0.00     0.200 A 
ATOM    114  F   UNL A   1      41.880  23.110  26.370  1.00  0.00    -0.200 F 
ATOM    115  F   UNL A   1      43.628  24.210  24.586  1.00  0.00    -0.200 F 
ENDBRANCH  77 105
BRANCH  92 116
ATOM    116  C   UNL A   1      44.789  27.280  34.376  1.00  0.00     0.064 A 
ATOM    117  C   UNL A   1      44.671  26.085  35.103  1.00  0.00     0.173 A 
ATOM    118  C   UNL A   1      46.043  27.909  34.348  1.00  0.00     0.173 A 
ATOM    119  F   UNL A   1      43.491  25.452  35.174  1.00  0.00    -0.203 F 
ATOM    120  C   UNL A   1      45.754  25.563  35.805  1.00  0.00     0.198 A 
ATOM    121  C   UNL A   1      47.133  27.367  35.023  1.00  0.00     0.198 A 
ATOM    122  F   UNL A   1      46.213  29.049  33.663  1.00  0.00    -0.203 F 
ATOM    123  F   UNL A   1      45.601  24.456  36.543  1.00  0.00    -0.200 F 
ATOM    124  C   UNL A   1      46.985  26.201  35.761  1.00  0.00     0.200 A 
ATOM    125  F   UNL A   1      48.324  27.976  34.968  1.00  0.00    -0.200 F 
ATOM    126  F   UNL A   1      48.027  25.699  36.438  1.00  0.00    -0.200 F 
ENDBRANCH  92 116
ENDBRANCH  57  60
ENDBRANCH  47  50
ENDBRANCH  43  46
ENDBRANCH  40  43
ENDBRANCH   1  40
TORSDOF 15
ENDMDL
MODEL 3
REMARK VINA RESULT:     -12.0      0.193      1.622
REMARK SMILES C[C@H](C(=O)NCCCCCCNC(=O)c1ccc(-c2c3nc(c(-c4c(F)c(F)c(F)c(F)c4F)c4ccc([nH]4)c(-c4c(F)c(F)c(F)c(F)c4F)c4nc(c(-c5c(F)c(F)c(F)c(F)c5F)c5ccc2[nH]5)C=C4)C=C3)cc1)c1ccc2c(c1)OCCO2
REMARK SMILES IDX 9 1 8 4 7 7 6 10 5 13 3 14 4 15 2 17 1 19 78 23 79 24 83 25
REMARK SMILES IDX 80 26 82 28 81 30 84 32 87 33 85 34 86 35 10 40 11 43 12 46
REMARK SMILES IDX 13 47 14 49 15 50 16 51 77 52 17 53 76 55 18 57 19 60 20 61
REMARK SMILES IDX 70 62 21 63 75 64 69 65 71 66 22 67 74 68 68 70 67 72 23 74
REMARK SMILES IDX 55 77 35 78 54 79 36 80 39 81 53 82 72 83 37 84 38 86 52 88
REMARK SMILES IDX 73 89 40 92 24 94 25 95 33 96 26 97 27 98 31 99 34 100
REMARK SMILES IDX 28 101 29 102 32 103 30 104 56 105 57 106 65 107 58 108
REMARK SMILES IDX 59 109 63 110 66 111 60 112 61 113 64 114 62 115 41 116
REMARK SMILES IDX 42 117 50 118 43 119 44 120 48 121 51 122 45 123 46 124
REMARK SMILES IDX 49 125 47 126
REMARK H PARENT 9 2 9 3 8 5 8 6 7 8 7 9 6 11 6 12 5 16 2 18 1 20 1 21 1 22
REMARK H PARENT 79 27 83 29 80 31 85 36 85 37 86 38 86 39 10 41 10 42 11 44
REMARK H PARENT 11 45 12 48 16 54 77 56 17 58 76 59 75 69 69 71 71 73 74 75
REMARK H PARENT 68 76 36 85 39 87 72 90 37 91 73 93
REMARK Flexibility Score: inf
ROOT
ATOM      1  C   UNL A   1      31.389  30.376  25.774  1.00  0.00    -0.052 C 
ATOM      2  H   UNL A   1      30.777  29.697  26.331  1.00  0.00     0.027 H 
ATOM      3  H   UNL A   1      31.097  30.506  24.753  1.00  0.00     0.027 H 
ENDROOT
BRANCH   1   4
ATOM      4  C   UNL A   1      32.801  29.786  25.716  1.00  0.00    -0.052 C 
ATOM      5  H   UNL A   1      32.907  29.291  24.773  1.00  0.00     0.027 H 
ATOM      6  H   UNL A   1      33.458  30.619  25.862  1.00  0.00     0.027 H 
BRANCH   4   7
ATOM      7  C   UNL A   1      33.178  28.782  26.809  1.00  0.00    -0.036 C 
ATOM      8  H   UNL A   1      34.221  28.901  27.015  1.00  0.00     0.028 H 
ATOM      9  H   UNL A   1      32.533  29.008  27.633  1.00  0.00     0.028 H 
BRANCH   7  10
ATOM     10  C   UNL A   1      32.931  27.307  26.498  1.00  0.00     0.017 C 
ATOM     11  H   UNL A   1      33.173  27.140  25.469  1.00  0.00     0.049 H 
ATOM     12  H   UNL A   1      33.547  26.752  27.175  1.00  0.00     0.049 H 
BRANCH  10  13
ATOM     13  N   UNL A   1      31.569  26.851  26.720  1.00  0.00    -0.356 N 
ATOM     14  C   UNL A   1      30.679  26.251  25.869  1.00  0.00     0.227 C 
ATOM     15  O   UNL A   1      29.694  25.717  26.394  1.00  0.00    -0.274 OA
ATOM     16  H   UNL A   1      31.230  26.996  27.634  1.00  0.00     0.163 HD
BRANCH  14  17
ATOM     17  C   UNL A   1      30.783  26.314  24.328  1.00  0.00     0.060 C 
ATOM     18  H   UNL A   1      31.633  26.903  24.050  1.00  0.00     0.045 H 
BRANCH  17  19
ATOM     19  C   UNL A   1      30.946  24.862  23.854  1.00  0.00    -0.049 C 
ATOM     20  H   UNL A   1      31.768  24.799  23.172  1.00  0.00     0.024 H 
ATOM     21  H   UNL A   1      30.050  24.545  23.363  1.00  0.00     0.024 H 
ATOM     22  H   UNL A   1      31.134  24.230  24.697  1.00  0.00     0.024 H 
ENDBRANCH  17  19
BRANCH  17  23
ATOM     23  C   UNL A   1      29.677  27.091  23.622  1.00  0.00    -0.032 A 
ATOM     24  C   UNL A   1      28.313  26.846  23.875  1.00  0.00    -0.054 A 
ATOM     25  C   UNL A   1      30.018  28.180  22.807  1.00  0.00    -0.012 A 
ATOM     26  C   UNL A   1      27.351  27.804  23.563  1.00  0.00    -0.016 A 
ATOM     27  H   UNL A   1      28.026  25.949  24.297  1.00  0.00     0.063 H 
ATOM     28  C   UNL A   1      29.088  29.195  22.620  1.00  0.00     0.161 A 
ATOM     29  H   UNL A   1      30.944  28.227  22.353  1.00  0.00     0.067 H 
ATOM     30  C   UNL A   1      27.771  29.019  23.044  1.00  0.00     0.161 A 
ATOM     31  H   UNL A   1      26.347  27.614  23.713  1.00  0.00     0.066 H 
ATOM     32  O   UNL A   1      29.590  30.400  22.204  1.00  0.00    -0.486 OA
ATOM     33  O   UNL A   1      26.906  30.082  23.121  1.00  0.00    -0.486 OA
ATOM     34  C   UNL A   1      28.776  31.520  22.580  1.00  0.00     0.122 C 
ATOM     35  C   UNL A   1      27.682  31.193  23.589  1.00  0.00     0.122 C 
ATOM     36  H   UNL A   1      28.313  31.907  21.696  1.00  0.00     0.074 H 
ATOM     37  H   UNL A   1      29.426  32.227  23.051  1.00  0.00     0.074 H 
ATOM     38  H   UNL A   1      27.046  32.044  23.712  1.00  0.00     0.074 H 
ATOM     39  H   UNL A   1      28.131  30.939  24.527  1.00  0.00     0.074 H 
ENDBRANCH  17  23
ENDBRANCH  14  17
ENDBRANCH  10  13
ENDBRANCH   7  10
ENDBRANCH   4   7
ENDBRANCH   1   4
BRANCH   1  40
ATOM     40  C   UNL A   1      31.247  31.761  26.413  1.00  0.00    -0.036 C 
ATOM     41  H   UNL A   1      30.616  31.659  27.271  1.00  0.00     0.028 H 
ATOM     42  H   UNL A   1      30.854  32.387  25.640  1.00  0.00     0.028 H 
BRANCH  40  43
ATOM     43  C   UNL A   1      32.537  32.443  26.865  1.00  0.00     0.018 C 
ATOM     44  H   UNL A   1      33.200  32.505  26.027  1.00  0.00     0.049 H 
ATOM     45  H   UNL A   1      32.942  31.852  27.661  1.00  0.00     0.049 H 
BRANCH  43  46
ATOM     46  N   UNL A   1      32.336  33.783  27.391  1.00  0.00    -0.352 N 
ATOM     47  C   UNL A   1      33.011  34.476  28.362  1.00  0.00     0.251 C 
ATOM     48  H   UNL A   1      31.588  34.275  26.981  1.00  0.00     0.163 HD
ATOM     49  O   UNL A   1      32.591  35.585  28.708  1.00  0.00    -0.269 OA
BRANCH  47  50
ATOM     50  C   UNL A   1      34.211  33.923  29.036  1.00  0.00     0.039 A 
ATOM     51  C   UNL A   1      34.024  32.952  30.026  1.00  0.00    -0.049 A 
ATOM     52  C   UNL A   1      35.506  34.367  28.751  1.00  0.00    -0.049 A 
ATOM     53  C   UNL A   1      35.124  32.388  30.679  1.00  0.00    -0.053 A 
ATOM     54  H   UNL A   1      33.069  32.651  30.276  1.00  0.00     0.063 H 
ATOM     55  C   UNL A   1      36.609  33.755  29.354  1.00  0.00    -0.053 A 
ATOM     56  H   UNL A   1      35.648  35.151  28.094  1.00  0.00     0.063 H 
ATOM     57  C   UNL A   1      36.432  32.756  30.323  1.00  0.00    -0.014 A 
ATOM     58  H   UNL A   1      34.974  31.696  31.430  1.00  0.00     0.063 H 
ATOM     59  H   UNL A   1      37.564  34.039  29.082  1.00  0.00     0.063 H 
BRANCH  57  60
ATOM     60  C   UNL A   1      37.603  32.079  30.947  1.00  0.00     0.031 A 
ATOM     61  C   UNL A   1      38.073  32.456  32.326  1.00  0.00     0.074 A 
ATOM     62  C   UNL A   1      38.264  31.131  30.253  1.00  0.00     0.049 A 
ATOM     63  N   UNL A   1      39.072  31.968  33.022  1.00  0.00    -0.248 NA
ATOM     64  C   UNL A   1      37.341  33.534  33.006  1.00  0.00    -0.034 C 
ATOM     65  C   UNL A   1      37.948  30.711  28.887  1.00  0.00    -0.036 A 
ATOM     66  N   UNL A   1      39.340  30.349  30.599  1.00  0.00    -0.354 N 
ATOM     67  C   UNL A   1      39.081  32.673  34.220  1.00  0.00     0.074 A 
ATOM     68  C   UNL A   1      38.031  33.665  34.131  1.00  0.00    -0.034 C 
ATOM     69  H   UNL A   1      36.507  34.054  32.692  1.00  0.00     0.065 H 
ATOM     70  C   UNL A   1      38.793  29.734  28.520  1.00  0.00    -0.036 A 
ATOM     71  H   UNL A   1      37.195  31.103  28.300  1.00  0.00     0.065 H 
ATOM     72  C   UNL A   1      39.730  29.480  29.609  1.00  0.00     0.049 A 
ATOM     73  H   UNL A   1      39.789  30.407  31.473  1.00  0.00     0.167 HD
ATOM     74  C   UNL A   1      39.871  32.490  35.306  1.00  0.00     0.037 A 
ATOM     75  H   UNL A   1      37.844  34.382  34.850  1.00  0.00     0.065 H 
ATOM     76  H   UNL A   1      38.780  29.242  27.612  1.00  0.00     0.065 H 
ATOM     77  C   UNL A   1      40.731  28.579  29.579  1.00  0.00     0.037 A 
ATOM     78  C   UNL A   1      40.914  31.499  35.399  1.00  0.00     0.049 A 
ATOM     79  C   UNL A   1      41.598  28.401  30.796  1.00  0.00     0.074 A 
ATOM     80  C   UNL A   1      41.749  31.220  36.468  1.00  0.00    -0.036 A 
ATOM     81  N   UNL A   1      41.267  30.625  34.382  1.00  0.00    -0.354 N 
ATOM     82  N   UNL A   1      41.551  29.030  31.945  1.00  0.00    -0.248 NA
ATOM     83  C   UNL A   1      42.647  27.376  30.717  1.00  0.00    -0.034 C 
ATOM     84  C   UNL A   1      42.634  30.207  36.084  1.00  0.00    -0.036 A 
ATOM     85  H   UNL A   1      41.723  31.681  37.391  1.00  0.00     0.065 H 
ATOM     86  C   UNL A   1      42.317  29.817  34.793  1.00  0.00     0.049 A 
ATOM     87  H   UNL A   1      40.836  30.584  33.497  1.00  0.00     0.167 HD
ATOM     88  C   UNL A   1      42.545  28.463  32.732  1.00  0.00     0.074 A 
ATOM     89  C   UNL A   1      43.160  27.420  31.938  1.00  0.00    -0.034 C 
ATOM     90  H   UNL A   1      42.915  26.778  29.919  1.00  0.00     0.065 H 
ATOM     91  H   UNL A   1      43.394  29.817  36.662  1.00  0.00     0.065 H 
ATOM     92  C   UNL A   1      42.921  28.782  33.994  1.00  0.00     0.037 A 
ATOM     93  H   UNL A   1      43.903  26.790  32.280  1.00  0.00     0.065 H 
BRANCH  74  94
ATOM     94  C   UNL A   1      39.628  33.370  36.499  1.00  0.00     0.064 A 
ATOM     95  C   UNL A   1      38.728  32.998  37.509  1.00  0.00     0.173 A 
ATOM     96  C   UNL A   1      40.342  34.567  36.667  1.00  0.00     0.173 A 
ATOM     97  F   UNL A   1      38.014  31.868  37.394  1.00  0.00    -0.203 F 
ATOM     98  C   UNL A   1      38.533  33.802  38.630  1.00  0.00     0.198 A 
ATOM     99  C   UNL A   1      40.166  35.353  37.803  1.00  0.00     0.198 A 
ATOM    100  F   UNL A   1      41.220  34.967  35.735  1.00  0.00    -0.203 F 
ATOM    101  F   UNL A   1      37.636  33.446  39.559  1.00  0.00    -0.200 F 
ATOM    102  C   UNL A   1      39.258  34.975  38.780  1.00  0.00     0.200 A 
ATOM    103  F   UNL A   1      40.879  36.479  37.953  1.00  0.00    -0.200 F 
ATOM    104  F   UNL A   1      39.078  35.741  39.863  1.00  0.00    -0.200 F 
ENDBRANCH  74  94
BRANCH  77 105
ATOM    105  C   UNL A   1      40.965  27.765  28.356  1.00  0.00     0.064 A 
ATOM    106  C   UNL A   1      40.354  26.513  28.189  1.00  0.00     0.173 A 
ATOM    107  C   UNL A   1      41.823  28.211  27.340  1.00  0.00     0.173 A 
ATOM    108  F   UNL A   1      39.540  26.034  29.142  1.00  0.00    -0.203 F 
ATOM    109  C   UNL A   1      40.617  25.727  27.069  1.00  0.00     0.198 A 
ATOM    110  C   UNL A   1      42.058  27.438  26.205  1.00  0.00     0.198 A 
ATOM    111  F   UNL A   1      42.427  29.403  27.447  1.00  0.00    -0.203 F 
ATOM    112  F   UNL A   1      40.065  24.510  26.963  1.00  0.00    -0.200 F 
ATOM    113  C   UNL A   1      41.465  26.193  26.076  1.00  0.00     0.200 A 
ATOM    114  F   UNL A   1      42.865  27.899  25.240  1.00  0.00    -0.200 F 
ATOM    115  F   UNL A   1      41.717  25.436  24.999  1.00  0.00    -0.200 F 
ENDBRANCH  77 105
BRANCH  92 116
ATOM    116  C   UNL A   1      44.032  27.973  34.603  1.00  0.00     0.064 A 
ATOM    117  C   UNL A   1      45.373  28.380  34.515  1.00  0.00     0.173 A 
ATOM    118  C   UNL A   1      43.752  26.784  35.293  1.00  0.00     0.173 A 
ATOM    119  F   UNL A   1      45.696  29.501  33.854  1.00  0.00    -0.203 F 
ATOM    120  C   UNL A   1      46.394  27.605  35.059  1.00  0.00     0.198 A 
ATOM    121  C   UNL A   1      44.772  26.029  35.865  1.00  0.00     0.198 A 
ATOM    122  F   UNL A   1      42.488  26.354  35.414  1.00  0.00    -0.203 F 
ATOM    123  F   UNL A   1      47.670  27.981  34.907  1.00  0.00    -0.200 F 
ATOM    124  C   UNL A   1      46.093  26.434  35.738  1.00  0.00     0.200 A 
ATOM    125  F   UNL A   1      44.479  24.905  36.533  1.00  0.00    -0.200 F 
ATOM    126  F   UNL A   1      47.076  25.689  36.260  1.00  0.00    -0.200 F 
ENDBRANCH  92 116
ENDBRANCH  57  60
ENDBRANCH  47  50
ENDBRANCH  43  46
ENDBRANCH  40  43
ENDBRANCH   1  40
TORSDOF 15
ENDMDL
MODEL 4
REMARK VINA RESULT:     -11.9      5.872     11.670
REMARK SMILES C[C@H](C(=O)NCCCCCCNC(=O)c1ccc(-c2c3nc(c(-c4c(F)c(F)c(F)c(F)c4F)c4ccc([nH]4)c(-c4c(F)c(F)c(F)c(F)c4F)c4nc(c(-c5c(F)c(F)c(F)c(F)c5F)c5ccc2[nH]5)C=C4)C=C3)cc1)c1ccc2c(c1)OCCO2
REMARK SMILES IDX 9 1 8 4 7 7 6 10 5 13 3 14 4 15 2 17 1 19 78 23 79 24 83 25
REMARK SMILES IDX 80 26 82 28 81 30 84 32 87 33 85 34 86 35 10 40 11 43 12 46
REMARK SMILES IDX 13 47 14 49 15 50 16 51 77 52 17 53 76 55 18 57 19 60 20 61
REMARK SMILES IDX 70 62 21 63 75 64 69 65 71 66 22 67 74 68 68 70 67 72 23 74
REMARK SMILES IDX 55 77 35 78 54 79 36 80 39 81 53 82 72 83 37 84 38 86 52 88
REMARK SMILES IDX 73 89 40 92 24 94 25 95 33 96 26 97 27 98 31 99 34 100
REMARK SMILES IDX 28 101 29 102 32 103 30 104 56 105 57 106 65 107 58 108
REMARK SMILES IDX 59 109 63 110 66 111 60 112 61 113 64 114 62 115 41 116
REMARK SMILES IDX 42 117 50 118 43 119 44 120 48 121 51 122 45 123 46 124
REMARK SMILES IDX 49 125 47 126
REMARK H PARENT 9 2 9 3 8 5 8 6 7 8 7 9 6 11 6 12 5 16 2 18 1 20 1 21 1 22
REMARK H PARENT 79 27 83 29 80 31 85 36 85 37 86 38 86 39 10 41 10 42 11 44
REMARK H PARENT 11 45 12 48 16 54 77 56 17 58 76 59 75 69 69 71 71 73 74 75
REMARK H PARENT 68 76 36 85 39 87 72 90 37 91 73 93
REMARK Flexibility Score: inf
ROOT
ATOM      1  C   UNL A   1      42.313  21.915  28.240  1.00  0.00    -0.052 C 
ATOM      2  H   UNL A   1      42.565  21.235  29.027  1.00  0.00     0.027 H 
ATOM      3  H   UNL A   1      43.010  21.938  27.429  1.00  0.00     0.027 H 
ENDROOT
BRANCH   1   4
ATOM      4  C   UNL A   1      42.334  23.330  28.828  1.00  0.00    -0.052 C 
ATOM      5  H   UNL A   1      42.188  24.018  28.021  1.00  0.00     0.027 H 
ATOM      6  H   UNL A   1      41.560  23.336  29.568  1.00  0.00     0.027 H 
BRANCH   4   7
ATOM      7  C   UNL A   1      43.603  23.752  29.572  1.00  0.00    -0.036 C 
ATOM      8  H   UNL A   1      43.614  24.821  29.617  1.00  0.00     0.028 H 
ATOM      9  H   UNL A   1      43.546  23.268  30.525  1.00  0.00     0.028 H 
BRANCH   7  10
ATOM     10  C   UNL A   1      44.933  23.300  28.970  1.00  0.00     0.017 C 
ATOM     11  H   UNL A   1      45.551  22.940  29.765  1.00  0.00     0.049 H 
ATOM     12  H   UNL A   1      44.693  22.551  28.245  1.00  0.00     0.049 H 
BRANCH  10  13
ATOM     13  N   UNL A   1      45.669  24.333  28.259  1.00  0.00    -0.356 N 
ATOM     14  C   UNL A   1      45.363  25.016  27.111  1.00  0.00     0.227 C 
ATOM     15  O   UNL A   1      46.032  26.032  26.885  1.00  0.00    -0.274 OA
ATOM     16  H   UNL A   1      46.528  24.583  28.671  1.00  0.00     0.163 HD
BRANCH  14  17
ATOM     17  C   UNL A   1      44.341  24.525  26.061  1.00  0.00     0.060 C 
ATOM     18  H   UNL A   1      43.510  24.067  26.557  1.00  0.00     0.045 H 
BRANCH  17  19
ATOM     19  C   UNL A   1      43.896  25.774  25.286  1.00  0.00    -0.049 C 
ATOM     20  H   UNL A   1      43.082  25.521  24.640  1.00  0.00     0.024 H 
ATOM     21  H   UNL A   1      44.714  26.141  24.702  1.00  0.00     0.024 H 
ATOM     22  H   UNL A   1      43.583  26.529  25.977  1.00  0.00     0.024 H 
ENDBRANCH  17  19
BRANCH  17  23
ATOM     23  C   UNL A   1      44.800  23.364  25.184  1.00  0.00    -0.032 A 
ATOM     24  C   UNL A   1      46.104  23.299  24.654  1.00  0.00    -0.054 A 
ATOM     25  C   UNL A   1      43.956  22.257  25.016  1.00  0.00    -0.012 A 
ATOM     26  C   UNL A   1      46.634  22.084  24.224  1.00  0.00    -0.016 A 
ATOM     27  H   UNL A   1      46.671  24.159  24.585  1.00  0.00     0.063 H 
ATOM     28  C   UNL A   1      44.521  21.022  24.723  1.00  0.00     0.161 A 
ATOM     29  H   UNL A   1      42.933  22.358  25.109  1.00  0.00     0.067 H 
ATOM     30  C   UNL A   1      45.870  20.937  24.376  1.00  0.00     0.161 A 
ATOM     31  H   UNL A   1      47.575  22.038  23.802  1.00  0.00     0.066 H 
ATOM     32  O   UNL A   1      43.744  19.927  24.995  1.00  0.00    -0.486 OA
ATOM     33  O   UNL A   1      46.516  19.727  24.345  1.00  0.00    -0.486 OA
ATOM     34  C   UNL A   1      44.501  18.737  25.250  1.00  0.00     0.122 C 
ATOM     35  C   UNL A   1      45.995  18.970  25.445  1.00  0.00     0.122 C 
ATOM     36  H   UNL A   1      44.371  18.073  24.420  1.00  0.00     0.074 H 
ATOM     37  H   UNL A   1      44.133  18.329  26.168  1.00  0.00     0.074 H 
ATOM     38  H   UNL A   1      46.499  18.028  25.498  1.00  0.00     0.074 H 
ATOM     39  H   UNL A   1      46.152  19.515  26.353  1.00  0.00     0.074 H 
ENDBRANCH  17  23
ENDBRANCH  14  17
ENDBRANCH  10  13
ENDBRANCH   7  10
ENDBRANCH   4   7
ENDBRANCH   1   4
BRANCH   1  40
ATOM     40  C   UNL A   1      40.993  21.445  27.623  1.00  0.00    -0.036 C 
ATOM     41  H   UNL A   1      40.197  21.888  28.185  1.00  0.00     0.028 H 
ATOM     42  H   UNL A   1      41.028  20.377  27.664  1.00  0.00     0.028 H 
BRANCH  40  43
ATOM     43  C   UNL A   1      40.765  21.783  26.150  1.00  0.00     0.018 C 
ATOM     44  H   UNL A   1      41.094  20.954  25.558  1.00  0.00     0.049 H 
ATOM     45  H   UNL A   1      41.318  22.676  25.944  1.00  0.00     0.049 H 
BRANCH  43  46
ATOM     46  N   UNL A   1      39.376  22.058  25.823  1.00  0.00    -0.352 N 
ATOM     47  C   UNL A   1      38.584  23.141  26.111  1.00  0.00     0.251 C 
ATOM     48  H   UNL A   1      38.928  21.348  25.309  1.00  0.00     0.163 HD
ATOM     49  O   UNL A   1      37.389  23.106  25.803  1.00  0.00    -0.269 OA
BRANCH  47  50
ATOM     50  C   UNL A   1      39.109  24.337  26.812  1.00  0.00     0.039 A 
ATOM     51  C   UNL A   1      39.888  25.242  26.081  1.00  0.00    -0.049 A 
ATOM     52  C   UNL A   1      38.894  24.567  28.174  1.00  0.00    -0.049 A 
ATOM     53  C   UNL A   1      40.393  26.394  26.692  1.00  0.00    -0.053 A 
ATOM     54  H   UNL A   1      40.092  25.057  25.086  1.00  0.00     0.063 H 
ATOM     55  C   UNL A   1      39.339  25.753  28.767  1.00  0.00    -0.053 A 
ATOM     56  H   UNL A   1      38.404  23.859  28.744  1.00  0.00     0.063 H 
ATOM     57  C   UNL A   1      40.092  26.682  28.033  1.00  0.00    -0.014 A 
ATOM     58  H   UNL A   1      40.993  27.037  26.153  1.00  0.00     0.063 H 
ATOM     59  H   UNL A   1      39.111  25.947  29.755  1.00  0.00     0.063 H 
BRANCH  57  60
ATOM     60  C   UNL A   1      40.544  27.959  28.651  1.00  0.00     0.031 A 
ATOM     61  C   UNL A   1      41.982  28.163  29.046  1.00  0.00     0.074 A 
ATOM     62  C   UNL A   1      39.645  28.937  28.879  1.00  0.00     0.049 A 
ATOM     63  N   UNL A   1      42.550  29.212  29.593  1.00  0.00    -0.248 NA
ATOM     64  C   UNL A   1      42.900  27.038  28.820  1.00  0.00    -0.034 C 
ATOM     65  C   UNL A   1      38.211  28.847  28.595  1.00  0.00    -0.036 A 
ATOM     66  N   UNL A   1      39.800  30.197  29.403  1.00  0.00    -0.354 N 
ATOM     67  C   UNL A   1      43.886  28.875  29.765  1.00  0.00     0.074 A 
ATOM     68  C   UNL A   1      44.034  27.504  29.327  1.00  0.00    -0.034 C 
ATOM     69  H   UNL A   1      42.713  26.124  28.379  1.00  0.00     0.065 H 
ATOM     70  C   UNL A   1      37.624  30.008  28.925  1.00  0.00    -0.036 A 
ATOM     71  H   UNL A   1      37.730  28.022  28.204  1.00  0.00     0.065 H 
ATOM     72  C   UNL A   1      38.630  30.913  29.473  1.00  0.00     0.049 A 
ATOM     73  H   UNL A   1      40.668  30.554  29.701  1.00  0.00     0.167 HD
ATOM     74  C   UNL A   1      44.904  29.647  30.219  1.00  0.00     0.037 A 
ATOM     75  H   UNL A   1      44.907  26.959  29.400  1.00  0.00     0.065 H 
ATOM     76  H   UNL A   1      36.621  30.225  28.809  1.00  0.00     0.065 H 
ATOM     77  C   UNL A   1      38.390  32.158  29.928  1.00  0.00     0.037 A 
ATOM     78  C   UNL A   1      44.761  31.015  30.651  1.00  0.00     0.049 A 
ATOM     79  C   UNL A   1      39.537  32.991  30.432  1.00  0.00     0.074 A 
ATOM     80  C   UNL A   1      45.740  31.886  31.100  1.00  0.00    -0.036 A 
ATOM     81  N   UNL A   1      43.562  31.710  30.690  1.00  0.00    -0.354 N 
ATOM     82  N   UNL A   1      40.807  32.680  30.527  1.00  0.00    -0.248 NA
ATOM     83  C   UNL A   1      39.219  34.355  30.878  1.00  0.00    -0.034 C 
ATOM     84  C   UNL A   1      45.127  33.094  31.451  1.00  0.00    -0.036 A 
ATOM     85  H   UNL A   1      46.749  31.679  31.166  1.00  0.00     0.065 H 
ATOM     86  C   UNL A   1      43.774  32.995  31.170  1.00  0.00     0.049 A 
ATOM     87  H   UNL A   1      42.689  31.347  30.418  1.00  0.00     0.167 HD
ATOM     88  C   UNL A   1      41.441  33.813  31.020  1.00  0.00     0.074 A 
ATOM     89  C   UNL A   1      40.420  34.828  31.177  1.00  0.00    -0.034 C 
ATOM     90  H   UNL A   1      38.300  34.821  30.942  1.00  0.00     0.065 H 
ATOM     91  H   UNL A   1      45.601  33.918  31.851  1.00  0.00     0.065 H 
ATOM     92  C   UNL A   1      42.749  33.996  31.323  1.00  0.00     0.037 A 
ATOM     93  H   UNL A   1      40.604  35.796  31.483  1.00  0.00     0.065 H 
BRANCH  74  94
ATOM     94  C   UNL A   1      46.277  29.038  30.254  1.00  0.00     0.064 A 
ATOM     95  C   UNL A   1      47.116  29.062  29.130  1.00  0.00     0.173 A 
ATOM     96  C   UNL A   1      46.784  28.476  31.436  1.00  0.00     0.173 A 
ATOM     97  F   UNL A   1      46.677  29.579  27.972  1.00  0.00    -0.203 F 
ATOM     98  C   UNL A   1      48.400  28.525  29.179  1.00  0.00     0.198 A 
ATOM     99  C   UNL A   1      48.080  27.968  31.491  1.00  0.00     0.198 A 
ATOM    100  F   UNL A   1      46.027  28.432  32.543  1.00  0.00    -0.203 F 
ATOM    101  F   UNL A   1      49.166  28.522  28.079  1.00  0.00    -0.200 F 
ATOM    102  C   UNL A   1      48.884  27.986  30.361  1.00  0.00     0.200 A 
ATOM    103  F   UNL A   1      48.551  27.461  32.638  1.00  0.00    -0.200 F 
ATOM    104  F   UNL A   1      50.124  27.482  30.411  1.00  0.00    -0.200 F 
ENDBRANCH  74  94
BRANCH  77 105
ATOM    105  C   UNL A   1      37.005  32.700  29.920  1.00  0.00     0.064 A 
ATOM    106  C   UNL A   1      36.493  33.369  28.798  1.00  0.00     0.173 A 
ATOM    107  C   UNL A   1      36.172  32.584  31.043  1.00  0.00     0.173 A 
ATOM    108  F   UNL A   1      37.257  33.524  27.706  1.00  0.00    -0.203 F 
ATOM    109  C   UNL A   1      35.215  33.925  28.811  1.00  0.00     0.198 A 
ATOM    110  C   UNL A   1      34.883  33.111  31.042  1.00  0.00     0.198 A 
ATOM    111  F   UNL A   1      36.609  31.948  32.140  1.00  0.00    -0.203 F 
ATOM    112  F   UNL A   1      34.775  34.609  27.746  1.00  0.00    -0.200 F 
ATOM    113  C   UNL A   1      34.410  33.792  29.931  1.00  0.00     0.200 A 
ATOM    114  F   UNL A   1      34.102  32.965  32.120  1.00  0.00    -0.200 F 
ATOM    115  F   UNL A   1      33.182  34.327  29.943  1.00  0.00    -0.200 F 
ENDBRANCH  77 105
BRANCH  92 116
ATOM    116  C   UNL A   1      43.153  35.352  31.828  1.00  0.00     0.064 A 
ATOM    117  C   UNL A   1      43.032  35.699  33.183  1.00  0.00     0.173 A 
ATOM    118  C   UNL A   1      43.678  36.313  30.950  1.00  0.00     0.173 A 
ATOM    119  F   UNL A   1      42.523  34.822  34.061  1.00  0.00    -0.203 F 
ATOM    120  C   UNL A   1      43.383  36.969  33.632  1.00  0.00     0.198 A 
ATOM    121  C   UNL A   1      44.059  37.571  31.408  1.00  0.00     0.198 A 
ATOM    122  F   UNL A   1      43.822  36.031  29.648  1.00  0.00    -0.203 F 
ATOM    123  F   UNL A   1      43.199  37.298  34.917  1.00  0.00    -0.200 F 
ATOM    124  C   UNL A   1      43.901  37.902  32.746  1.00  0.00     0.200 A 
ATOM    125  F   UNL A   1      44.572  38.466  30.554  1.00  0.00    -0.200 F 
ATOM    126  F   UNL A   1      44.237  39.125  33.178  1.00  0.00    -0.200 F 
ENDBRANCH  92 116
ENDBRANCH  57  60
ENDBRANCH  47  50
ENDBRANCH  43  46
ENDBRANCH  40  43
ENDBRANCH   1  40
TORSDOF 15
ENDMDL
MODEL 5
REMARK VINA RESULT:     -11.9      1.694      2.570
REMARK SMILES C[C@H](C(=O)NCCCCCCNC(=O)c1ccc(-c2c3nc(c(-c4c(F)c(F)c(F)c(F)c4F)c4ccc([nH]4)c(-c4c(F)c(F)c(F)c(F)c4F)c4nc(c(-c5c(F)c(F)c(F)c(F)c5F)c5ccc2[nH]5)C=C4)C=C3)cc1)c1ccc2c(c1)OCCO2
REMARK SMILES IDX 9 1 8 4 7 7 6 10 5 13 3 14 4 15 2 17 1 19 78 23 79 24 83 25
REMARK SMILES IDX 80 26 82 28 81 30 84 32 87 33 85 34 86 35 10 40 11 43 12 46
REMARK SMILES IDX 13 47 14 49 15 50 16 51 77 52 17 53 76 55 18 57 19 60 20 61
REMARK SMILES IDX 70 62 21 63 75 64 69 65 71 66 22 67 74 68 68 70 67 72 23 74
REMARK SMILES IDX 55 77 35 78 54 79 36 80 39 81 53 82 72 83 37 84 38 86 52 88
REMARK SMILES IDX 73 89 40 92 24 94 25 95 33 96 26 97 27 98 31 99 34 100
REMARK SMILES IDX 28 101 29 102 32 103 30 104 56 105 57 106 65 107 58 108
REMARK SMILES IDX 59 109 63 110 66 111 60 112 61 113 64 114 62 115 41 116
REMARK SMILES IDX 42 117 50 118 43 119 44 120 48 121 51 122 45 123 46 124
REMARK SMILES IDX 49 125 47 126
REMARK H PARENT 9 2 9 3 8 5 8 6 7 8 7 9 6 11 6 12 5 16 2 18 1 20 1 21 1 22
REMARK H PARENT 79 27 83 29 80 31 85 36 85 37 86 38 86 39 10 41 10 42 11 44
REMARK H PARENT 11 45 12 48 16 54 77 56 17 58 76 59 75 69 69 71 71 73 74 75
REMARK H PARENT 68 76 36 85 39 87 72 90 37 91 73 93
REMARK Flexibility Score: inf
ROOT
ATOM      1  C   UNL A   1      32.309  27.641  26.817  1.00  0.00    -0.052 C 
ATOM      2  H   UNL A   1      33.119  27.475  26.138  1.00  0.00     0.027 H 
ATOM      3  H   UNL A   1      32.581  27.625  27.852  1.00  0.00     0.027 H 
ENDROOT
BRANCH   1   4
ATOM      4  C   UNL A   1      31.316  26.487  26.646  1.00  0.00    -0.052 C 
ATOM      5  H   UNL A   1      31.159  26.049  27.609  1.00  0.00     0.027 H 
ATOM      6  H   UNL A   1      30.446  26.929  26.206  1.00  0.00     0.027 H 
BRANCH   4   7
ATOM      7  C   UNL A   1      31.721  25.362  25.688  1.00  0.00    -0.036 C 
ATOM      8  H   UNL A   1      31.653  24.438  26.224  1.00  0.00     0.028 H 
ATOM      9  H   UNL A   1      31.051  25.444  24.858  1.00  0.00     0.028 H 
BRANCH   7  10
ATOM     10  C   UNL A   1      33.121  25.447  25.085  1.00  0.00     0.017 C 
ATOM     11  H   UNL A   1      33.590  26.333  25.459  1.00  0.00     0.049 H 
ATOM     12  H   UNL A   1      33.625  24.547  25.370  1.00  0.00     0.049 H 
BRANCH  10  13
ATOM     13  N   UNL A   1      33.164  25.495  23.632  1.00  0.00    -0.356 N 
ATOM     14  C   UNL A   1      33.097  26.559  22.773  1.00  0.00     0.227 C 
ATOM     15  O   UNL A   1      33.438  26.340  21.603  1.00  0.00    -0.274 OA
ATOM     16  H   UNL A   1      33.256  24.617  23.195  1.00  0.00     0.163 HD
BRANCH  14  17
ATOM     17  C   UNL A   1      32.521  27.942  23.154  1.00  0.00     0.060 C 
ATOM     18  H   UNL A   1      32.450  28.019  24.220  1.00  0.00     0.045 H 
BRANCH  17  19
ATOM     19  C   UNL A   1      33.504  28.980  22.594  1.00  0.00    -0.049 C 
ATOM     20  H   UNL A   1      34.507  28.665  22.794  1.00  0.00     0.024 H 
ATOM     21  H   UNL A   1      33.328  29.926  23.062  1.00  0.00     0.024 H 
ATOM     22  H   UNL A   1      33.363  29.072  21.537  1.00  0.00     0.024 H 
ENDBRANCH  17  19
BRANCH  17  23
ATOM     23  C   UNL A   1      31.063  28.178  22.773  1.00  0.00    -0.032 A 
ATOM     24  C   UNL A   1      30.020  27.375  23.276  1.00  0.00    -0.054 A 
ATOM     25  C   UNL A   1      30.727  29.312  22.019  1.00  0.00    -0.012 A 
ATOM     26  C   UNL A   1      28.704  27.835  23.267  1.00  0.00    -0.016 A 
ATOM     27  H   UNL A   1      30.234  26.440  23.656  1.00  0.00     0.063 H 
ATOM     28  C   UNL A   1      29.446  29.836  22.132  1.00  0.00     0.161 A 
ATOM     29  H   UNL A   1      31.420  29.749  21.392  1.00  0.00     0.067 H 
ATOM     30  C   UNL A   1      28.454  29.115  22.798  1.00  0.00     0.161 A 
ATOM     31  H   UNL A   1      27.933  27.236  23.601  1.00  0.00     0.066 H 
ATOM     32  O   UNL A   1      29.295  31.141  21.745  1.00  0.00    -0.486 OA
ATOM     33  O   UNL A   1      27.270  29.710  23.159  1.00  0.00    -0.486 OA
ATOM     34  C   UNL A   1      28.201  31.808  22.390  1.00  0.00     0.122 C 
ATOM     35  C   UNL A   1      27.603  31.043  23.565  1.00  0.00     0.122 C 
ATOM     36  H   UNL A   1      27.430  31.964  21.665  1.00  0.00     0.074 H 
ATOM     37  H   UNL A   1      28.590  32.722  22.786  1.00  0.00     0.074 H 
ATOM     38  H   UNL A   1      26.720  31.542  23.903  1.00  0.00     0.074 H 
ATOM     39  H   UNL A   1      28.319  31.001  24.361  1.00  0.00     0.074 H 
ENDBRANCH  17  23
ENDBRANCH  14  17
ENDBRANCH  10  13
ENDBRANCH   7  10
ENDBRANCH   4   7
ENDBRANCH   1   4
BRANCH   1  40
ATOM     40  C   UNL A   1      31.772  29.053  26.564  1.00  0.00    -0.036 C 
ATOM     41  H   UNL A   1      31.452  29.452  27.504  1.00  0.00     0.028 H 
ATOM     42  H   UNL A   1      30.994  28.932  25.841  1.00  0.00     0.028 H 
BRANCH  40  43
ATOM     43  C   UNL A   1      32.745  30.055  25.943  1.00  0.00     0.018 C 
ATOM     44  H   UNL A   1      32.598  30.057  24.882  1.00  0.00     0.049 H 
ATOM     45  H   UNL A   1      33.732  29.745  26.216  1.00  0.00     0.049 H 
BRANCH  43  46
ATOM     46  N   UNL A   1      32.575  31.413  26.432  1.00  0.00    -0.352 N 
ATOM     47  C   UNL A   1      33.307  32.139  27.337  1.00  0.00     0.251 C 
ATOM     48  H   UNL A   1      31.804  31.892  26.049  1.00  0.00     0.163 HD
ATOM     49  O   UNL A   1      32.908  33.260  27.667  1.00  0.00    -0.269 OA
BRANCH  47  50
ATOM     50  C   UNL A   1      34.544  31.607  27.957  1.00  0.00     0.039 A 
ATOM     51  C   UNL A   1      35.637  32.470  28.095  1.00  0.00    -0.049 A 
ATOM     52  C   UNL A   1      34.670  30.276  28.363  1.00  0.00    -0.049 A 
ATOM     53  C   UNL A   1      36.821  32.021  28.688  1.00  0.00    -0.053 A 
ATOM     54  H   UNL A   1      35.570  33.442  27.756  1.00  0.00     0.063 H 
ATOM     55  C   UNL A   1      35.828  29.846  29.019  1.00  0.00    -0.053 A 
ATOM     56  H   UNL A   1      33.906  29.607  28.178  1.00  0.00     0.063 H 
ATOM     57  C   UNL A   1      36.917  30.714  29.192  1.00  0.00    -0.014 A 
ATOM     58  H   UNL A   1      37.632  32.656  28.756  1.00  0.00     0.063 H 
ATOM     59  H   UNL A   1      35.883  28.880  29.381  1.00  0.00     0.063 H 
BRANCH  57  60
ATOM     60  C   UNL A   1      38.141  30.271  29.915  1.00  0.00     0.031 A 
ATOM     61  C   UNL A   1      38.435  30.753  31.310  1.00  0.00     0.074 A 
ATOM     62  C   UNL A   1      39.009  29.444  29.299  1.00  0.00     0.049 A 
ATOM     63  N   UNL A   1      39.452  30.467  32.088  1.00  0.00    -0.248 NA
ATOM     64  C   UNL A   1      37.476  31.695  31.905  1.00  0.00    -0.034 C 
ATOM     65  C   UNL A   1      38.873  28.949  27.928  1.00  0.00    -0.036 A 
ATOM     66  N   UNL A   1      40.179  28.877  29.741  1.00  0.00    -0.354 N 
ATOM     67  C   UNL A   1      39.249  31.184  33.260  1.00  0.00     0.074 A 
ATOM     68  C   UNL A   1      38.048  31.969  33.070  1.00  0.00    -0.034 C 
ATOM     69  H   UNL A   1      36.587  32.049  31.519  1.00  0.00     0.065 H 
ATOM     70  C   UNL A   1      39.902  28.134  27.651  1.00  0.00    -0.036 A 
ATOM     71  H   UNL A   1      38.106  29.187  27.280  1.00  0.00     0.065 H 
ATOM     72  C   UNL A   1      40.789  28.073  28.809  1.00  0.00     0.049 A 
ATOM     73  H   UNL A   1      40.546  29.031  30.642  1.00  0.00     0.167 HD
ATOM     74  C   UNL A   1      39.979  31.168  34.403  1.00  0.00     0.037 A 
ATOM     75  H   UNL A   1      37.685  32.654  33.751  1.00  0.00     0.065 H 
ATOM     76  H   UNL A   1      40.043  27.630  26.760  1.00  0.00     0.065 H 
ATOM     77  C   UNL A   1      41.934  27.367  28.875  1.00  0.00     0.037 A 
ATOM     78  C   UNL A   1      41.172  30.383  34.598  1.00  0.00     0.049 A 
ATOM     79  C   UNL A   1      42.729  27.371  30.153  1.00  0.00     0.074 A 
ATOM     80  C   UNL A   1      41.963  30.280  35.730  1.00  0.00    -0.036 A 
ATOM     81  N   UNL A   1      41.748  29.567  33.635  1.00  0.00    -0.354 N 
ATOM     82  N   UNL A   1      42.487  28.003  31.276  1.00  0.00    -0.248 NA
ATOM     83  C   UNL A   1      43.947  26.551  30.178  1.00  0.00    -0.034 C 
ATOM     84  C   UNL A   1      43.041  29.436  35.438  1.00  0.00    -0.036 A 
ATOM     85  H   UNL A   1      41.789  30.746  36.634  1.00  0.00     0.065 H 
ATOM     86  C   UNL A   1      42.893  28.970  34.142  1.00  0.00     0.049 A 
ATOM     87  H   UNL A   1      41.397  29.432  32.726  1.00  0.00     0.167 HD
ATOM     88  C   UNL A   1      43.507  27.641  32.145  1.00  0.00     0.074 A 
ATOM     89  C   UNL A   1      44.354  26.710  31.428  1.00  0.00    -0.034 C 
ATOM     90  H   UNL A   1      44.374  25.996  29.419  1.00  0.00     0.065 H 
ATOM     91  H   UNL A   1      43.814  29.200  36.079  1.00  0.00     0.065 H 
ATOM     92  C   UNL A   1      43.728  28.046  33.419  1.00  0.00     0.037 A 
ATOM     93  H   UNL A   1      45.170  26.231  31.840  1.00  0.00     0.065 H 
BRANCH  74  94
ATOM     94  C   UNL A   1      39.497  32.012  35.548  1.00  0.00     0.064 A 
ATOM     95  C   UNL A   1      39.903  33.347  35.692  1.00  0.00     0.173 A 
ATOM     96  C   UNL A   1      38.577  31.504  36.479  1.00  0.00     0.173 A 
ATOM     97  F   UNL A   1      40.787  33.880  34.835  1.00  0.00    -0.203 F 
ATOM     98  C   UNL A   1      39.426  34.135  36.737  1.00  0.00     0.198 A 
ATOM     99  C   UNL A   1      38.079  32.304  37.505  1.00  0.00     0.198 A 
ATOM    100  F   UNL A   1      38.150  30.236  36.385  1.00  0.00    -0.203 F 
ATOM    101  F   UNL A   1      39.863  35.395  36.878  1.00  0.00    -0.200 F 
ATOM    102  C   UNL A   1      38.509  33.616  37.638  1.00  0.00     0.200 A 
ATOM    103  F   UNL A   1      37.181  31.805  38.366  1.00  0.00    -0.200 F 
ATOM    104  F   UNL A   1      38.042  34.378  38.636  1.00  0.00    -0.200 F 
ENDBRANCH  74  94
BRANCH  77 105
ATOM    105  C   UNL A   1      42.397  26.585  27.697  1.00  0.00     0.064 A 
ATOM    106  C   UNL A   1      41.938  25.280  27.465  1.00  0.00     0.173 A 
ATOM    107  C   UNL A   1      43.327  27.118  26.791  1.00  0.00     0.173 A 
ATOM    108  F   UNL A   1      41.063  24.718  28.314  1.00  0.00    -0.203 F 
ATOM    109  C   UNL A   1      42.415  24.529  26.393  1.00  0.00     0.198 A 
ATOM    110  C   UNL A   1      43.776  26.378  25.701  1.00  0.00     0.198 A 
ATOM    111  F   UNL A   1      43.792  28.364  26.963  1.00  0.00    -0.203 F 
ATOM    112  F   UNL A   1      42.003  23.263  26.230  1.00  0.00    -0.200 F 
ATOM    113  C   UNL A   1      43.329  25.080  25.509  1.00  0.00     0.200 A 
ATOM    114  F   UNL A   1      44.647  26.920  24.840  1.00  0.00    -0.200 F 
ATOM    115  F   UNL A   1      43.787  24.356  24.478  1.00  0.00    -0.200 F 
ENDBRANCH  77 105
BRANCH  92 116
ATOM    116  C   UNL A   1      44.918  27.463  34.128  1.00  0.00     0.064 A 
ATOM    117  C   UNL A   1      46.170  28.097  34.108  1.00  0.00     0.173 A 
ATOM    118  C   UNL A   1      44.803  26.261  34.844  1.00  0.00     0.173 A 
ATOM    119  F   UNL A   1      46.338  29.239  33.426  1.00  0.00    -0.203 F 
ATOM    120  C   UNL A   1      47.271  27.529  34.744  1.00  0.00     0.198 A 
ATOM    121  C   UNL A   1      45.897  25.714  35.507  1.00  0.00     0.198 A 
ATOM    122  F   UNL A   1      43.628  25.618  34.902  1.00  0.00    -0.203 F 
ATOM    123  F   UNL A   1      48.470  28.120  34.658  1.00  0.00    -0.200 F 
ATOM    124  C   UNL A   1      47.133  26.341  35.448  1.00  0.00     0.200 A 
ATOM    125  F   UNL A   1      45.759  24.575  36.198  1.00  0.00    -0.200 F 
ATOM    126  F   UNL A   1      48.193  25.796  36.059  1.00  0.00    -0.200 F 
ENDBRANCH  92 116
ENDBRANCH  57  60
ENDBRANCH  47  50
ENDBRANCH  43  46
ENDBRANCH  40  43
ENDBRANCH   1  40
TORSDOF 15
ENDMDL
MODEL 6
REMARK VINA RESULT:     -11.9      0.815      7.514
REMARK SMILES C[C@H](C(=O)NCCCCCCNC(=O)c1ccc(-c2c3nc(c(-c4c(F)c(F)c(F)c(F)c4F)c4ccc([nH]4)c(-c4c(F)c(F)c(F)c(F)c4F)c4nc(c(-c5c(F)c(F)c(F)c(F)c5F)c5ccc2[nH]5)C=C4)C=C3)cc1)c1ccc2c(c1)OCCO2
REMARK SMILES IDX 9 1 8 4 7 7 6 10 5 13 3 14 4 15 2 17 1 19 78 23 79 24 83 25
REMARK SMILES IDX 80 26 82 28 81 30 84 32 87 33 85 34 86 35 10 40 11 43 12 46
REMARK SMILES IDX 13 47 14 49 15 50 16 51 77 52 17 53 76 55 18 57 19 60 20 61
REMARK SMILES IDX 70 62 21 63 75 64 69 65 71 66 22 67 74 68 68 70 67 72 23 74
REMARK SMILES IDX 55 77 35 78 54 79 36 80 39 81 53 82 72 83 37 84 38 86 52 88
REMARK SMILES IDX 73 89 40 92 24 94 25 95 33 96 26 97 27 98 31 99 34 100
REMARK SMILES IDX 28 101 29 102 32 103 30 104 56 105 57 106 65 107 58 108
REMARK SMILES IDX 59 109 63 110 66 111 60 112 61 113 64 114 62 115 41 116
REMARK SMILES IDX 42 117 50 118 43 119 44 120 48 121 51 122 45 123 46 124
REMARK SMILES IDX 49 125 47 126
REMARK H PARENT 9 2 9 3 8 5 8 6 7 8 7 9 6 11 6 12 5 16 2 18 1 20 1 21 1 22
REMARK H PARENT 79 27 83 29 80 31 85 36 85 37 86 38 86 39 10 41 10 42 11 44
REMARK H PARENT 11 45 12 48 16 54 77 56 17 58 76 59 75 69 69 71 71 73 74 75
REMARK H PARENT 68 76 36 85 39 87 72 90 37 91 73 93
REMARK Flexibility Score: inf
ROOT
ATOM      1  C   UNL A   1      31.537  30.746  26.715  1.00  0.00    -0.052 C 
ATOM      2  H   UNL A   1      32.488  30.497  27.138  1.00  0.00     0.027 H 
ATOM      3  H   UNL A   1      30.694  30.384  27.264  1.00  0.00     0.027 H 
ENDROOT
BRANCH   1   4
ATOM      4  C   UNL A   1      31.447  30.065  25.346  1.00  0.00    -0.052 C 
ATOM      5  H   UNL A   1      30.619  29.388  25.375  1.00  0.00     0.027 H 
ATOM      6  H   UNL A   1      31.349  30.865  24.641  1.00  0.00     0.027 H 
BRANCH   4   7
ATOM      7  C   UNL A   1      32.675  29.274  24.884  1.00  0.00    -0.036 C 
ATOM      8  H   UNL A   1      32.538  29.035  23.850  1.00  0.00     0.028 H 
ATOM      9  H   UNL A   1      33.512  29.908  25.087  1.00  0.00     0.028 H 
BRANCH   7  10
ATOM     10  C   UNL A   1      32.968  27.971  25.626  1.00  0.00     0.017 C 
ATOM     11  H   UNL A   1      33.435  27.297  24.939  1.00  0.00     0.049 H 
ATOM     12  H   UNL A   1      33.591  28.233  26.455  1.00  0.00     0.049 H 
BRANCH  10  13
ATOM     13  N   UNL A   1      31.803  27.306  26.186  1.00  0.00    -0.356 N 
ATOM     14  C   UNL A   1      30.937  26.403  25.629  1.00  0.00     0.227 C 
ATOM     15  O   UNL A   1      30.203  25.791  26.415  1.00  0.00    -0.274 OA
ATOM     16  H   UNL A   1      31.604  27.544  27.121  1.00  0.00     0.163 HD
BRANCH  14  17
ATOM     17  C   UNL A   1      30.755  26.209  24.106  1.00  0.00     0.060 C 
ATOM     18  H   UNL A   1      31.610  26.597  23.591  1.00  0.00     0.045 H 
BRANCH  17  19
ATOM     19  C   UNL A   1      30.623  24.695  23.884  1.00  0.00    -0.049 C 
ATOM     20  H   UNL A   1      31.524  24.209  24.195  1.00  0.00     0.024 H 
ATOM     21  H   UNL A   1      30.452  24.500  22.846  1.00  0.00     0.024 H 
ATOM     22  H   UNL A   1      29.800  24.321  24.458  1.00  0.00     0.024 H 
ENDBRANCH  17  19
BRANCH  17  23
ATOM     23  C   UNL A   1      29.654  27.044  23.460  1.00  0.00    -0.032 A 
ATOM     24  C   UNL A   1      28.298  26.890  23.810  1.00  0.00    -0.054 A 
ATOM     25  C   UNL A   1      30.005  28.094  22.600  1.00  0.00    -0.012 A 
ATOM     26  C   UNL A   1      27.378  27.902  23.543  1.00  0.00    -0.016 A 
ATOM     27  H   UNL A   1      27.984  26.020  24.270  1.00  0.00     0.063 H 
ATOM     28  C   UNL A   1      29.130  29.163  22.455  1.00  0.00     0.161 A 
ATOM     29  H   UNL A   1      30.898  28.074  22.084  1.00  0.00     0.067 H 
ATOM     30  C   UNL A   1      27.836  29.079  22.971  1.00  0.00     0.161 A 
ATOM     31  H   UNL A   1      26.377  27.779  23.765  1.00  0.00     0.066 H 
ATOM     32  O   UNL A   1      29.675  30.326  21.981  1.00  0.00    -0.486 OA
ATOM     33  O   UNL A   1      27.046  30.196  23.083  1.00  0.00    -0.486 OA
ATOM     34  C   UNL A   1      28.961  31.502  22.386  1.00  0.00     0.122 C 
ATOM     35  C   UNL A   1      27.921  31.263  23.473  1.00  0.00     0.122 C 
ATOM     36  H   UNL A   1      28.463  31.903  21.527  1.00  0.00     0.074 H 
ATOM     37  H   UNL A   1      29.685  32.174  22.796  1.00  0.00     0.074 H 
ATOM     38  H   UNL A   1      27.349  32.154  23.622  1.00  0.00     0.074 H 
ATOM     39  H   UNL A   1      28.417  30.997  24.384  1.00  0.00     0.074 H 
ENDBRANCH  17  23
ENDBRANCH  14  17
ENDBRANCH  10  13
ENDBRANCH   7  10
ENDBRANCH   4   7
ENDBRANCH   1   4
BRANCH   1  40
ATOM     40  C   UNL A   1      31.405  32.272  26.734  1.00  0.00    -0.036 C 
ATOM     41  H   UNL A   1      30.665  32.524  27.465  1.00  0.00     0.028 H 
ATOM     42  H   UNL A   1      31.154  32.545  25.730  1.00  0.00     0.028 H 
BRANCH  40  43
ATOM     43  C   UNL A   1      32.669  33.066  27.062  1.00  0.00     0.018 C 
ATOM     44  H   UNL A   1      33.217  33.220  26.155  1.00  0.00     0.049 H 
ATOM     45  H   UNL A   1      33.222  32.495  27.778  1.00  0.00     0.049 H 
BRANCH  43  46
ATOM     46  N   UNL A   1      32.405  34.362  27.664  1.00  0.00    -0.352 N 
ATOM     47  C   UNL A   1      33.010  35.003  28.714  1.00  0.00     0.251 C 
ATOM     48  H   UNL A   1      31.666  34.863  27.249  1.00  0.00     0.163 HD
ATOM     49  O   UNL A   1      32.542  36.076  29.110  1.00  0.00    -0.269 OA
BRANCH  47  50
ATOM     50  C   UNL A   1      34.188  34.434  29.412  1.00  0.00     0.039 A 
ATOM     51  C   UNL A   1      33.980  33.774  30.629  1.00  0.00    -0.049 A 
ATOM     52  C   UNL A   1      35.491  34.573  28.926  1.00  0.00    -0.049 A 
ATOM     53  C   UNL A   1      35.056  33.206  31.317  1.00  0.00    -0.053 A 
ATOM     54  H   UNL A   1      33.027  33.707  31.020  1.00  0.00     0.063 H 
ATOM     55  C   UNL A   1      36.557  33.946  29.578  1.00  0.00    -0.053 A 
ATOM     56  H   UNL A   1      35.667  35.141  28.082  1.00  0.00     0.063 H 
ATOM     57  C   UNL A   1      36.353  33.253  30.780  1.00  0.00    -0.014 A 
ATOM     58  H   UNL A   1      34.896  32.750  32.229  1.00  0.00     0.063 H 
ATOM     59  H   UNL A   1      37.505  33.993  29.170  1.00  0.00     0.063 H 
BRANCH  57  60
ATOM     60  C   UNL A   1      37.478  32.558  31.464  1.00  0.00     0.031 A 
ATOM     61  C   UNL A   1      38.188  31.402  30.813  1.00  0.00     0.074 A 
ATOM     62  C   UNL A   1      37.850  32.960  32.696  1.00  0.00     0.049 A 
ATOM     63  N   UNL A   1      39.189  30.685  31.264  1.00  0.00    -0.248 NA
ATOM     64  C   UNL A   1      37.699  30.980  29.492  1.00  0.00    -0.034 C 
ATOM     65  C   UNL A   1      37.210  34.029  33.464  1.00  0.00    -0.036 A 
ATOM     66  N   UNL A   1      38.854  32.515  33.522  1.00  0.00    -0.354 N 
ATOM     67  C   UNL A   1      39.452  29.738  30.282  1.00  0.00     0.074 A 
ATOM     68  C   UNL A   1      38.465  29.928  29.240  1.00  0.00    -0.034 C 
ATOM     69  H   UNL A   1      36.954  31.395  28.911  1.00  0.00     0.065 H 
ATOM     70  C   UNL A   1      37.850  34.174  34.634  1.00  0.00    -0.036 A 
ATOM     71  H   UNL A   1      36.397  34.584  33.153  1.00  0.00     0.065 H 
ATOM     72  C   UNL A   1      38.923  33.189  34.718  1.00  0.00     0.049 A 
ATOM     73  H   UNL A   1      39.466  31.782  33.281  1.00  0.00     0.167 HD
ATOM     74  C   UNL A   1      40.443  28.814  30.237  1.00  0.00     0.037 A 
ATOM     75  H   UNL A   1      38.370  29.323  28.409  1.00  0.00     0.065 H 
ATOM     76  H   UNL A   1      37.619  34.872  35.360  1.00  0.00     0.065 H 
ATOM     77  C   UNL A   1      39.756  33.033  35.764  1.00  0.00     0.037 A 
ATOM     78  C   UNL A   1      41.430  28.625  31.271  1.00  0.00     0.049 A 
ATOM     79  C   UNL A   1      40.844  31.996  35.692  1.00  0.00     0.074 A 
ATOM     80  C   UNL A   1      42.489  27.734  31.302  1.00  0.00    -0.036 A 
ATOM     81  N   UNL A   1      41.478  29.340  32.458  1.00  0.00    -0.354 N 
ATOM     82  N   UNL A   1      41.120  31.152  34.727  1.00  0.00    -0.248 NA
ATOM     83  C   UNL A   1      41.745  31.899  36.848  1.00  0.00    -0.034 C 
ATOM     84  C   UNL A   1      43.152  27.880  32.525  1.00  0.00    -0.036 A 
ATOM     85  H   UNL A   1      42.746  27.074  30.551  1.00  0.00     0.065 H 
ATOM     86  C   UNL A   1      42.540  28.899  33.235  1.00  0.00     0.049 A 
ATOM     87  H   UNL A   1      40.851  30.055  32.712  1.00  0.00     0.167 HD
ATOM     88  C   UNL A   1      42.237  30.443  35.148  1.00  0.00     0.074 A 
ATOM     89  C   UNL A   1      42.604  30.975  36.444  1.00  0.00    -0.034 C 
ATOM     90  H   UNL A   1      41.717  32.416  37.741  1.00  0.00     0.065 H 
ATOM     91  H   UNL A   1      43.960  27.323  32.845  1.00  0.00     0.065 H 
ATOM     92  C   UNL A   1      42.895  29.437  34.523  1.00  0.00     0.037 A 
ATOM     93  H   UNL A   1      43.431  30.674  36.983  1.00  0.00     0.065 H 
BRANCH  74  94
ATOM     94  C   UNL A   1      40.526  27.941  29.017  1.00  0.00     0.064 A 
ATOM     95  C   UNL A   1      39.782  26.756  28.915  1.00  0.00     0.173 A 
ATOM     96  C   UNL A   1      41.310  28.318  27.916  1.00  0.00     0.173 A 
ATOM     97  F   UNL A   1      39.023  26.345  29.943  1.00  0.00    -0.203 F 
ATOM     98  C   UNL A   1      39.838  25.968  27.768  1.00  0.00     0.198 A 
ATOM     99  C   UNL A   1      41.340  27.544  26.758  1.00  0.00     0.198 A 
ATOM    100  F   UNL A   1      42.037  29.445  27.956  1.00  0.00    -0.203 F 
ATOM    101  F   UNL A   1      39.151  24.819  27.712  1.00  0.00    -0.200 F 
ATOM    102  C   UNL A   1      40.610  26.367  26.687  1.00  0.00     0.200 A 
ATOM    103  F   UNL A   1      42.075  27.938  25.709  1.00  0.00    -0.200 F 
ATOM    104  F   UNL A   1      40.653  25.615  25.579  1.00  0.00    -0.200 F 
ENDBRANCH  74  94
BRANCH  77 105
ATOM    105  C   UNL A   1      39.603  33.888  36.972  1.00  0.00     0.064 A 
ATOM    106  C   UNL A   1      38.850  33.459  38.075  1.00  0.00     0.173 A 
ATOM    107  C   UNL A   1      40.188  35.161  37.040  1.00  0.00     0.173 A 
ATOM    108  F   UNL A   1      38.254  32.257  38.052  1.00  0.00    -0.203 F 
ATOM    109  C   UNL A   1      38.662  34.283  39.183  1.00  0.00     0.198 A 
ATOM    110  C   UNL A   1      40.027  35.970  38.163  1.00  0.00     0.198 A 
ATOM    111  F   UNL A   1      40.924  35.617  36.016  1.00  0.00    -0.203 F 
ATOM    112  F   UNL A   1      37.888  33.870  40.197  1.00  0.00    -0.200 F 
ATOM    113  C   UNL A   1      39.255  35.535  39.228  1.00  0.00     0.200 A 
ATOM    114  F   UNL A   1      40.616  37.172  38.208  1.00  0.00    -0.200 F 
ATOM    115  F   UNL A   1      39.073  36.326  40.294  1.00  0.00    -0.200 F 
ENDBRANCH  77 105
BRANCH  92 116
ATOM    116  C   UNL A   1      44.097  28.866  35.222  1.00  0.00     0.064 A 
ATOM    117  C   UNL A   1      45.389  29.362  34.989  1.00  0.00     0.173 A 
ATOM    118  C   UNL A   1      43.955  27.817  36.144  1.00  0.00     0.173 A 
ATOM    119  F   UNL A   1      45.582  30.354  34.106  1.00  0.00    -0.203 F 
ATOM    120  C   UNL A   1      46.497  28.804  35.621  1.00  0.00     0.198 A 
ATOM    121  C   UNL A   1      45.060  27.284  36.800  1.00  0.00     0.198 A 
ATOM    122  F   UNL A   1      42.742  27.311  36.409  1.00  0.00    -0.203 F 
ATOM    123  F   UNL A   1      47.726  29.252  35.335  1.00  0.00    -0.200 F 
ATOM    124  C   UNL A   1      46.331  27.769  36.530  1.00  0.00     0.200 A 
ATOM    125  F   UNL A   1      44.897  26.294  37.688  1.00  0.00    -0.200 F 
ATOM    126  F   UNL A   1      47.398  27.232  37.137  1.00  0.00    -0.200 F 
ENDBRANCH  92 116
ENDBRANCH  57  60
ENDBRANCH  47  50
ENDBRANCH  43  46
ENDBRANCH  40  43
ENDBRANCH   1  40
TORSDOF 15
ENDMDL
MODEL 7
REMARK VINA RESULT:     -11.9      5.976     11.470
REMARK SMILES C[C@H](C(=O)NCCCCCCNC(=O)c1ccc(-c2c3nc(c(-c4c(F)c(F)c(F)c(F)c4F)c4ccc([nH]4)c(-c4c(F)c(F)c(F)c(F)c4F)c4nc(c(-c5c(F)c(F)c(F)c(F)c5F)c5ccc2[nH]5)C=C4)C=C3)cc1)c1ccc2c(c1)OCCO2
REMARK SMILES IDX 9 1 8 4 7 7 6 10 5 13 3 14 4 15 2 17 1 19 78 23 79 24 83 25
REMARK SMILES IDX 80 26 82 28 81 30 84 32 87 33 85 34 86 35 10 40 11 43 12 46
REMARK SMILES IDX 13 47 14 49 15 50 16 51 77 52 17 53 76 55 18 57 19 60 20 61
REMARK SMILES IDX 70 62 21 63 75 64 69 65 71 66 22 67 74 68 68 70 67 72 23 74
REMARK SMILES IDX 55 77 35 78 54 79 36 80 39 81 53 82 72 83 37 84 38 86 52 88
REMARK SMILES IDX 73 89 40 92 24 94 25 95 33 96 26 97 27 98 31 99 34 100
REMARK SMILES IDX 28 101 29 102 32 103 30 104 56 105 57 106 65 107 58 108
REMARK SMILES IDX 59 109 63 110 66 111 60 112 61 113 64 114 62 115 41 116
REMARK SMILES IDX 42 117 50 118 43 119 44 120 48 121 51 122 45 123 46 124
REMARK SMILES IDX 49 125 47 126
REMARK H PARENT 9 2 9 3 8 5 8 6 7 8 7 9 6 11 6 12 5 16 2 18 1 20 1 21 1 22
REMARK H PARENT 79 27 83 29 80 31 85 36 85 37 86 38 86 39 10 41 10 42 11 44
REMARK H PARENT 11 45 12 48 16 54 77 56 17 58 76 59 75 69 69 71 71 73 74 75
REMARK H PARENT 68 76 36 85 39 87 72 90 37 91 73 93
REMARK Flexibility Score: inf
ROOT
ATOM      1  C   UNL A   1      36.616  20.525  24.735  1.00  0.00    -0.052 C 
ATOM      2  H   UNL A   1      35.978  20.083  23.998  1.00  0.00     0.027 H 
ATOM      3  H   UNL A   1      36.161  20.667  25.693  1.00  0.00     0.027 H 
ENDROOT
BRANCH   1   4
ATOM      4  C   UNL A   1      36.979  21.932  24.250  1.00  0.00    -0.052 C 
ATOM      5  H   UNL A   1      37.325  22.487  25.097  1.00  0.00     0.027 H 
ATOM      6  H   UNL A   1      37.710  21.782  23.482  1.00  0.00     0.027 H 
BRANCH   4   7
ATOM      7  C   UNL A   1      35.864  22.746  23.588  1.00  0.00    -0.036 C 
ATOM      8  H   UNL A   1      36.216  23.061  22.629  1.00  0.00     0.028 H 
ATOM      9  H   UNL A   1      35.017  22.091  23.558  1.00  0.00     0.028 H 
BRANCH   7  10
ATOM     10  C   UNL A   1      35.385  23.987  24.338  1.00  0.00     0.017 C 
ATOM     11  H   UNL A   1      35.904  24.030  25.273  1.00  0.00     0.049 H 
ATOM     12  H   UNL A   1      35.591  24.820  23.699  1.00  0.00     0.049 H 
BRANCH  10  13
ATOM     13  N   UNL A   1      33.958  24.028  24.613  1.00  0.00    -0.356 N 
ATOM     14  C   UNL A   1      33.183  23.240  25.421  1.00  0.00     0.227 C 
ATOM     15  O   UNL A   1      32.053  23.670  25.684  1.00  0.00    -0.274 OA
ATOM     16  H   UNL A   1      33.469  24.741  24.141  1.00  0.00     0.163 HD
BRANCH  14  17
ATOM     17  C   UNL A   1      33.594  21.829  25.902  1.00  0.00     0.060 C 
ATOM     18  H   UNL A   1      34.626  21.660  25.672  1.00  0.00     0.045 H 
BRANCH  17  19
ATOM     19  C   UNL A   1      33.362  21.815  27.420  1.00  0.00    -0.049 C 
ATOM     20  H   UNL A   1      32.391  21.418  27.629  1.00  0.00     0.024 H 
ATOM     21  H   UNL A   1      33.429  22.813  27.801  1.00  0.00     0.024 H 
ATOM     22  H   UNL A   1      34.106  21.204  27.889  1.00  0.00     0.024 H 
ENDBRANCH  17  19
BRANCH  17  23
ATOM     23  C   UNL A   1      32.959  20.663  25.152  1.00  0.00    -0.032 A 
ATOM     24  C   UNL A   1      32.559  20.771  23.806  1.00  0.00    -0.054 A 
ATOM     25  C   UNL A   1      32.901  19.404  25.766  1.00  0.00    -0.012 A 
ATOM     26  C   UNL A   1      32.379  19.629  23.027  1.00  0.00    -0.016 A 
ATOM     27  H   UNL A   1      32.400  21.703  23.393  1.00  0.00     0.063 H 
ATOM     28  C   UNL A   1      32.861  18.269  24.966  1.00  0.00     0.161 A 
ATOM     29  H   UNL A   1      32.889  19.322  26.795  1.00  0.00     0.067 H 
ATOM     30  C   UNL A   1      32.648  18.392  23.592  1.00  0.00     0.161 A 
ATOM     31  H   UNL A   1      32.051  19.702  22.050  1.00  0.00     0.066 H 
ATOM     32  O   UNL A   1      33.239  17.098  25.566  1.00  0.00    -0.486 OA
ATOM     33  O   UNL A   1      32.868  17.335  22.746  1.00  0.00    -0.486 OA
ATOM     34  C   UNL A   1      33.747  16.121  24.647  1.00  0.00     0.122 C 
ATOM     35  C   UNL A   1      34.028  16.658  23.249  1.00  0.00     0.122 C 
ATOM     36  H   UNL A   1      33.027  15.333  24.565  1.00  0.00     0.074 H 
ATOM     37  H   UNL A   1      34.684  15.787  25.041  1.00  0.00     0.074 H 
ATOM     38  H   UNL A   1      34.275  15.847  22.598  1.00  0.00     0.074 H 
ATOM     39  H   UNL A   1      34.846  17.347  23.293  1.00  0.00     0.074 H 
ENDBRANCH  17  23
ENDBRANCH  14  17
ENDBRANCH  10  13
ENDBRANCH   7  10
ENDBRANCH   4   7
ENDBRANCH   1   4
BRANCH   1  40
ATOM     40  C   UNL A   1      37.779  19.560  24.982  1.00  0.00    -0.036 C 
ATOM     41  H   UNL A   1      38.132  19.226  24.028  1.00  0.00     0.028 H 
ATOM     42  H   UNL A   1      37.378  18.789  25.605  1.00  0.00     0.028 H 
BRANCH  40  43
ATOM     43  C   UNL A   1      38.979  20.114  25.751  1.00  0.00     0.018 C 
ATOM     44  H   UNL A   1      38.668  20.330  26.752  1.00  0.00     0.049 H 
ATOM     45  H   UNL A   1      39.309  20.988  25.230  1.00  0.00     0.049 H 
BRANCH  43  46
ATOM     46  N   UNL A   1      40.107  19.200  25.808  1.00  0.00    -0.352 N 
ATOM     47  C   UNL A   1      41.434  19.429  26.070  1.00  0.00     0.251 C 
ATOM     48  H   UNL A   1      39.882  18.259  25.628  1.00  0.00     0.163 HD
ATOM     49  O   UNL A   1      42.234  18.493  25.969  1.00  0.00    -0.269 OA
BRANCH  47  50
ATOM     50  C   UNL A   1      41.945  20.772  26.437  1.00  0.00     0.039 A 
ATOM     51  C   UNL A   1      42.141  21.706  25.413  1.00  0.00    -0.049 A 
ATOM     52  C   UNL A   1      42.279  21.117  27.749  1.00  0.00    -0.049 A 
ATOM     53  C   UNL A   1      42.605  22.991  25.710  1.00  0.00    -0.053 A 
ATOM     54  H   UNL A   1      41.941  21.445  24.435  1.00  0.00     0.063 H 
ATOM     55  C   UNL A   1      42.677  22.422  28.055  1.00  0.00    -0.053 A 
ATOM     56  H   UNL A   1      42.232  20.406  28.496  1.00  0.00     0.063 H 
ATOM     57  C   UNL A   1      42.843  23.376  27.040  1.00  0.00    -0.014 A 
ATOM     58  H   UNL A   1      42.777  23.662  24.944  1.00  0.00     0.063 H 
ATOM     59  H   UNL A   1      42.850  22.688  29.038  1.00  0.00     0.063 H 
BRANCH  57  60
ATOM     60  C   UNL A   1      43.238  24.775  27.361  1.00  0.00     0.031 A 
ATOM     61  C   UNL A   1      44.640  25.262  27.111  1.00  0.00     0.074 A 
ATOM     62  C   UNL A   1      42.330  25.610  27.906  1.00  0.00     0.049 A 
ATOM     63  N   UNL A   1      45.156  26.449  27.328  1.00  0.00    -0.248 NA
ATOM     64  C   UNL A   1      45.595  24.288  26.565  1.00  0.00    -0.034 C 
ATOM     65  C   UNL A   1      40.954  25.248  28.252  1.00  0.00    -0.036 A 
ATOM     66  N   UNL A   1      42.426  26.931  28.267  1.00  0.00    -0.354 N 
ATOM     67  C   UNL A   1      46.486  26.363  26.939  1.00  0.00     0.074 A 
ATOM     68  C   UNL A   1      46.718  24.993  26.533  1.00  0.00    -0.034 C 
ATOM     69  H   UNL A   1      45.435  23.309  26.279  1.00  0.00     0.065 H 
ATOM     70  C   UNL A   1      40.329  26.326  28.751  1.00  0.00    -0.036 A 
ATOM     71  H   UNL A   1      40.533  24.314  28.129  1.00  0.00     0.065 H 
ATOM     72  C   UNL A   1      41.265  27.445  28.793  1.00  0.00     0.049 A 
ATOM     73  H   UNL A   1      43.249  27.461  28.161  1.00  0.00     0.167 HD
ATOM     74  C   UNL A   1      47.422  27.343  26.895  1.00  0.00     0.037 A 
ATOM     75  H   UNL A   1      47.637  24.615  26.256  1.00  0.00     0.065 H 
ATOM     76  H   UNL A   1      39.343  26.357  29.056  1.00  0.00     0.065 H 
ATOM     77  C   UNL A   1      40.983  28.677  29.257  1.00  0.00     0.037 A 
ATOM     78  C   UNL A   1      47.193  28.709  27.294  1.00  0.00     0.049 A 
ATOM     79  C   UNL A   1      42.043  29.745  29.202  1.00  0.00     0.074 A 
ATOM     80  C   UNL A   1      48.073  29.778  27.258  1.00  0.00    -0.036 A 
ATOM     81  N   UNL A   1      45.998  29.194  27.803  1.00  0.00    -0.354 N 
ATOM     82  N   UNL A   1      43.277  29.664  28.770  1.00  0.00    -0.248 NA
ATOM     83  C   UNL A   1      41.664  31.079  29.687  1.00  0.00    -0.034 C 
ATOM     84  C   UNL A   1      47.423  30.900  27.786  1.00  0.00    -0.036 A 
ATOM     85  H   UNL A   1      49.042  29.753  26.904  1.00  0.00     0.065 H 
ATOM     86  C   UNL A   1      46.122  30.544  28.100  1.00  0.00     0.049 A 
ATOM     87  H   UNL A   1      45.182  28.660  27.935  1.00  0.00     0.167 HD
ATOM     88  C   UNL A   1      43.814  30.937  28.908  1.00  0.00     0.074 A 
ATOM     89  C   UNL A   1      42.761  31.778  29.438  1.00  0.00    -0.034 C 
ATOM     90  H   UNL A   1      40.775  31.390  30.111  1.00  0.00     0.065 H 
ATOM     91  H   UNL A   1      47.841  31.834  27.918  1.00  0.00     0.065 H 
ATOM     92  C   UNL A   1      45.067  31.370  28.628  1.00  0.00     0.037 A 
ATOM     93  H   UNL A   1      42.854  32.793  29.600  1.00  0.00     0.065 H 
BRANCH  74  94
ATOM     94  C   UNL A   1      48.785  26.980  26.377  1.00  0.00     0.064 A 
ATOM     95  C   UNL A   1      49.774  26.459  27.225  1.00  0.00     0.173 A 
ATOM     96  C   UNL A   1      49.090  27.098  25.012  1.00  0.00     0.173 A 
ATOM     97  F   UNL A   1      49.537  26.333  28.540  1.00  0.00    -0.203 F 
ATOM     98  C   UNL A   1      51.024  26.093  26.733  1.00  0.00     0.198 A 
ATOM     99  C   UNL A   1      50.331  26.702  24.518  1.00  0.00     0.198 A 
ATOM    100  F   UNL A   1      48.180  27.584  24.155  1.00  0.00    -0.203 F 
ATOM    101  F   UNL A   1      51.966  25.638  27.571  1.00  0.00    -0.200 F 
ATOM    102  C   UNL A   1      51.299  26.207  25.378  1.00  0.00     0.200 A 
ATOM    103  F   UNL A   1      50.590  26.800  23.206  1.00  0.00    -0.200 F 
ATOM    104  F   UNL A   1      52.498  25.843  24.904  1.00  0.00    -0.200 F 
ENDBRANCH  74  94
BRANCH  77 105
ATOM    105  C   UNL A   1      39.634  28.976  29.807  1.00  0.00     0.064 A 
ATOM    106  C   UNL A   1      38.612  29.484  28.991  1.00  0.00     0.173 A 
ATOM    107  C   UNL A   1      39.344  28.783  31.166  1.00  0.00     0.173 A 
ATOM    108  F   UNL A   1      38.845  29.705  27.688  1.00  0.00    -0.203 F 
ATOM    109  C   UNL A   1      37.366  29.816  29.519  1.00  0.00     0.198 A 
ATOM    110  C   UNL A   1      38.087  29.083  31.686  1.00  0.00     0.198 A 
ATOM    111  F   UNL A   1      40.283  28.293  31.990  1.00  0.00    -0.203 F 
ATOM    112  F   UNL A   1      36.428  30.355  28.727  1.00  0.00    -0.200 F 
ATOM    113  C   UNL A   1      37.103  29.610  30.864  1.00  0.00     0.200 A 
ATOM    114  F   UNL A   1      37.832  28.867  32.983  1.00  0.00    -0.200 F 
ATOM    115  F   UNL A   1      35.904  29.930  31.371  1.00  0.00    -0.200 F 
ENDBRANCH  77 105
BRANCH  92 116
ATOM    116  C   UNL A   1      45.358  32.825  28.865  1.00  0.00     0.064 A 
ATOM    117  C   UNL A   1      45.124  33.794  27.876  1.00  0.00     0.173 A 
ATOM    118  C   UNL A   1      45.867  33.259  30.099  1.00  0.00     0.173 A 
ATOM    119  F   UNL A   1      44.652  33.430  26.674  1.00  0.00    -0.203 F 
ATOM    120  C   UNL A   1      45.426  35.134  28.099  1.00  0.00     0.198 A 
ATOM    121  C   UNL A   1      46.136  34.605  30.331  1.00  0.00     0.198 A 
ATOM    122  F   UNL A   1      46.102  32.377  31.081  1.00  0.00    -0.203 F 
ATOM    123  F   UNL A   1      45.254  36.030  27.119  1.00  0.00    -0.200 F 
ATOM    124  C   UNL A   1      45.927  35.540  29.328  1.00  0.00     0.200 A 
ATOM    125  F   UNL A   1      46.606  34.997  31.522  1.00  0.00    -0.200 F 
ATOM    126  F   UNL A   1      46.218  36.830  29.541  1.00  0.00    -0.200 F 
ENDBRANCH  92 116
ENDBRANCH  57  60
ENDBRANCH  47  50
ENDBRANCH  43  46
ENDBRANCH  40  43
ENDBRANCH   1  40
TORSDOF 15
ENDMDL
MODEL 8
REMARK VINA RESULT:     -11.8      6.014     11.476
REMARK SMILES C[C@H](C(=O)NCCCCCCNC(=O)c1ccc(-c2c3nc(c(-c4c(F)c(F)c(F)c(F)c4F)c4ccc([nH]4)c(-c4c(F)c(F)c(F)c(F)c4F)c4nc(c(-c5c(F)c(F)c(F)c(F)c5F)c5ccc2[nH]5)C=C4)C=C3)cc1)c1ccc2c(c1)OCCO2
REMARK SMILES IDX 9 1 8 4 7 7 6 10 5 13 3 14 4 15 2 17 1 19 78 23 79 24 83 25
REMARK SMILES IDX 80 26 82 28 81 30 84 32 87 33 85 34 86 35 10 40 11 43 12 46
REMARK SMILES IDX 13 47 14 49 15 50 16 51 77 52 17 53 76 55 18 57 19 60 20 61
REMARK SMILES IDX 70 62 21 63 75 64 69 65 71 66 22 67 74 68 68 70 67 72 23 74
REMARK SMILES IDX 55 77 35 78 54 79 36 80 39 81 53 82 72 83 37 84 38 86 52 88
REMARK SMILES IDX 73 89 40 92 24 94 25 95 33 96 26 97 27 98 31 99 34 100
REMARK SMILES IDX 28 101 29 102 32 103 30 104 56 105 57 106 65 107 58 108
REMARK SMILES IDX 59 109 63 110 66 111 60 112 61 113 64 114 62 115 41 116
REMARK SMILES IDX 42 117 50 118 43 119 44 120 48 121 51 122 45 123 46 124
REMARK SMILES IDX 49 125 47 126
REMARK H PARENT 9 2 9 3 8 5 8 6 7 8 7 9 6 11 6 12 5 16 2 18 1 20 1 21 1 22
REMARK H PARENT 79 27 83 29 80 31 85 36 85 37 86 38 86 39 10 41 10 42 11 44
REMARK H PARENT 11 45 12 48 16 54 77 56 17 58 76 59 75 69 69 71 71 73 74 75
REMARK H PARENT 68 76 36 85 39 87 72 90 37 91 73 93
REMARK Flexibility Score: inf
ROOT
ATOM      1  C   UNL A   1      36.690  20.470  24.749  1.00  0.00    -0.052 C 
ATOM      2  H   UNL A   1      36.209  20.168  23.842  1.00  0.00     0.027 H 
ATOM      3  H   UNL A   1      36.078  20.407  25.624  1.00  0.00     0.027 H 
ENDROOT
BRANCH   1   4
ATOM      4  C   UNL A   1      37.043  21.955  24.613  1.00  0.00    -0.052 C 
ATOM      5  H   UNL A   1      37.123  22.361  25.600  1.00  0.00     0.027 H 
ATOM      6  H   UNL A   1      37.950  21.976  24.044  1.00  0.00     0.027 H 
BRANCH   4   7
ATOM      7  C   UNL A   1      36.061  22.831  23.831  1.00  0.00    -0.036 C 
ATOM      8  H   UNL A   1      36.567  23.190  22.959  1.00  0.00     0.028 H 
ATOM      9  H   UNL A   1      35.220  22.201  23.629  1.00  0.00     0.028 H 
BRANCH   7  10
ATOM     10  C   UNL A   1      35.488  24.042  24.567  1.00  0.00     0.017 C 
ATOM     11  H   UNL A   1      35.912  24.063  25.548  1.00  0.00     0.049 H 
ATOM     12  H   UNL A   1      35.740  24.897  23.976  1.00  0.00     0.049 H 
BRANCH  10  13
ATOM     13  N   UNL A   1      34.040  24.052  24.700  1.00  0.00    -0.356 N 
ATOM     14  C   UNL A   1      33.206  23.235  25.416  1.00  0.00     0.227 C 
ATOM     15  O   UNL A   1      32.047  23.639  25.574  1.00  0.00    -0.274 OA
ATOM     16  H   UNL A   1      33.585  24.763  24.194  1.00  0.00     0.163 HD
BRANCH  14  17
ATOM     17  C   UNL A   1      33.596  21.824  25.913  1.00  0.00     0.060 C 
ATOM     18  H   UNL A   1      34.629  21.642  25.700  1.00  0.00     0.045 H 
BRANCH  17  19
ATOM     19  C   UNL A   1      33.342  21.823  27.428  1.00  0.00    -0.049 C 
ATOM     20  H   UNL A   1      34.275  21.897  27.946  1.00  0.00     0.024 H 
ATOM     21  H   UNL A   1      32.851  20.914  27.706  1.00  0.00     0.024 H 
ATOM     22  H   UNL A   1      32.723  22.657  27.686  1.00  0.00     0.024 H 
ENDBRANCH  17  19
BRANCH  17  23
ATOM     23  C   UNL A   1      32.960  20.658  25.162  1.00  0.00    -0.032 A 
ATOM     24  C   UNL A   1      32.559  20.768  23.816  1.00  0.00    -0.054 A 
ATOM     25  C   UNL A   1      32.903  19.398  25.774  1.00  0.00    -0.012 A 
ATOM     26  C   UNL A   1      32.378  19.627  23.036  1.00  0.00    -0.016 A 
ATOM     27  H   UNL A   1      32.399  21.701  23.405  1.00  0.00     0.063 H 
ATOM     28  C   UNL A   1      32.862  18.265  24.973  1.00  0.00     0.161 A 
ATOM     29  H   UNL A   1      32.892  19.315  26.803  1.00  0.00     0.067 H 
ATOM     30  C   UNL A   1      32.648  18.390  23.599  1.00  0.00     0.161 A 
ATOM     31  H   UNL A   1      32.049  19.702  22.060  1.00  0.00     0.066 H 
ATOM     32  O   UNL A   1      33.242  17.093  25.570  1.00  0.00    -0.486 OA
ATOM     33  O   UNL A   1      32.868  17.333  22.751  1.00  0.00    -0.486 OA
ATOM     34  C   UNL A   1      33.749  16.117  24.650  1.00  0.00     0.122 C 
ATOM     35  C   UNL A   1      34.028  16.657  23.252  1.00  0.00     0.122 C 
ATOM     36  H   UNL A   1      33.029  15.329  24.567  1.00  0.00     0.074 H 
ATOM     37  H   UNL A   1      34.686  15.783  25.042  1.00  0.00     0.074 H 
ATOM     38  H   UNL A   1      34.275  15.846  22.600  1.00  0.00     0.074 H 
ATOM     39  H   UNL A   1      34.846  17.346  23.296  1.00  0.00     0.074 H 
ENDBRANCH  17  23
ENDBRANCH  14  17
ENDBRANCH  10  13
ENDBRANCH   7  10
ENDBRANCH   4   7
ENDBRANCH   1   4
BRANCH   1  40
ATOM     40  C   UNL A   1      37.854  19.507  25.001  1.00  0.00    -0.036 C 
ATOM     41  H   UNL A   1      38.197  19.157  24.050  1.00  0.00     0.028 H 
ATOM     42  H   UNL A   1      37.455  18.747  25.640  1.00  0.00     0.028 H 
BRANCH  40  43
ATOM     43  C   UNL A   1      39.061  20.070  25.751  1.00  0.00     0.018 C 
ATOM     44  H   UNL A   1      38.761  20.294  26.754  1.00  0.00     0.049 H 
ATOM     45  H   UNL A   1      39.383  20.940  25.218  1.00  0.00     0.049 H 
BRANCH  43  46
ATOM     46  N   UNL A   1      40.192  19.159  25.802  1.00  0.00    -0.352 N 
ATOM     47  C   UNL A   1      41.519  19.391  26.060  1.00  0.00     0.251 C 
ATOM     48  H   UNL A   1      39.968  18.218  25.621  1.00  0.00     0.163 HD
ATOM     49  O   UNL A   1      42.321  18.458  25.955  1.00  0.00    -0.269 OA
BRANCH  47  50
ATOM     50  C   UNL A   1      42.028  20.734  26.429  1.00  0.00     0.039 A 
ATOM     51  C   UNL A   1      42.312  21.638  25.399  1.00  0.00    -0.049 A 
ATOM     52  C   UNL A   1      42.274  21.109  27.753  1.00  0.00    -0.049 A 
ATOM     53  C   UNL A   1      42.778  22.923  25.695  1.00  0.00    -0.053 A 
ATOM     54  H   UNL A   1      42.177  21.355  24.416  1.00  0.00     0.063 H 
ATOM     55  C   UNL A   1      42.674  22.415  28.053  1.00  0.00    -0.053 A 
ATOM     56  H   UNL A   1      42.161  20.418  28.512  1.00  0.00     0.063 H 
ATOM     57  C   UNL A   1      42.928  23.339  27.028  1.00  0.00    -0.014 A 
ATOM     58  H   UNL A   1      43.015  23.571  24.927  1.00  0.00     0.063 H 
ATOM     59  H   UNL A   1      42.782  22.703  29.038  1.00  0.00     0.063 H 
BRANCH  57  60
ATOM     60  C   UNL A   1      43.325  24.739  27.342  1.00  0.00     0.031 A 
ATOM     61  C   UNL A   1      44.730  25.220  27.096  1.00  0.00     0.074 A 
ATOM     62  C   UNL A   1      42.416  25.580  27.875  1.00  0.00     0.049 A 
ATOM     63  N   UNL A   1      45.248  26.407  27.308  1.00  0.00    -0.248 NA
ATOM     64  C   UNL A   1      45.686  24.239  26.564  1.00  0.00    -0.034 C 
ATOM     65  C   UNL A   1      41.037  25.225  28.215  1.00  0.00    -0.036 A 
ATOM     66  N   UNL A   1      42.514  26.904  28.227  1.00  0.00    -0.354 N 
ATOM     67  C   UNL A   1      46.580  26.315  26.928  1.00  0.00     0.074 A 
ATOM     68  C   UNL A   1      46.810  24.941  26.534  1.00  0.00    -0.034 C 
ATOM     69  H   UNL A   1      45.525  23.259  26.284  1.00  0.00     0.065 H 
ATOM     70  C   UNL A   1      40.412  26.308  28.702  1.00  0.00    -0.036 A 
ATOM     71  H   UNL A   1      40.614  24.291  28.097  1.00  0.00     0.065 H 
ATOM     72  C   UNL A   1      41.351  27.425  28.741  1.00  0.00     0.049 A 
ATOM     73  H   UNL A   1      43.339  27.430  28.121  1.00  0.00     0.167 HD
ATOM     74  C   UNL A   1      47.520  27.291  26.882  1.00  0.00     0.037 A 
ATOM     75  H   UNL A   1      47.731  24.558  26.265  1.00  0.00     0.065 H 
ATOM     76  H   UNL A   1      39.424  26.344  29.001  1.00  0.00     0.065 H 
ATOM     77  C   UNL A   1      41.070  28.661  29.195  1.00  0.00     0.037 A 
ATOM     78  C   UNL A   1      47.292  28.661  27.269  1.00  0.00     0.049 A 
ATOM     79  C   UNL A   1      42.133  29.725  29.139  1.00  0.00     0.074 A 
ATOM     80  C   UNL A   1      48.175  29.728  27.231  1.00  0.00    -0.036 A 
ATOM     81  N   UNL A   1      46.096  29.153  27.768  1.00  0.00    -0.354 N 
ATOM     82  N   UNL A   1      43.370  29.638  28.714  1.00  0.00    -0.248 NA
ATOM     83  C   UNL A   1      41.755  31.064  29.611  1.00  0.00    -0.034 C 
ATOM     84  C   UNL A   1      47.525  30.855  27.746  1.00  0.00    -0.036 A 
ATOM     85  H   UNL A   1      49.146  29.697  26.883  1.00  0.00     0.065 H 
ATOM     86  C   UNL A   1      46.221  30.505  28.056  1.00  0.00     0.049 A 
ATOM     87  H   UNL A   1      45.277  28.622  27.899  1.00  0.00     0.167 HD
ATOM     88  C   UNL A   1      43.909  30.910  28.846  1.00  0.00     0.074 A 
ATOM     89  C   UNL A   1      42.855  31.758  29.363  1.00  0.00    -0.034 C 
ATOM     90  H   UNL A   1      40.865  31.381  30.027  1.00  0.00     0.065 H 
ATOM     91  H   UNL A   1      47.945  31.789  27.874  1.00  0.00     0.065 H 
ATOM     92  C   UNL A   1      45.165  31.338  28.571  1.00  0.00     0.037 A 
ATOM     93  H   UNL A   1      42.950  32.774  29.518  1.00  0.00     0.065 H 
BRANCH  74  94
ATOM     94  C   UNL A   1      48.885  26.921  26.375  1.00  0.00     0.064 A 
ATOM     95  C   UNL A   1      49.867  26.405  27.234  1.00  0.00     0.173 A 
ATOM     96  C   UNL A   1      49.198  27.026  25.011  1.00  0.00     0.173 A 
ATOM     97  F   UNL A   1      49.623  26.292  28.548  1.00  0.00    -0.203 F 
ATOM     98  C   UNL A   1      51.119  26.032  26.752  1.00  0.00     0.198 A 
ATOM     99  C   UNL A   1      50.440  26.623  24.528  1.00  0.00     0.198 A 
ATOM    100  F   UNL A   1      48.294  27.507  24.144  1.00  0.00    -0.203 F 
ATOM    101  F   UNL A   1      52.055  25.582  27.599  1.00  0.00    -0.200 F 
ATOM    102  C   UNL A   1      51.402  26.133  25.398  1.00  0.00     0.200 A 
ATOM    103  F   UNL A   1      50.707  26.708  23.217  1.00  0.00    -0.200 F 
ATOM    104  F   UNL A   1      52.603  25.763  24.934  1.00  0.00    -0.200 F 
ENDBRANCH  74  94
BRANCH  77 105
ATOM    105  C   UNL A   1      39.718  28.968  29.735  1.00  0.00     0.064 A 
ATOM    106  C   UNL A   1      39.407  28.746  31.084  1.00  0.00     0.173 A 
ATOM    107  C   UNL A   1      38.702  29.467  28.907  1.00  0.00     0.173 A 
ATOM    108  F   UNL A   1      40.339  28.251  31.913  1.00  0.00    -0.203 F 
ATOM    109  C   UNL A   1      38.125  28.982  31.576  1.00  0.00     0.198 A 
ATOM    110  C   UNL A   1      37.430  29.735  29.408  1.00  0.00     0.198 A 
ATOM    111  F   UNL A   1      38.948  29.704  27.610  1.00  0.00    -0.203 F 
ATOM    112  F   UNL A   1      37.840  28.705  32.857  1.00  0.00    -0.200 F 
ATOM    113  C   UNL A   1      37.139  29.480  30.739  1.00  0.00     0.200 A 
ATOM    114  F   UNL A   1      36.485  30.232  28.599  1.00  0.00    -0.200 F 
ATOM    115  F   UNL A   1      35.906  29.707  31.213  1.00  0.00    -0.200 F 
ENDBRANCH  77 105
BRANCH  92 116
ATOM    116  C   UNL A   1      45.459  32.794  28.799  1.00  0.00     0.064 A 
ATOM    117  C   UNL A   1      45.975  33.259  30.019  1.00  0.00     0.173 A 
ATOM    118  C   UNL A   1      45.232  33.735  27.782  1.00  0.00     0.173 A 
ATOM    119  F   UNL A   1      46.196  32.404  31.028  1.00  0.00    -0.203 F 
ATOM    120  C   UNL A   1      46.214  34.615  30.225  1.00  0.00     0.198 A 
ATOM    121  C   UNL A   1      45.505  35.085  27.980  1.00  0.00     0.198 A 
ATOM    122  F   UNL A   1      44.748  33.343  26.595  1.00  0.00    -0.203 F 
ATOM    123  F   UNL A   1      46.646  35.043  31.419  1.00  0.00    -0.200 F 
ATOM    124  C   UNL A   1      45.984  35.526  29.205  1.00  0.00     0.200 A 
ATOM    125  F   UNL A   1      45.296  35.962  26.990  1.00  0.00    -0.200 F 
ATOM    126  F   UNL A   1      46.214  36.831  29.405  1.00  0.00    -0.200 F 
ENDBRANCH  92 116
ENDBRANCH  57  60
ENDBRANCH  47  50
ENDBRANCH  43  46
ENDBRANCH  40  43
ENDBRANCH   1  40
TORSDOF 15
ENDMDL
MODEL 9
REMARK VINA RESULT:     -11.8      1.095      2.789
REMARK SMILES C[C@H](C(=O)NCCCCCCNC(=O)c1ccc(-c2c3nc(c(-c4c(F)c(F)c(F)c(F)c4F)c4ccc([nH]4)c(-c4c(F)c(F)c(F)c(F)c4F)c4nc(c(-c5c(F)c(F)c(F)c(F)c5F)c5ccc2[nH]5)C=C4)C=C3)cc1)c1ccc2c(c1)OCCO2
REMARK SMILES IDX 9 1 8 4 7 7 6 10 5 13 3 14 4 15 2 17 1 19 78 23 79 24 83 25
REMARK SMILES IDX 80 26 82 28 81 30 84 32 87 33 85 34 86 35 10 40 11 43 12 46
REMARK SMILES IDX 13 47 14 49 15 50 16 51 77 52 17 53 76 55 18 57 19 60 20 61
REMARK SMILES IDX 70 62 21 63 75 64 69 65 71 66 22 67 74 68 68 70 67 72 23 74
REMARK SMILES IDX 55 77 35 78 54 79 36 80 39 81 53 82 72 83 37 84 38 86 52 88
REMARK SMILES IDX 73 89 40 92 24 94 25 95 33 96 26 97 27 98 31 99 34 100
REMARK SMILES IDX 28 101 29 102 32 103 30 104 56 105 57 106 65 107 58 108
REMARK SMILES IDX 59 109 63 110 66 111 60 112 61 113 64 114 62 115 41 116
REMARK SMILES IDX 42 117 50 118 43 119 44 120 48 121 51 122 45 123 46 124
REMARK SMILES IDX 49 125 47 126
REMARK H PARENT 9 2 9 3 8 5 8 6 7 8 7 9 6 11 6 12 5 16 2 18 1 20 1 21 1 22
REMARK H PARENT 79 27 83 29 80 31 85 36 85 37 86 38 86 39 10 41 10 42 11 44
REMARK H PARENT 11 45 12 48 16 54 77 56 17 58 76 59 75 69 69 71 71 73 74 75
REMARK H PARENT 68 76 36 85 39 87 72 90 37 91 73 93
REMARK Flexibility Score: inf
ROOT
ATOM      1  C   UNL A   1      31.449  30.755  26.084  1.00  0.00    -0.052 C 
ATOM      2  H   UNL A   1      30.467  30.378  25.885  1.00  0.00     0.027 H 
ATOM      3  H   UNL A   1      32.080  30.836  25.224  1.00  0.00     0.027 H 
ENDROOT
BRANCH   1   4
ATOM      4  C   UNL A   1      32.151  29.753  27.005  1.00  0.00    -0.052 C 
ATOM      5  H   UNL A   1      32.276  30.222  27.959  1.00  0.00     0.027 H 
ATOM      6  H   UNL A   1      31.521  28.887  27.009  1.00  0.00     0.027 H 
BRANCH   4   7
ATOM      7  C   UNL A   1      33.525  29.246  26.557  1.00  0.00    -0.036 C 
ATOM      8  H   UNL A   1      33.944  29.979  25.900  1.00  0.00     0.028 H 
ATOM      9  H   UNL A   1      34.077  29.092  27.461  1.00  0.00     0.028 H 
BRANCH   7  10
ATOM     10  C   UNL A   1      33.556  27.901  25.834  1.00  0.00     0.017 C 
ATOM     11  H   UNL A   1      34.512  27.454  26.007  1.00  0.00     0.049 H 
ATOM     12  H   UNL A   1      32.742  27.330  26.229  1.00  0.00     0.049 H 
BRANCH  10  13
ATOM     13  N   UNL A   1      33.345  27.970  24.397  1.00  0.00    -0.356 N 
ATOM     14  C   UNL A   1      32.189  28.068  23.670  1.00  0.00     0.227 C 
ATOM     15  O   UNL A   1      32.315  28.390  22.482  1.00  0.00    -0.274 OA
ATOM     16  H   UNL A   1      34.169  27.944  23.858  1.00  0.00     0.163 HD
BRANCH  14  17
ATOM     17  C   UNL A   1      30.792  27.688  24.213  1.00  0.00     0.060 C 
ATOM     18  H   UNL A   1      30.680  28.067  25.209  1.00  0.00     0.045 H 
BRANCH  17  19
ATOM     19  C   UNL A   1      29.776  28.337  23.263  1.00  0.00    -0.049 C 
ATOM     20  H   UNL A   1      29.870  29.402  23.313  1.00  0.00     0.024 H 
ATOM     21  H   UNL A   1      28.786  28.053  23.552  1.00  0.00     0.024 H 
ATOM     22  H   UNL A   1      29.964  28.010  22.262  1.00  0.00     0.024 H 
ENDBRANCH  17  19
BRANCH  17  23
ATOM     23  C   UNL A   1      30.564  26.201  24.467  1.00  0.00    -0.032 A 
ATOM     24  C   UNL A   1      30.455  25.272  23.414  1.00  0.00    -0.054 A 
ATOM     25  C   UNL A   1      30.608  25.715  25.782  1.00  0.00    -0.012 A 
ATOM     26  C   UNL A   1      30.664  23.913  23.642  1.00  0.00    -0.016 A 
ATOM     27  H   UNL A   1      30.220  25.602  22.464  1.00  0.00     0.063 H 
ATOM     28  C   UNL A   1      30.954  24.387  25.995  1.00  0.00     0.161 A 
ATOM     29  H   UNL A   1      30.387  26.335  26.577  1.00  0.00     0.067 H 
ATOM     30  C   UNL A   1      31.028  23.505  24.916  1.00  0.00     0.161 A 
ATOM     31  H   UNL A   1      30.549  23.226  22.881  1.00  0.00     0.066 H 
ATOM     32  O   UNL A   1      31.403  24.078  27.251  1.00  0.00    -0.486 OA
ATOM     33  O   UNL A   1      31.619  22.274  25.050  1.00  0.00    -0.486 OA
ATOM     34  C   UNL A   1      32.272  22.937  27.285  1.00  0.00     0.122 C 
ATOM     35  C   UNL A   1      32.746  22.467  25.915  1.00  0.00     0.122 C 
ATOM     36  H   UNL A   1      31.746  22.131  27.753  1.00  0.00     0.074 H 
ATOM     37  H   UNL A   1      33.145  23.233  27.827  1.00  0.00     0.074 H 
ATOM     38  H   UNL A   1      33.276  21.544  26.019  1.00  0.00     0.074 H 
ATOM     39  H   UNL A   1      33.393  23.208  25.491  1.00  0.00     0.074 H 
ENDBRANCH  17  23
ENDBRANCH  14  17
ENDBRANCH  10  13
ENDBRANCH   7  10
ENDBRANCH   4   7
ENDBRANCH   1   4
BRANCH   1  40
ATOM     40  C   UNL A   1      31.300  32.186  26.609  1.00  0.00    -0.036 C 
ATOM     41  H   UNL A   1      30.671  32.150  27.475  1.00  0.00     0.028 H 
ATOM     42  H   UNL A   1      30.901  32.746  25.790  1.00  0.00     0.028 H 
BRANCH  40  43
ATOM     43  C   UNL A   1      32.587  32.910  27.002  1.00  0.00     0.018 C 
ATOM     44  H   UNL A   1      33.175  33.058  26.119  1.00  0.00     0.049 H 
ATOM     45  H   UNL A   1      33.085  32.296  27.724  1.00  0.00     0.049 H 
BRANCH  43  46
ATOM     46  N   UNL A   1      32.362  34.203  27.626  1.00  0.00    -0.352 N 
ATOM     47  C   UNL A   1      33.018  34.828  28.656  1.00  0.00     0.251 C 
ATOM     48  H   UNL A   1      31.613  34.716  27.246  1.00  0.00     0.163 HD
ATOM     49  O   UNL A   1      32.580  35.902  29.080  1.00  0.00    -0.269 OA
BRANCH  47  50
ATOM     50  C   UNL A   1      34.218  34.240  29.299  1.00  0.00     0.039 A 
ATOM     51  C   UNL A   1      34.028  33.348  30.360  1.00  0.00    -0.049 A 
ATOM     52  C   UNL A   1      35.519  34.578  28.916  1.00  0.00    -0.049 A 
ATOM     53  C   UNL A   1      35.127  32.754  30.989  1.00  0.00    -0.053 A 
ATOM     54  H   UNL A   1      33.072  33.127  30.680  1.00  0.00     0.063 H 
ATOM     55  C   UNL A   1      36.615  33.933  29.497  1.00  0.00    -0.053 A 
ATOM     56  H   UNL A   1      35.672  35.308  28.201  1.00  0.00     0.063 H 
ATOM     57  C   UNL A   1      36.432  33.011  30.539  1.00  0.00    -0.014 A 
ATOM     58  H   UNL A   1      34.977  32.122  31.791  1.00  0.00     0.063 H 
ATOM     59  H   UNL A   1      37.568  34.135  29.156  1.00  0.00     0.063 H 
BRANCH  57  60
ATOM     60  C   UNL A   1      37.592  32.298  31.143  1.00  0.00     0.031 A 
ATOM     61  C   UNL A   1      38.093  32.656  32.516  1.00  0.00     0.074 A 
ATOM     62  C   UNL A   1      38.215  31.334  30.436  1.00  0.00     0.049 A 
ATOM     63  N   UNL A   1      39.088  32.137  33.195  1.00  0.00    -0.248 NA
ATOM     64  C   UNL A   1      37.404  33.752  33.211  1.00  0.00    -0.034 C 
ATOM     65  C   UNL A   1      37.867  30.929  29.073  1.00  0.00    -0.036 A 
ATOM     66  N   UNL A   1      39.273  30.521  30.762  1.00  0.00    -0.354 N 
ATOM     67  C   UNL A   1      39.136  32.836  34.395  1.00  0.00     0.074 A 
ATOM     68  C   UNL A   1      38.114  33.858  34.326  1.00  0.00    -0.034 C 
ATOM     69  H   UNL A   1      36.580  34.297  32.911  1.00  0.00     0.065 H 
ATOM     70  C   UNL A   1      38.677  29.930  28.690  1.00  0.00    -0.036 A 
ATOM     71  H   UNL A   1      37.117  31.345  28.499  1.00  0.00     0.065 H 
ATOM     72  C   UNL A   1      39.624  29.645  29.764  1.00  0.00     0.049 A 
ATOM     73  H   UNL A   1      39.737  30.562  31.630  1.00  0.00     0.167 HD
ATOM     74  C   UNL A   1      39.937  32.626  35.468  1.00  0.00     0.037 A 
ATOM     75  H   UNL A   1      37.958  34.577  35.050  1.00  0.00     0.065 H 
ATOM     76  H   UNL A   1      38.637  29.442  27.781  1.00  0.00     0.065 H 
ATOM     77  C   UNL A   1      40.597  28.716  29.715  1.00  0.00     0.037 A 
ATOM     78  C   UNL A   1      40.952  31.605  35.542  1.00  0.00     0.049 A 
ATOM     79  C   UNL A   1      41.477  28.507  30.919  1.00  0.00     0.074 A 
ATOM     80  C   UNL A   1      41.794  31.299  36.598  1.00  0.00    -0.036 A 
ATOM     81  N   UNL A   1      41.264  30.726  34.516  1.00  0.00    -0.354 N 
ATOM     82  N   UNL A   1      41.465  29.133  32.070  1.00  0.00    -0.248 NA
ATOM     83  C   UNL A   1      42.496  27.453  30.820  1.00  0.00    -0.034 C 
ATOM     84  C   UNL A   1      42.644  30.262  36.196  1.00  0.00    -0.036 A 
ATOM     85  H   UNL A   1      41.795  31.756  37.523  1.00  0.00     0.065 H 
ATOM     86  C   UNL A   1      42.297  29.886  34.909  1.00  0.00     0.049 A 
ATOM     87  H   UNL A   1      40.820  30.701  33.639  1.00  0.00     0.167 HD
ATOM     88  C   UNL A   1      42.455  28.535  32.839  1.00  0.00     0.074 A 
ATOM     89  C   UNL A   1      43.028  27.477  32.033  1.00  0.00    -0.034 C 
ATOM     90  H   UNL A   1      42.734  26.851  30.016  1.00  0.00     0.065 H 
ATOM     91  H   UNL A   1      43.401  29.848  36.762  1.00  0.00     0.065 H 
ATOM     92  C   UNL A   1      42.859  28.838  34.097  1.00  0.00     0.037 A 
ATOM     93  H   UNL A   1      43.757  26.826  32.361  1.00  0.00     0.065 H 
BRANCH  74  94
ATOM     94  C   UNL A   1      39.737  33.508  36.668  1.00  0.00     0.064 A 
ATOM     95  C   UNL A   1      40.383  34.749  36.778  1.00  0.00     0.173 A 
ATOM     96  C   UNL A   1      38.851  33.139  37.692  1.00  0.00     0.173 A 
ATOM     97  F   UNL A   1      41.247  35.146  35.831  1.00  0.00    -0.203 F 
ATOM     98  C   UNL A   1      40.167  35.577  37.877  1.00  0.00     0.198 A 
ATOM     99  C   UNL A   1      38.614  33.983  38.774  1.00  0.00     0.198 A 
ATOM    100  F   UNL A   1      38.202  31.966  37.635  1.00  0.00    -0.203 F 
ATOM    101  F   UNL A   1      40.829  36.738  37.979  1.00  0.00    -0.200 F 
ATOM    102  C   UNL A   1      39.277  35.198  38.870  1.00  0.00     0.200 A 
ATOM    103  F   UNL A   1      37.742  33.621  39.726  1.00  0.00    -0.200 F 
ATOM    104  F   UNL A   1      39.062  36.000  39.921  1.00  0.00    -0.200 F 
ENDBRANCH  74  94
BRANCH  77 105
ATOM    105  C   UNL A   1      40.789  27.900  28.486  1.00  0.00     0.064 A 
ATOM    106  C   UNL A   1      41.604  28.349  27.436  1.00  0.00     0.173 A 
ATOM    107  C   UNL A   1      40.143  26.666  28.325  1.00  0.00     0.173 A 
ATOM    108  F   UNL A   1      42.229  29.533  27.533  1.00  0.00    -0.203 F 
ATOM    109  C   UNL A   1      41.739  27.610  26.262  1.00  0.00     0.198 A 
ATOM    110  C   UNL A   1      40.306  25.912  27.165  1.00  0.00     0.198 A 
ATOM    111  F   UNL A   1      39.358  26.187  29.301  1.00  0.00    -0.203 F 
ATOM    112  F   UNL A   1      42.477  28.091  25.252  1.00  0.00    -0.200 F 
ATOM    113  C   UNL A   1      41.094  26.390  26.130  1.00  0.00     0.200 A 
ATOM    114  F   UNL A   1      39.694  24.726  27.048  1.00  0.00    -0.200 F 
ATOM    115  F   UNL A   1      41.225  25.680  25.001  1.00  0.00    -0.200 F 
ENDBRANCH  77 105
BRANCH  92 116
ATOM    116  C   UNL A   1      43.955  27.995  34.686  1.00  0.00     0.064 A 
ATOM    117  C   UNL A   1      43.678  26.807  35.381  1.00  0.00     0.173 A 
ATOM    118  C   UNL A   1      45.299  28.374  34.547  1.00  0.00     0.173 A 
ATOM    119  F   UNL A   1      42.409  26.407  35.555  1.00  0.00    -0.203 F 
ATOM    120  C   UNL A   1      44.702  26.052  35.947  1.00  0.00     0.198 A 
ATOM    121  C   UNL A   1      46.322  27.599  35.085  1.00  0.00     0.198 A 
ATOM    122  F   UNL A   1      45.620  29.496  33.886  1.00  0.00    -0.203 F 
ATOM    123  F   UNL A   1      44.408  24.956  36.659  1.00  0.00    -0.200 F 
ATOM    124  C   UNL A   1      46.023  26.445  35.794  1.00  0.00     0.200 A 
ATOM    125  F   UNL A   1      47.599  27.973  34.925  1.00  0.00    -0.200 F 
ATOM    126  F   UNL A   1      47.007  25.719  36.340  1.00  0.00    -0.200 F 
ENDBRANCH  92 116
ENDBRANCH  57  60
ENDBRANCH  47  50
ENDBRANCH  43  46
ENDBRANCH  40  43
ENDBRANCH   1  40
TORSDOF 15
ENDMDL
MODEL 10
REMARK VINA RESULT:     -11.8      6.067     10.247
REMARK SMILES C[C@H](C(=O)NCCCCCCNC(=O)c1ccc(-c2c3nc(c(-c4c(F)c(F)c(F)c(F)c4F)c4ccc([nH]4)c(-c4c(F)c(F)c(F)c(F)c4F)c4nc(c(-c5c(F)c(F)c(F)c(F)c5F)c5ccc2[nH]5)C=C4)C=C3)cc1)c1ccc2c(c1)OCCO2
REMARK SMILES IDX 9 1 8 4 7 7 6 10 5 13 3 14 4 15 2 17 1 19 78 23 79 24 83 25
REMARK SMILES IDX 80 26 82 28 81 30 84 32 87 33 85 34 86 35 10 40 11 43 12 46
REMARK SMILES IDX 13 47 14 49 15 50 16 51 77 52 17 53 76 55 18 57 19 60 20 61
REMARK SMILES IDX 70 62 21 63 75 64 69 65 71 66 22 67 74 68 68 70 67 72 23 74
REMARK SMILES IDX 55 77 35 78 54 79 36 80 39 81 53 82 72 83 37 84 38 86 52 88
REMARK SMILES IDX 73 89 40 92 24 94 25 95 33 96 26 97 27 98 31 99 34 100
REMARK SMILES IDX 28 101 29 102 32 103 30 104 56 105 57 106 65 107 58 108
REMARK SMILES IDX 59 109 63 110 66 111 60 112 61 113 64 114 62 115 41 116
REMARK SMILES IDX 42 117 50 118 43 119 44 120 48 121 51 122 45 123 46 124
REMARK SMILES IDX 49 125 47 126
REMARK H PARENT 9 2 9 3 8 5 8 6 7 8 7 9 6 11 6 12 5 16 2 18 1 20 1 21 1 22
REMARK H PARENT 79 27 83 29 80 31 85 36 85 37 86 38 86 39 10 41 10 42 11 44
REMARK H PARENT 11 45 12 48 16 54 77 56 17 58 76 59 75 69 69 71 71 73 74 75
REMARK H PARENT 68 76 36 85 39 87 72 90 37 91 73 93
REMARK Flexibility Score: inf
ROOT
ATOM      1  C   UNL A   1      36.663  20.452  24.674  1.00  0.00    -0.052 C 
ATOM      2  H   UNL A   1      36.117  20.063  23.840  1.00  0.00     0.027 H 
ATOM      3  H   UNL A   1      36.095  20.542  25.577  1.00  0.00     0.027 H 
ENDROOT
BRANCH   1   4
ATOM      4  C   UNL A   1      37.089  21.880  24.323  1.00  0.00    -0.052 C 
ATOM      5  H   UNL A   1      37.405  22.357  25.228  1.00  0.00     0.027 H 
ATOM      6  H   UNL A   1      37.856  21.769  23.584  1.00  0.00     0.027 H 
BRANCH   4   7
ATOM      7  C   UNL A   1      36.033  22.779  23.672  1.00  0.00    -0.036 C 
ATOM      8  H   UNL A   1      36.453  23.174  22.771  1.00  0.00     0.028 H 
ATOM      9  H   UNL A   1      35.180  22.150  23.527  1.00  0.00     0.028 H 
BRANCH   7  10
ATOM     10  C   UNL A   1      35.528  23.955  24.505  1.00  0.00     0.017 C 
ATOM     11  H   UNL A   1      35.983  23.896  25.472  1.00  0.00     0.049 H 
ATOM     12  H   UNL A   1      35.793  24.840  23.964  1.00  0.00     0.049 H 
BRANCH  10  13
ATOM     13  N   UNL A   1      34.087  24.006  24.688  1.00  0.00    -0.356 N 
ATOM     14  C   UNL A   1      33.255  23.218  25.439  1.00  0.00     0.227 C 
ATOM     15  O   UNL A   1      32.114  23.655  25.632  1.00  0.00    -0.274 OA
ATOM     16  H   UNL A   1      33.635  24.726  24.191  1.00  0.00     0.163 HD
BRANCH  14  17
ATOM     17  C   UNL A   1      33.624  21.801  25.935  1.00  0.00     0.060 C 
ATOM     18  H   UNL A   1      34.658  21.609  25.733  1.00  0.00     0.045 H 
BRANCH  17  19
ATOM     19  C   UNL A   1      33.353  21.797  27.447  1.00  0.00    -0.049 C 
ATOM     20  H   UNL A   1      32.955  20.847  27.735  1.00  0.00     0.024 H 
ATOM     21  H   UNL A   1      32.647  22.566  27.684  1.00  0.00     0.024 H 
ATOM     22  H   UNL A   1      34.267  21.976  27.974  1.00  0.00     0.024 H 
ENDBRANCH  17  19
BRANCH  17  23
ATOM     23  C   UNL A   1      32.985  20.646  25.172  1.00  0.00    -0.032 A 
ATOM     24  C   UNL A   1      32.604  20.764  23.821  1.00  0.00    -0.054 A 
ATOM     25  C   UNL A   1      32.903  19.385  25.780  1.00  0.00    -0.012 A 
ATOM     26  C   UNL A   1      32.420  19.627  23.035  1.00  0.00    -0.016 A 
ATOM     27  H   UNL A   1      32.462  21.699  23.410  1.00  0.00     0.063 H 
ATOM     28  C   UNL A   1      32.859  18.254  24.975  1.00  0.00     0.161 A 
ATOM     29  H   UNL A   1      32.876  19.299  26.808  1.00  0.00     0.067 H 
ATOM     30  C   UNL A   1      32.666  18.385  23.599  1.00  0.00     0.161 A 
ATOM     31  H   UNL A   1      32.106  19.708  22.055  1.00  0.00     0.066 H 
ATOM     32  O   UNL A   1      33.215  17.076  25.575  1.00  0.00    -0.486 OA
ATOM     33  O   UNL A   1      32.884  17.328  22.752  1.00  0.00    -0.486 OA
ATOM     34  C   UNL A   1      33.723  16.096  24.659  1.00  0.00     0.122 C 
ATOM     35  C   UNL A   1      34.028  16.635  23.267  1.00  0.00     0.122 C 
ATOM     36  H   UNL A   1      32.994  15.317  24.565  1.00  0.00     0.074 H 
ATOM     37  H   UNL A   1      34.650  15.749  25.064  1.00  0.00     0.074 H 
ATOM     38  H   UNL A   1      34.275  15.823  22.617  1.00  0.00     0.074 H 
ATOM     39  H   UNL A   1      34.855  17.314  23.325  1.00  0.00     0.074 H 
ENDBRANCH  17  23
ENDBRANCH  14  17
ENDBRANCH  10  13
ENDBRANCH   7  10
ENDBRANCH   4   7
ENDBRANCH   1   4
BRANCH   1  40
ATOM     40  C   UNL A   1      37.783  19.460  25.001  1.00  0.00    -0.036 C 
ATOM     41  H   UNL A   1      38.133  19.050  24.076  1.00  0.00     0.028 H 
ATOM     42  H   UNL A   1      37.342  18.748  25.667  1.00  0.00     0.028 H 
BRANCH  40  43
ATOM     43  C   UNL A   1      38.994  20.014  25.751  1.00  0.00     0.018 C 
ATOM     44  H   UNL A   1      38.683  20.290  26.738  1.00  0.00     0.049 H 
ATOM     45  H   UNL A   1      39.355  20.851  25.189  1.00  0.00     0.049 H 
BRANCH  43  46
ATOM     46  N   UNL A   1      40.093  19.071  25.862  1.00  0.00    -0.352 N 
ATOM     47  C   UNL A   1      41.424  19.271  26.126  1.00  0.00     0.251 C 
ATOM     48  H   UNL A   1      39.840  18.129  25.725  1.00  0.00     0.163 HD
ATOM     49  O   UNL A   1      42.195  18.308  26.078  1.00  0.00    -0.269 OA
BRANCH  47  50
ATOM     50  C   UNL A   1      41.973  20.614  26.434  1.00  0.00     0.039 A 
ATOM     51  C   UNL A   1      42.267  21.468  25.365  1.00  0.00    -0.049 A 
ATOM     52  C   UNL A   1      42.248  21.034  27.738  1.00  0.00    -0.049 A 
ATOM     53  C   UNL A   1      42.771  22.750  25.603  1.00  0.00    -0.053 A 
ATOM     54  H   UNL A   1      42.111  21.150  24.396  1.00  0.00     0.063 H 
ATOM     55  C   UNL A   1      42.686  22.339  27.981  1.00  0.00    -0.053 A 
ATOM     56  H   UNL A   1      42.128  20.377  28.526  1.00  0.00     0.063 H 
ATOM     57  C   UNL A   1      42.950  23.215  26.917  1.00  0.00    -0.014 A 
ATOM     58  H   UNL A   1      43.014  23.361  24.807  1.00  0.00     0.063 H 
ATOM     59  H   UNL A   1      42.816  22.663  28.952  1.00  0.00     0.063 H 
BRANCH  57  60
ATOM     60  C   UNL A   1      43.389  24.615  27.168  1.00  0.00     0.031 A 
ATOM     61  C   UNL A   1      42.431  25.644  27.706  1.00  0.00     0.074 A 
ATOM     62  C   UNL A   1      44.659  24.970  26.888  1.00  0.00     0.049 A 
ATOM     63  N   UNL A   1      42.645  26.907  27.987  1.00  0.00    -0.248 NA
ATOM     64  C   UNL A   1      41.048  25.206  27.941  1.00  0.00    -0.034 C 
ATOM     65  C   UNL A   1      45.673  24.085  26.310  1.00  0.00    -0.036 A 
ATOM     66  N   UNL A   1      45.315  26.166  27.046  1.00  0.00    -0.354 N 
ATOM     67  C   UNL A   1      41.430  27.408  28.437  1.00  0.00     0.074 A 
ATOM     68  C   UNL A   1      40.467  26.333  28.331  1.00  0.00    -0.034 C 
ATOM     69  H   UNL A   1      40.635  24.267  27.832  1.00  0.00     0.065 H 
ATOM     70  C   UNL A   1      46.826  24.761  26.186  1.00  0.00    -0.036 A 
ATOM     71  H   UNL A   1      45.524  23.100  26.042  1.00  0.00     0.065 H 
ATOM     72  C   UNL A   1      46.628  26.133  26.643  1.00  0.00     0.049 A 
ATOM     73  H   UNL A   1      44.885  26.972  27.414  1.00  0.00     0.167 HD
ATOM     74  C   UNL A   1      41.148  28.642  28.922  1.00  0.00     0.037 A 
ATOM     75  H   UNL A   1      39.459  26.430  28.532  1.00  0.00     0.065 H 
ATOM     76  H   UNL A   1      47.712  24.371  25.825  1.00  0.00     0.065 H 
ATOM     77  C   UNL A   1      47.569  27.097  26.640  1.00  0.00     0.037 A 
ATOM     78  C   UNL A   1      42.106  29.714  29.034  1.00  0.00     0.049 A 
ATOM     79  C   UNL A   1      47.228  28.460  27.179  1.00  0.00     0.074 A 
ATOM     80  C   UNL A   1      41.920  30.990  29.539  1.00  0.00    -0.036 A 
ATOM     81  N   UNL A   1      43.430  29.635  28.632  1.00  0.00    -0.354 N 
ATOM     82  N   UNL A   1      46.091  28.898  27.662  1.00  0.00    -0.248 NA
ATOM     83  C   UNL A   1      48.306  29.458  27.185  1.00  0.00    -0.034 C 
ATOM     84  C   UNL A   1      43.120  31.696  29.403  1.00  0.00    -0.036 A 
ATOM     85  H   UNL A   1      41.046  31.358  29.946  1.00  0.00     0.065 H 
ATOM     86  C   UNL A   1      44.070  30.845  28.863  1.00  0.00     0.049 A 
ATOM     87  H   UNL A   1      43.855  28.839  28.239  1.00  0.00     0.167 HD
ATOM     88  C   UNL A   1      46.322  30.211  28.050  1.00  0.00     0.074 A 
ATOM     89  C   UNL A   1      47.716  30.489  27.772  1.00  0.00    -0.034 C 
ATOM     90  H   UNL A   1      49.270  29.377  26.826  1.00  0.00     0.065 H 
ATOM     91  H   UNL A   1      43.273  32.683  29.661  1.00  0.00     0.065 H 
ATOM     92  C   UNL A   1      45.457  31.109  28.582  1.00  0.00     0.037 A 
ATOM     93  H   UNL A   1      48.189  31.376  28.003  1.00  0.00     0.065 H 
BRANCH  74  94
ATOM     94  C   UNL A   1      39.745  28.901  29.393  1.00  0.00     0.064 A 
ATOM     95  C   UNL A   1      39.364  28.661  30.722  1.00  0.00     0.173 A 
ATOM     96  C   UNL A   1      38.785  29.448  28.526  1.00  0.00     0.173 A 
ATOM     97  F   UNL A   1      40.240  28.131  31.589  1.00  0.00    -0.203 F 
ATOM     98  C   UNL A   1      38.071  28.935  31.160  1.00  0.00     0.198 A 
ATOM     99  C   UNL A   1      37.502  29.749  28.976  1.00  0.00     0.198 A 
ATOM    100  F   UNL A   1      39.097  29.703  27.247  1.00  0.00    -0.203 F 
ATOM    101  F   UNL A   1      37.720  28.657  32.423  1.00  0.00    -0.200 F 
ATOM    102  C   UNL A   1      37.143  29.486  30.289  1.00  0.00     0.200 A 
ATOM    103  F   UNL A   1      36.611  30.295  28.136  1.00  0.00    -0.200 F 
ATOM    104  F   UNL A   1      35.903  29.760  30.715  1.00  0.00    -0.200 F 
ENDBRANCH  74  94
BRANCH  77 105
ATOM    105  C   UNL A   1      48.931  26.808  26.117  1.00  0.00     0.064 A 
ATOM    106  C   UNL A   1      49.947  26.332  26.960  1.00  0.00     0.173 A 
ATOM    107  C   UNL A   1      49.253  27.023  24.769  1.00  0.00     0.173 A 
ATOM    108  F   UNL A   1      49.695  26.128  28.262  1.00  0.00    -0.203 F 
ATOM    109  C   UNL A   1      51.237  26.114  26.481  1.00  0.00     0.198 A 
ATOM    110  C   UNL A   1      50.535  26.773  24.285  1.00  0.00     0.198 A 
ATOM    111  F   UNL A   1      48.317  27.470  23.919  1.00  0.00    -0.203 F 
ATOM    112  F   UNL A   1      52.202  25.716  27.322  1.00  0.00    -0.200 F 
ATOM    113  C   UNL A   1      51.529  26.330  25.144  1.00  0.00     0.200 A 
ATOM    114  F   UNL A   1      50.808  26.966  22.988  1.00  0.00    -0.200 F 
ATOM    115  F   UNL A   1      52.770  26.120  24.684  1.00  0.00    -0.200 F 
ENDBRANCH  77 105
BRANCH  92 116
ATOM    116  C   UNL A   1      46.003  32.467  28.923  1.00  0.00     0.064 A 
ATOM    117  C   UNL A   1      46.569  32.739  30.179  1.00  0.00     0.173 A 
ATOM    118  C   UNL A   1      45.970  33.506  27.981  1.00  0.00     0.173 A 
ATOM    119  F   UNL A   1      46.612  31.785  31.120  1.00  0.00    -0.203 F 
ATOM    120  C   UNL A   1      47.044  34.010  30.491  1.00  0.00     0.198 A 
ATOM    121  C   UNL A   1      46.477  34.766  28.284  1.00  0.00     0.198 A 
ATOM    122  F   UNL A   1      45.447  33.298  26.763  1.00  0.00    -0.203 F 
ATOM    123  F   UNL A   1      47.521  34.262  31.716  1.00  0.00    -0.200 F 
ATOM    124  C   UNL A   1      47.002  35.021  29.542  1.00  0.00     0.200 A 
ATOM    125  F   UNL A   1      46.449  35.738  27.362  1.00  0.00    -0.200 F 
ATOM    126  F   UNL A   1      47.459  36.244  29.844  1.00  0.00    -0.200 F 
ENDBRANCH  92 116
ENDBRANCH  57  60
ENDBRANCH  47  50
ENDBRANCH  43  46
ENDBRANCH  40  43
ENDBRANCH   1  40
TORSDOF 15
ENDMDL
