MODEL 1
REMARK VINA RESULT:     -13.3      0.000      0.000
REMARK SMILES Nn1c(S[C@@H](C(=O)NCCCCCCNC(=O)c2ccc(-c3c4nc(c(-c5c(F)c(F)c(F)c(F)c5F)c5ccc([nH]5)c(-c5c(F)c(F)c(F)c(F)c5F)c5nc(c(-c6c(F)c(F)c(F)c(F)c6F)c6ccc3[nH]6)C=C5)C=C4)cc2)c2ccccc2)nc2ccc(Br)cc2c1=O
REMARK SMILES IDX 11 1 10 4 9 7 8 10 6 11 7 12 5 14 4 16 3 17 2 18 95 19 87 20
REMARK SMILES IDX 94 21 96 22 88 23 93 24 89 25 91 26 90 28 92 30 1 32 81 35
REMARK SMILES IDX 82 36 86 37 83 38 85 40 84 42 12 46 13 49 14 52 15 55 16 56
REMARK SMILES IDX 17 58 18 59 19 60 80 61 20 62 79 64 21 66 22 69 23 70 73 71
REMARK SMILES IDX 24 72 78 73 72 74 74 75 25 76 77 77 71 79 70 81 26 83 58 86
REMARK SMILES IDX 38 87 57 88 39 89 42 90 56 91 75 92 40 93 41 95 55 97 76 98
REMARK SMILES IDX 43 101 27 103 28 104 36 105 29 106 30 107 34 108 37 109
REMARK SMILES IDX 31 110 32 111 35 112 33 113 59 114 60 115 68 116 61 117
REMARK SMILES IDX 62 118 66 119 69 120 63 121 64 122 67 123 65 124 44 125
REMARK SMILES IDX 45 126 53 127 46 128 47 129 51 130 54 131 48 132 49 133
REMARK SMILES IDX 52 134 50 135
REMARK H PARENT 11 2 11 3 10 5 10 6 9 8 9 9 8 13 5 15 93 27 89 29 90 31 1 33
REMARK H PARENT 1 34 82 39 86 41 83 43 85 44 84 45 12 47 12 48 13 50 13 51
REMARK H PARENT 14 53 14 54 15 57 19 63 80 65 20 67 79 68 78 78 72 80 74 82
REMARK H PARENT 77 84 71 85 39 94 42 96 75 99 40 100 76 102
REMARK Flexibility Score: inf
ROOT
ATOM      1  C   UNL A   1      33.203  30.116  27.449  1.00  0.00    -0.052 C 
ATOM      2  H   UNL A   1      33.763  30.988  27.715  1.00  0.00     0.027 H 
ATOM      3  H   UNL A   1      32.959  29.486  28.278  1.00  0.00     0.027 H 
ENDROOT
BRANCH   1   4
ATOM      4  C   UNL A   1      34.077  29.263  26.521  1.00  0.00    -0.036 C 
ATOM      5  H   UNL A   1      34.589  29.922  25.850  1.00  0.00     0.028 H 
ATOM      6  H   UNL A   1      34.733  28.709  27.160  1.00  0.00     0.028 H 
BRANCH   4   7
ATOM      7  C   UNL A   1      33.324  28.224  25.682  1.00  0.00     0.017 C 
ATOM      8  H   UNL A   1      33.821  27.282  25.775  1.00  0.00     0.049 H 
ATOM      9  H   UNL A   1      32.319  28.177  26.049  1.00  0.00     0.049 H 
BRANCH   7  10
ATOM     10  N   UNL A   1      33.263  28.583  24.275  1.00  0.00    -0.355 N 
ATOM     11  C   UNL A   1      32.208  28.619  23.399  1.00  0.00     0.238 C 
ATOM     12  O   UNL A   1      32.485  28.939  22.236  1.00  0.00    -0.273 OA
ATOM     13  H   UNL A   1      34.128  28.846  23.883  1.00  0.00     0.163 HD
BRANCH  11  14
ATOM     14  C   UNL A   1      30.768  28.329  23.861  1.00  0.00     0.116 C 
ATOM     15  H   UNL A   1      30.876  28.421  24.922  1.00  0.00     0.057 H 
BRANCH  14  16
ATOM     16  S   UNL A   1      30.225  26.640  23.554  1.00  0.00    -0.068 SA
BRANCH  16  17
ATOM     17  C   UNL A   1      31.557  25.541  23.353  1.00  0.00     0.191 A 
ATOM     18  N   UNL A   1      32.114  25.174  22.132  1.00  0.00    -0.202 N 
ATOM     19  C   UNL A   1      33.097  24.179  22.056  1.00  0.00     0.280 A 
ATOM     20  N   UNL A   1      32.063  25.162  24.486  1.00  0.00    -0.222 NA
ATOM     21  C   UNL A   1      33.744  23.821  23.328  1.00  0.00     0.069 A 
ATOM     22  O   UNL A   1      33.491  23.693  20.997  1.00  0.00    -0.267 OA
ATOM     23  C   UNL A   1      33.238  24.408  24.485  1.00  0.00     0.079 A 
ATOM     24  C   UNL A   1      34.922  23.068  23.350  1.00  0.00    -0.033 A 
ATOM     25  C   UNL A   1      33.961  24.289  25.673  1.00  0.00    -0.034 A 
ATOM     26  C   UNL A   1      35.627  22.953  24.546  1.00  0.00     0.018 A 
ATOM     27  H   UNL A   1      35.264  22.603  22.494  1.00  0.00     0.064 H 
ATOM     28  C   UNL A   1      35.162  23.575  25.704  1.00  0.00    -0.046 A 
ATOM     29  H   UNL A   1      33.606  24.732  26.535  1.00  0.00     0.065 H 
ATOM     30  Br  UNL A   1      37.252  21.990  24.590  1.00  0.00    -0.051 Br
ATOM     31  H   UNL A   1      35.702  23.509  26.581  1.00  0.00     0.064 H 
BRANCH  18  32
ATOM     32  N   UNL A   1      31.928  25.925  20.938  1.00  0.00    -0.334 N 
ATOM     33  H   UNL A   1      32.628  25.931  20.247  1.00  0.00     0.178 HD
ATOM     34  H   UNL A   1      31.099  26.440  20.806  1.00  0.00     0.178 HD
ENDBRANCH  18  32
ENDBRANCH  16  17
ENDBRANCH  14  16
BRANCH  14  35
ATOM     35  C   UNL A   1      29.699  29.390  23.598  1.00  0.00    -0.025 A 
ATOM     36  C   UNL A   1      28.498  28.997  22.973  1.00  0.00    -0.057 A 
ATOM     37  C   UNL A   1      29.831  30.745  23.938  1.00  0.00    -0.057 A 
ATOM     38  C   UNL A   1      27.475  29.917  22.716  1.00  0.00    -0.062 A 
ATOM     39  H   UNL A   1      28.370  28.010  22.701  1.00  0.00     0.063 H 
ATOM     40  C   UNL A   1      28.813  31.667  23.674  1.00  0.00    -0.062 A 
ATOM     41  H   UNL A   1      30.698  31.069  24.394  1.00  0.00     0.063 H 
ATOM     42  C   UNL A   1      27.635  31.253  23.064  1.00  0.00    -0.062 A 
ATOM     43  H   UNL A   1      26.602  29.601  22.266  1.00  0.00     0.062 H 
ATOM     44  H   UNL A   1      28.937  32.658  23.933  1.00  0.00     0.062 H 
ATOM     45  H   UNL A   1      26.883  31.932  22.871  1.00  0.00     0.062 H 
ENDBRANCH  14  35
ENDBRANCH  11  14
ENDBRANCH   7  10
ENDBRANCH   4   7
ENDBRANCH   1   4
BRANCH   1  46
ATOM     46  C   UNL A   1      31.865  30.576  26.865  1.00  0.00    -0.052 C 
ATOM     47  H   UNL A   1      31.083  30.148  27.455  1.00  0.00     0.027 H 
ATOM     48  H   UNL A   1      31.862  30.250  25.845  1.00  0.00     0.027 H 
BRANCH  46  49
ATOM     49  C   UNL A   1      31.655  32.089  26.826  1.00  0.00    -0.036 C 
ATOM     50  H   UNL A   1      30.839  32.328  27.476  1.00  0.00     0.028 H 
ATOM     51  H   UNL A   1      31.467  32.340  25.802  1.00  0.00     0.028 H 
BRANCH  49  52
ATOM     52  C   UNL A   1      32.861  32.915  27.254  1.00  0.00     0.018 C 
ATOM     53  H   UNL A   1      33.537  32.987  26.429  1.00  0.00     0.049 H 
ATOM     54  H   UNL A   1      33.309  32.422  28.091  1.00  0.00     0.049 H 
BRANCH  52  55
ATOM     55  N   UNL A   1      32.499  34.259  27.678  1.00  0.00    -0.352 N 
ATOM     56  C   UNL A   1      33.022  35.016  28.703  1.00  0.00     0.251 C 
ATOM     57  H   UNL A   1      31.780  34.687  27.159  1.00  0.00     0.163 HD
ATOM     58  O   UNL A   1      32.509  36.073  29.029  1.00  0.00    -0.269 OA
BRANCH  56  59
ATOM     59  C   UNL A   1      34.200  34.506  29.440  1.00  0.00     0.039 A 
ATOM     60  C   UNL A   1      35.482  34.638  28.902  1.00  0.00    -0.049 A 
ATOM     61  C   UNL A   1      34.007  33.844  30.654  1.00  0.00    -0.049 A 
ATOM     62  C   UNL A   1      36.546  33.965  29.491  1.00  0.00    -0.053 A 
ATOM     63  H   UNL A   1      35.639  35.233  28.073  1.00  0.00     0.063 H 
ATOM     64  C   UNL A   1      35.094  33.231  31.286  1.00  0.00    -0.053 A 
ATOM     65  H   UNL A   1      33.069  33.805  31.082  1.00  0.00     0.063 H 
ATOM     66  C   UNL A   1      36.362  33.247  30.685  1.00  0.00    -0.014 A 
ATOM     67  H   UNL A   1      37.479  33.993  29.049  1.00  0.00     0.063 H 
ATOM     68  H   UNL A   1      34.963  32.768  32.198  1.00  0.00     0.063 H 
BRANCH  66  69
ATOM     69  C   UNL A   1      37.505  32.516  31.290  1.00  0.00     0.031 A 
ATOM     70  C   UNL A   1      37.989  32.857  32.674  1.00  0.00     0.074 A 
ATOM     71  C   UNL A   1      38.087  31.518  30.599  1.00  0.00     0.049 A 
ATOM     72  N   UNL A   1      39.005  32.364  33.337  1.00  0.00    -0.248 NA
ATOM     73  C   UNL A   1      37.238  33.886  33.410  1.00  0.00    -0.034 C 
ATOM     74  C   UNL A   1      37.692  31.081  29.259  1.00  0.00    -0.036 A 
ATOM     75  N   UNL A   1      39.124  30.683  30.930  1.00  0.00    -0.354 N 
ATOM     76  C   UNL A   1      39.029  33.035  34.553  1.00  0.00     0.074 A 
ATOM     77  C   UNL A   1      37.934  33.980  34.536  1.00  0.00    -0.034 C 
ATOM     78  H   UNL A   1      36.390  34.400  33.126  1.00  0.00     0.065 H 
ATOM     79  C   UNL A   1      38.456  30.042  28.893  1.00  0.00    -0.036 A 
ATOM     80  H   UNL A   1      36.946  31.506  28.686  1.00  0.00     0.065 H 
ATOM     81  C   UNL A   1      39.435  29.779  29.944  1.00  0.00     0.049 A 
ATOM     82  H   UNL A   1      39.600  30.729  31.791  1.00  0.00     0.167 HD
ATOM     83  C   UNL A   1      39.885  32.869  35.589  1.00  0.00     0.037 A 
ATOM     84  H   UNL A   1      37.723  34.643  35.300  1.00  0.00     0.065 H 
ATOM     85  H   UNL A   1      38.367  29.513  28.011  1.00  0.00     0.065 H 
ATOM     86  C   UNL A   1      40.414  28.858  29.880  1.00  0.00     0.037 A 
ATOM     87  C   UNL A   1      40.958  31.908  35.614  1.00  0.00     0.049 A 
ATOM     88  C   UNL A   1      41.360  28.713  31.037  1.00  0.00     0.074 A 
ATOM     89  C   UNL A   1      41.876  31.667  36.622  1.00  0.00    -0.036 A 
ATOM     90  N   UNL A   1      41.248  31.020  34.589  1.00  0.00    -0.354 N 
ATOM     91  N   UNL A   1      41.384  29.368  32.171  1.00  0.00    -0.248 NA
ATOM     92  C   UNL A   1      42.419  27.702  30.904  1.00  0.00    -0.034 C 
ATOM     93  C   UNL A   1      42.742  30.656  36.195  1.00  0.00    -0.036 A 
ATOM     94  H   UNL A   1      41.916  32.151  37.532  1.00  0.00     0.065 H 
ATOM     95  C   UNL A   1      42.335  30.236  34.939  1.00  0.00     0.049 A 
ATOM     96  H   UNL A   1      40.756  30.959  33.739  1.00  0.00     0.167 HD
ATOM     97  C   UNL A   1      42.446  28.841  32.892  1.00  0.00     0.074 A 
ATOM     98  C   UNL A   1      43.029  27.798  32.076  1.00  0.00    -0.034 C 
ATOM     99  H   UNL A   1      42.631  27.081  30.107  1.00  0.00     0.065 H 
ATOM    100  H   UNL A   1      43.547  30.286  36.724  1.00  0.00     0.065 H 
ATOM    101  C   UNL A   1      42.897  29.194  34.120  1.00  0.00     0.037 A 
ATOM    102  H   UNL A   1      43.821  27.204  32.370  1.00  0.00     0.065 H 
BRANCH  83 103
ATOM    103  C   UNL A   1      39.717  33.744  36.796  1.00  0.00     0.064 A 
ATOM    104  C   UNL A   1      40.293  35.021  36.861  1.00  0.00     0.173 A 
ATOM    105  C   UNL A   1      38.881  33.345  37.850  1.00  0.00     0.173 A 
ATOM    106  F   UNL A   1      41.108  35.444  35.884  1.00  0.00    -0.203 F 
ATOM    107  C   UNL A   1      40.036  35.867  37.938  1.00  0.00     0.198 A 
ATOM    108  C   UNL A   1      38.609  34.201  38.914  1.00  0.00     0.198 A 
ATOM    109  F   UNL A   1      38.302  32.134  37.832  1.00  0.00    -0.203 F 
ATOM    110  F   UNL A   1      40.606  37.079  37.986  1.00  0.00    -0.200 F 
ATOM    111  C   UNL A   1      39.186  35.462  38.955  1.00  0.00     0.200 A 
ATOM    112  F   UNL A   1      37.778  33.812  39.890  1.00  0.00    -0.200 F 
ATOM    113  F   UNL A   1      38.920  36.287  39.977  1.00  0.00    -0.200 F 
ENDBRANCH  83 103
BRANCH  86 114
ATOM    114  C   UNL A   1      40.547  28.013  28.667  1.00  0.00     0.064 A 
ATOM    115  C   UNL A   1      39.890  26.780  28.571  1.00  0.00     0.173 A 
ATOM    116  C   UNL A   1      41.320  28.430  27.573  1.00  0.00     0.173 A 
ATOM    117  F   UNL A   1      39.157  26.329  29.600  1.00  0.00    -0.203 F 
ATOM    118  C   UNL A   1      40.007  25.989  27.430  1.00  0.00     0.198 A 
ATOM    119  C   UNL A   1      41.413  27.654  26.421  1.00  0.00     0.198 A 
ATOM    120  F   UNL A   1      41.965  29.604  27.616  1.00  0.00    -0.203 F 
ATOM    121  F   UNL A   1      39.398  24.798  27.376  1.00  0.00    -0.200 F 
ATOM    122  C   UNL A   1      40.762  26.431  26.352  1.00  0.00     0.200 A 
ATOM    123  F   UNL A   1      42.129  28.092  25.377  1.00  0.00    -0.200 F 
ATOM    124  F   UNL A   1      40.866  25.677  25.250  1.00  0.00    -0.200 F 
ENDBRANCH  86 114
BRANCH 101 125
ATOM    125  C   UNL A   1      44.059  28.423  34.672  1.00  0.00     0.064 A 
ATOM    126  C   UNL A   1      45.379  28.859  34.493  1.00  0.00     0.173 A 
ATOM    127  C   UNL A   1      43.843  27.259  35.423  1.00  0.00     0.173 A 
ATOM    128  F   UNL A   1      45.635  29.961  33.771  1.00  0.00    -0.203 F 
ATOM    129  C   UNL A   1      46.445  28.143  35.028  1.00  0.00     0.198 A 
ATOM    130  C   UNL A   1      44.910  26.559  35.978  1.00  0.00     0.198 A 
ATOM    131  F   UNL A   1      42.597  26.806  35.628  1.00  0.00    -0.203 F 
ATOM    132  F   UNL A   1      47.702  28.554  34.812  1.00  0.00    -0.200 F 
ATOM    133  C   UNL A   1      46.210  26.998  35.776  1.00  0.00     0.200 A 
ATOM    134  F   UNL A   1      44.680  25.459  36.710  1.00  0.00    -0.200 F 
ATOM    135  F   UNL A   1      47.237  26.312  36.296  1.00  0.00    -0.200 F 
ENDBRANCH 101 125
ENDBRANCH  66  69
ENDBRANCH  56  59
ENDBRANCH  52  55
ENDBRANCH  49  52
ENDBRANCH  46  49
ENDBRANCH   1  46
TORSDOF 17
ENDMDL
MODEL 2
REMARK VINA RESULT:     -13.3      0.113      1.537
REMARK SMILES Nn1c(S[C@@H](C(=O)NCCCCCCNC(=O)c2ccc(-c3c4nc(c(-c5c(F)c(F)c(F)c(F)c5F)c5ccc([nH]5)c(-c5c(F)c(F)c(F)c(F)c5F)c5nc(c(-c6c(F)c(F)c(F)c(F)c6F)c6ccc3[nH]6)C=C5)C=C4)cc2)c2ccccc2)nc2ccc(Br)cc2c1=O
REMARK SMILES IDX 11 1 10 4 9 7 8 10 6 11 7 12 5 14 4 16 3 17 2 18 95 19 87 20
REMARK SMILES IDX 94 21 96 22 88 23 93 24 89 25 91 26 90 28 92 30 1 32 81 35
REMARK SMILES IDX 82 36 86 37 83 38 85 40 84 42 12 46 13 49 14 52 15 55 16 56
REMARK SMILES IDX 17 58 18 59 19 60 80 61 20 62 79 64 21 66 22 69 23 70 73 71
REMARK SMILES IDX 24 72 78 73 72 74 74 75 25 76 77 77 71 79 70 81 26 83 58 86
REMARK SMILES IDX 38 87 57 88 39 89 42 90 56 91 75 92 40 93 41 95 55 97 76 98
REMARK SMILES IDX 43 101 27 103 28 104 36 105 29 106 30 107 34 108 37 109
REMARK SMILES IDX 31 110 32 111 35 112 33 113 59 114 60 115 68 116 61 117
REMARK SMILES IDX 62 118 66 119 69 120 63 121 64 122 67 123 65 124 44 125
REMARK SMILES IDX 45 126 53 127 46 128 47 129 51 130 54 131 48 132 49 133
REMARK SMILES IDX 52 134 50 135
REMARK H PARENT 11 2 11 3 10 5 10 6 9 8 9 9 8 13 5 15 93 27 89 29 90 31 1 33
REMARK H PARENT 1 34 82 39 86 41 83 43 85 44 84 45 12 47 12 48 13 50 13 51
REMARK H PARENT 14 53 14 54 15 57 19 63 80 65 20 67 79 68 78 78 72 80 74 82
REMARK H PARENT 77 84 71 85 39 94 42 96 75 99 40 100 76 102
REMARK Flexibility Score: inf
ROOT
ATOM      1  C   UNL A   1      33.317  30.195  27.456  1.00  0.00    -0.052 C 
ATOM      2  H   UNL A   1      33.917  31.075  27.553  1.00  0.00     0.027 H 
ATOM      3  H   UNL A   1      33.100  29.711  28.386  1.00  0.00     0.027 H 
ENDROOT
BRANCH   1   4
ATOM      4  C   UNL A   1      34.109  29.174  26.630  1.00  0.00    -0.036 C 
ATOM      5  H   UNL A   1      34.764  29.714  25.977  1.00  0.00     0.028 H 
ATOM      6  H   UNL A   1      34.623  28.557  27.337  1.00  0.00     0.028 H 
BRANCH   4   7
ATOM      7  C   UNL A   1      33.263  28.225  25.773  1.00  0.00     0.017 C 
ATOM      8  H   UNL A   1      33.659  27.235  25.865  1.00  0.00     0.049 H 
ATOM      9  H   UNL A   1      32.254  28.280  26.127  1.00  0.00     0.049 H 
BRANCH   7  10
ATOM     10  N   UNL A   1      33.260  28.597  24.369  1.00  0.00    -0.355 N 
ATOM     11  C   UNL A   1      32.236  28.670  23.459  1.00  0.00     0.238 C 
ATOM     12  O   UNL A   1      32.559  28.992  22.309  1.00  0.00    -0.273 OA
ATOM     13  H   UNL A   1      34.143  28.840  24.008  1.00  0.00     0.163 HD
BRANCH  11  14
ATOM     14  C   UNL A   1      30.774  28.415  23.870  1.00  0.00     0.116 C 
ATOM     15  H   UNL A   1      30.839  28.544  24.930  1.00  0.00     0.057 H 
BRANCH  14  16
ATOM     16  S   UNL A   1      30.220  26.724  23.600  1.00  0.00    -0.068 SA
BRANCH  16  17
ATOM     17  C   UNL A   1      31.543  25.617  23.393  1.00  0.00     0.191 A 
ATOM     18  N   UNL A   1      32.074  25.224  22.167  1.00  0.00    -0.202 N 
ATOM     19  C   UNL A   1      33.053  24.225  22.091  1.00  0.00     0.280 A 
ATOM     20  N   UNL A   1      32.072  25.257  24.522  1.00  0.00    -0.222 NA
ATOM     21  C   UNL A   1      33.725  23.889  23.356  1.00  0.00     0.069 A 
ATOM     22  O   UNL A   1      33.424  23.718  21.033  1.00  0.00    -0.267 OA
ATOM     23  C   UNL A   1      33.244  24.499  24.511  1.00  0.00     0.079 A 
ATOM     24  C   UNL A   1      34.900  23.132  23.368  1.00  0.00    -0.033 A 
ATOM     25  C   UNL A   1      33.991  24.400  25.686  1.00  0.00    -0.034 A 
ATOM     26  C   UNL A   1      35.629  23.037  24.551  1.00  0.00     0.018 A 
ATOM     27  H   UNL A   1      35.224  22.651  22.513  1.00  0.00     0.064 H 
ATOM     28  C   UNL A   1      35.190  23.682  25.706  1.00  0.00    -0.046 A 
ATOM     29  H   UNL A   1      33.655  24.860  26.547  1.00  0.00     0.065 H 
ATOM     30  Br  UNL A   1      37.252  22.070  24.580  1.00  0.00    -0.051 Br
ATOM     31  H   UNL A   1      35.748  23.631  26.573  1.00  0.00     0.064 H 
BRANCH  18  32
ATOM     32  N   UNL A   1      31.866  25.954  20.964  1.00  0.00    -0.334 N 
ATOM     33  H   UNL A   1      31.350  26.792  20.980  1.00  0.00     0.178 HD
ATOM     34  H   UNL A   1      32.238  25.620  20.116  1.00  0.00     0.178 HD
ENDBRANCH  18  32
ENDBRANCH  16  17
ENDBRANCH  14  16
BRANCH  14  35
ATOM     35  C   UNL A   1      29.732  29.480  23.524  1.00  0.00    -0.025 A 
ATOM     36  C   UNL A   1      28.663  29.128  22.675  1.00  0.00    -0.057 A 
ATOM     37  C   UNL A   1      29.766  30.800  23.999  1.00  0.00    -0.057 A 
ATOM     38  C   UNL A   1      27.670  30.051  22.332  1.00  0.00    -0.062 A 
ATOM     39  H   UNL A   1      28.612  28.168  22.301  1.00  0.00     0.063 H 
ATOM     40  C   UNL A   1      28.778  31.726  23.649  1.00  0.00    -0.062 A 
ATOM     41  H   UNL A   1      30.535  31.094  24.620  1.00  0.00     0.063 H 
ATOM     42  C   UNL A   1      27.730  31.353  22.817  1.00  0.00    -0.062 A 
ATOM     43  H   UNL A   1      26.893  29.765  21.716  1.00  0.00     0.062 H 
ATOM     44  H   UNL A   1      28.828  32.692  24.011  1.00  0.00     0.062 H 
ATOM     45  H   UNL A   1      27.000  32.036  22.560  1.00  0.00     0.062 H 
ENDBRANCH  14  35
ENDBRANCH  11  14
ENDBRANCH   7  10
ENDBRANCH   4   7
ENDBRANCH   1   4
BRANCH   1  46
ATOM     46  C   UNL A   1      31.963  30.611  26.877  1.00  0.00    -0.052 C 
ATOM     47  H   UNL A   1      31.197  30.130  27.448  1.00  0.00     0.027 H 
ATOM     48  H   UNL A   1      31.980  30.318  25.848  1.00  0.00     0.027 H 
BRANCH  46  49
ATOM     49  C   UNL A   1      31.684  32.114  26.883  1.00  0.00    -0.036 C 
ATOM     50  H   UNL A   1      30.925  32.308  27.613  1.00  0.00     0.028 H 
ATOM     51  H   UNL A   1      31.387  32.369  25.887  1.00  0.00     0.028 H 
BRANCH  49  52
ATOM     52  C   UNL A   1      32.888  32.988  27.208  1.00  0.00     0.018 C 
ATOM     53  H   UNL A   1      33.487  33.087  26.327  1.00  0.00     0.049 H 
ATOM     54  H   UNL A   1      33.427  32.515  28.002  1.00  0.00     0.049 H 
BRANCH  52  55
ATOM     55  N   UNL A   1      32.511  34.317  27.666  1.00  0.00    -0.352 N 
ATOM     56  C   UNL A   1      33.018  35.049  28.717  1.00  0.00     0.251 C 
ATOM     57  H   UNL A   1      31.793  34.753  27.152  1.00  0.00     0.163 HD
ATOM     58  O   UNL A   1      32.492  36.093  29.067  1.00  0.00    -0.269 OA
BRANCH  56  59
ATOM     59  C   UNL A   1      34.193  34.529  29.450  1.00  0.00     0.039 A 
ATOM     60  C   UNL A   1      35.478  34.674  28.922  1.00  0.00    -0.049 A 
ATOM     61  C   UNL A   1      33.996  33.843  30.650  1.00  0.00    -0.049 A 
ATOM     62  C   UNL A   1      36.541  33.993  29.504  1.00  0.00    -0.053 A 
ATOM     63  H   UNL A   1      35.637  35.285  28.105  1.00  0.00     0.063 H 
ATOM     64  C   UNL A   1      35.080  33.222  31.277  1.00  0.00    -0.053 A 
ATOM     65  H   UNL A   1      33.055  33.794  31.072  1.00  0.00     0.063 H 
ATOM     66  C   UNL A   1      36.352  33.252  30.683  1.00  0.00    -0.014 A 
ATOM     67  H   UNL A   1      37.475  34.031  29.068  1.00  0.00     0.063 H 
ATOM     68  H   UNL A   1      34.946  32.741  32.179  1.00  0.00     0.063 H 
BRANCH  66  69
ATOM     69  C   UNL A   1      37.493  32.513  31.281  1.00  0.00     0.031 A 
ATOM     70  C   UNL A   1      37.989  32.851  32.661  1.00  0.00     0.074 A 
ATOM     71  C   UNL A   1      38.064  31.511  30.586  1.00  0.00     0.049 A 
ATOM     72  N   UNL A   1      39.006  32.351  33.318  1.00  0.00    -0.248 NA
ATOM     73  C   UNL A   1      37.250  33.885  33.403  1.00  0.00    -0.034 C 
ATOM     74  C   UNL A   1      37.657  31.077  29.249  1.00  0.00    -0.036 A 
ATOM     75  N   UNL A   1      39.097  30.668  30.910  1.00  0.00    -0.354 N 
ATOM     76  C   UNL A   1      39.043  33.022  34.534  1.00  0.00     0.074 A 
ATOM     77  C   UNL A   1      37.955  33.975  34.523  1.00  0.00    -0.034 C 
ATOM     78  H   UNL A   1      36.404  34.406  33.124  1.00  0.00     0.065 H 
ATOM     79  C   UNL A   1      38.411  30.031  28.878  1.00  0.00    -0.036 A 
ATOM     80  H   UNL A   1      36.910  31.506  28.681  1.00  0.00     0.065 H 
ATOM     81  C   UNL A   1      39.394  29.762  29.923  1.00  0.00     0.049 A 
ATOM     82  H   UNL A   1      39.579  30.710  31.768  1.00  0.00     0.167 HD
ATOM     83  C   UNL A   1      39.905  32.850  35.563  1.00  0.00     0.037 A 
ATOM     84  H   UNL A   1      37.754  34.640  35.288  1.00  0.00     0.065 H 
ATOM     85  H   UNL A   1      38.311  29.503  27.997  1.00  0.00     0.065 H 
ATOM     86  C   UNL A   1      40.366  28.834  29.852  1.00  0.00     0.037 A 
ATOM     87  C   UNL A   1      40.971  31.881  35.582  1.00  0.00     0.049 A 
ATOM     88  C   UNL A   1      41.319  28.682  31.003  1.00  0.00     0.074 A 
ATOM     89  C   UNL A   1      41.894  31.634  36.583  1.00  0.00    -0.036 A 
ATOM     90  N   UNL A   1      41.248  30.991  34.555  1.00  0.00    -0.354 N 
ATOM     91  N   UNL A   1      41.356  29.337  32.137  1.00  0.00    -0.248 NA
ATOM     92  C   UNL A   1      42.369  27.663  30.863  1.00  0.00    -0.034 C 
ATOM     93  C   UNL A   1      42.750  30.616  36.151  1.00  0.00    -0.036 A 
ATOM     94  H   UNL A   1      41.944  32.118  37.493  1.00  0.00     0.065 H 
ATOM     95  C   UNL A   1      42.331  30.199  34.898  1.00  0.00     0.049 A 
ATOM     96  H   UNL A   1      40.749  30.933  33.708  1.00  0.00     0.167 HD
ATOM     97  C   UNL A   1      42.418  28.803  32.851  1.00  0.00     0.074 A 
ATOM     98  C   UNL A   1      42.988  27.755  32.032  1.00  0.00    -0.034 C 
ATOM     99  H   UNL A   1      42.571  27.041  30.065  1.00  0.00     0.065 H 
ATOM    100  H   UNL A   1      43.556  30.240  36.674  1.00  0.00     0.065 H 
ATOM    101  C   UNL A   1      42.880  29.152  34.075  1.00  0.00     0.037 A 
ATOM    102  H   UNL A   1      43.777  27.155  32.320  1.00  0.00     0.065 H 
BRANCH  83 103
ATOM    103  C   UNL A   1      39.752  33.727  36.771  1.00  0.00     0.064 A 
ATOM    104  C   UNL A   1      40.341  34.997  36.834  1.00  0.00     0.173 A 
ATOM    105  C   UNL A   1      38.916  33.336  37.829  1.00  0.00     0.173 A 
ATOM    106  F   UNL A   1      41.156  35.412  35.853  1.00  0.00    -0.203 F 
ATOM    107  C   UNL A   1      40.098  35.846  37.912  1.00  0.00     0.198 A 
ATOM    108  C   UNL A   1      38.658  34.195  38.894  1.00  0.00     0.198 A 
ATOM    109  F   UNL A   1      38.325  32.131  37.814  1.00  0.00    -0.203 F 
ATOM    110  F   UNL A   1      40.680  37.052  37.958  1.00  0.00    -0.200 F 
ATOM    111  C   UNL A   1      39.248  35.450  38.933  1.00  0.00     0.200 A 
ATOM    112  F   UNL A   1      37.827  33.814  39.874  1.00  0.00    -0.200 F 
ATOM    113  F   UNL A   1      38.995  36.277  39.956  1.00  0.00    -0.200 F 
ENDBRANCH  83 103
BRANCH  86 114
ATOM    114  C   UNL A   1      40.484  27.987  28.639  1.00  0.00     0.064 A 
ATOM    115  C   UNL A   1      41.244  28.404  27.539  1.00  0.00     0.173 A 
ATOM    116  C   UNL A   1      39.853  26.736  28.562  1.00  0.00     0.173 A 
ATOM    117  F   UNL A   1      41.848  29.601  27.557  1.00  0.00    -0.203 F 
ATOM    118  C   UNL A   1      41.362  27.606  26.403  1.00  0.00     0.198 A 
ATOM    119  C   UNL A   1      39.995  25.926  27.439  1.00  0.00     0.198 A 
ATOM    120  F   UNL A   1      39.117  26.292  29.591  1.00  0.00    -0.203 F 
ATOM    121  F   UNL A   1      42.065  28.043  25.349  1.00  0.00    -0.200 F 
ATOM    122  C   UNL A   1      40.745  26.365  26.357  1.00  0.00     0.200 A 
ATOM    123  F   UNL A   1      39.411  24.722  27.406  1.00  0.00    -0.200 F 
ATOM    124  F   UNL A   1      40.867  25.592  25.269  1.00  0.00    -0.200 F 
ENDBRANCH  86 114
BRANCH 101 125
ATOM    125  C   UNL A   1      44.040  28.373  34.620  1.00  0.00     0.064 A 
ATOM    126  C   UNL A   1      43.852  27.192  35.349  1.00  0.00     0.173 A 
ATOM    127  C   UNL A   1      45.354  28.794  34.370  1.00  0.00     0.173 A 
ATOM    128  F   UNL A   1      42.612  26.757  35.623  1.00  0.00    -0.203 F 
ATOM    129  C   UNL A   1      44.940  26.470  35.831  1.00  0.00     0.198 A 
ATOM    130  C   UNL A   1      46.440  28.056  34.832  1.00  0.00     0.198 A 
ATOM    131  F   UNL A   1      45.585  29.915  33.670  1.00  0.00    -0.203 F 
ATOM    132  F   UNL A   1      44.737  25.364  36.561  1.00  0.00    -0.200 F 
ATOM    133  C   UNL A   1      46.232  26.898  35.566  1.00  0.00     0.200 A 
ATOM    134  F   UNL A   1      47.689  28.466  34.566  1.00  0.00    -0.200 F 
ATOM    135  F   UNL A   1      47.279  26.199  36.025  1.00  0.00    -0.200 F 
ENDBRANCH 101 125
ENDBRANCH  66  69
ENDBRANCH  56  59
ENDBRANCH  52  55
ENDBRANCH  49  52
ENDBRANCH  46  49
ENDBRANCH   1  46
TORSDOF 17
ENDMDL
MODEL 3
REMARK VINA RESULT:     -13.2      0.469      7.128
REMARK SMILES Nn1c(S[C@@H](C(=O)NCCCCCCNC(=O)c2ccc(-c3c4nc(c(-c5c(F)c(F)c(F)c(F)c5F)c5ccc([nH]5)c(-c5c(F)c(F)c(F)c(F)c5F)c5nc(c(-c6c(F)c(F)c(F)c(F)c6F)c6ccc3[nH]6)C=C5)C=C4)cc2)c2ccccc2)nc2ccc(Br)cc2c1=O
REMARK SMILES IDX 11 1 10 4 9 7 8 10 6 11 7 12 5 14 4 16 3 17 2 18 95 19 87 20
REMARK SMILES IDX 94 21 96 22 88 23 93 24 89 25 91 26 90 28 92 30 1 32 81 35
REMARK SMILES IDX 82 36 86 37 83 38 85 40 84 42 12 46 13 49 14 52 15 55 16 56
REMARK SMILES IDX 17 58 18 59 19 60 80 61 20 62 79 64 21 66 22 69 23 70 73 71
REMARK SMILES IDX 24 72 78 73 72 74 74 75 25 76 77 77 71 79 70 81 26 83 58 86
REMARK SMILES IDX 38 87 57 88 39 89 42 90 56 91 75 92 40 93 41 95 55 97 76 98
REMARK SMILES IDX 43 101 27 103 28 104 36 105 29 106 30 107 34 108 37 109
REMARK SMILES IDX 31 110 32 111 35 112 33 113 59 114 60 115 68 116 61 117
REMARK SMILES IDX 62 118 66 119 69 120 63 121 64 122 67 123 65 124 44 125
REMARK SMILES IDX 45 126 53 127 46 128 47 129 51 130 54 131 48 132 49 133
REMARK SMILES IDX 52 134 50 135
REMARK H PARENT 11 2 11 3 10 5 10 6 9 8 9 9 8 13 5 15 93 27 89 29 90 31 1 33
REMARK H PARENT 1 34 82 39 86 41 83 43 85 44 84 45 12 47 12 48 13 50 13 51
REMARK H PARENT 14 53 14 54 15 57 19 63 80 65 20 67 79 68 78 78 72 80 74 82
REMARK H PARENT 77 84 71 85 39 94 42 96 75 99 40 100 76 102
REMARK Flexibility Score: inf
ROOT
ATOM      1  C   UNL A   1      33.500  30.060  27.386  1.00  0.00    -0.052 C 
ATOM      2  H   UNL A   1      34.134  30.920  27.332  1.00  0.00     0.027 H 
ATOM      3  H   UNL A   1      33.342  29.697  28.380  1.00  0.00     0.027 H 
ENDROOT
BRANCH   1   4
ATOM      4  C   UNL A   1      34.194  28.918  26.632  1.00  0.00    -0.036 C 
ATOM      5  H   UNL A   1      34.944  29.347  25.999  1.00  0.00     0.028 H 
ATOM      6  H   UNL A   1      34.590  28.266  27.382  1.00  0.00     0.028 H 
BRANCH   4   7
ATOM      7  C   UNL A   1      33.276  28.055  25.759  1.00  0.00     0.017 C 
ATOM      8  H   UNL A   1      33.619  27.042  25.797  1.00  0.00     0.049 H 
ATOM      9  H   UNL A   1      32.281  28.148  26.143  1.00  0.00     0.049 H 
BRANCH   7  10
ATOM     10  N   UNL A   1      33.256  28.489  24.373  1.00  0.00    -0.355 N 
ATOM     11  C   UNL A   1      32.221  28.609  23.481  1.00  0.00     0.238 C 
ATOM     12  O   UNL A   1      32.531  28.979  22.342  1.00  0.00    -0.273 OA
ATOM     13  H   UNL A   1      34.136  28.742  24.011  1.00  0.00     0.163 HD
BRANCH  11  14
ATOM     14  C   UNL A   1      30.762  28.345  23.900  1.00  0.00     0.116 C 
ATOM     15  H   UNL A   1      30.838  28.453  24.962  1.00  0.00     0.057 H 
BRANCH  14  16
ATOM     16  S   UNL A   1      30.206  26.659  23.602  1.00  0.00    -0.068 SA
BRANCH  16  17
ATOM     17  C   UNL A   1      31.528  25.553  23.381  1.00  0.00     0.191 A 
ATOM     18  N   UNL A   1      32.075  25.194  22.152  1.00  0.00    -0.202 N 
ATOM     19  C   UNL A   1      33.050  24.193  22.061  1.00  0.00     0.280 A 
ATOM     20  N   UNL A   1      32.040  25.160  24.507  1.00  0.00    -0.222 NA
ATOM     21  C   UNL A   1      33.704  23.819  23.325  1.00  0.00     0.069 A 
ATOM     22  O   UNL A   1      33.434  23.715  20.994  1.00  0.00    -0.267 OA
ATOM     23  C   UNL A   1      33.209  24.397  24.490  1.00  0.00     0.079 A 
ATOM     24  C   UNL A   1      34.876  23.057  23.331  1.00  0.00    -0.033 A 
ATOM     25  C   UNL A   1      33.939  24.262  25.673  1.00  0.00    -0.034 A 
ATOM     26  C   UNL A   1      35.588  22.925  24.521  1.00  0.00     0.018 A 
ATOM     27  H   UNL A   1      35.209  22.598  22.468  1.00  0.00     0.064 H 
ATOM     28  C   UNL A   1      35.135  23.539  25.689  1.00  0.00    -0.046 A 
ATOM     29  H   UNL A   1      33.593  24.698  26.541  1.00  0.00     0.065 H 
ATOM     30  Br  UNL A   1      37.207  21.951  24.545  1.00  0.00    -0.051 Br
ATOM     31  H   UNL A   1      35.681  23.461  26.561  1.00  0.00     0.064 H 
BRANCH  18  32
ATOM     32  N   UNL A   1      31.886  25.958  20.968  1.00  0.00    -0.334 N 
ATOM     33  H   UNL A   1      31.268  25.641  20.271  1.00  0.00     0.178 HD
ATOM     34  H   UNL A   1      32.375  26.804  20.846  1.00  0.00     0.178 HD
ENDBRANCH  18  32
ENDBRANCH  16  17
ENDBRANCH  14  16
BRANCH  14  35
ATOM     35  C   UNL A   1      29.717  29.416  23.586  1.00  0.00    -0.025 A 
ATOM     36  C   UNL A   1      28.593  29.057  22.815  1.00  0.00    -0.057 A 
ATOM     37  C   UNL A   1      29.800  30.750  24.016  1.00  0.00    -0.057 A 
ATOM     38  C   UNL A   1      27.595  29.986  22.503  1.00  0.00    -0.062 A 
ATOM     39  H   UNL A   1      28.505  28.087  22.474  1.00  0.00     0.063 H 
ATOM     40  C   UNL A   1      28.806  31.681  23.698  1.00  0.00    -0.062 A 
ATOM     41  H   UNL A   1      30.610  31.049  24.580  1.00  0.00     0.063 H 
ATOM     42  C   UNL A   1      27.704  31.300  22.943  1.00  0.00    -0.062 A 
ATOM     43  H   UNL A   1      26.777  29.694  21.946  1.00  0.00     0.062 H 
ATOM     44  H   UNL A   1      28.892  32.656  24.026  1.00  0.00     0.062 H 
ATOM     45  H   UNL A   1      26.970  31.987  22.711  1.00  0.00     0.062 H 
ENDBRANCH  14  35
ENDBRANCH  11  14
ENDBRANCH   7  10
ENDBRANCH   4   7
ENDBRANCH   1   4
BRANCH   1  46
ATOM     46  C   UNL A   1      32.119  30.460  26.862  1.00  0.00    -0.052 C 
ATOM     47  H   UNL A   1      31.384  29.926  27.427  1.00  0.00     0.027 H 
ATOM     48  H   UNL A   1      32.119  30.219  25.819  1.00  0.00     0.027 H 
BRANCH  46  49
ATOM     49  C   UNL A   1      31.793  31.950  26.950  1.00  0.00    -0.036 C 
ATOM     50  H   UNL A   1      31.043  32.082  27.703  1.00  0.00     0.028 H 
ATOM     51  H   UNL A   1      31.469  32.246  25.974  1.00  0.00     0.028 H 
BRANCH  49  52
ATOM     52  C   UNL A   1      32.975  32.845  27.299  1.00  0.00     0.018 C 
ATOM     53  H   UNL A   1      33.625  32.900  26.451  1.00  0.00     0.049 H 
ATOM     54  H   UNL A   1      33.467  32.416  28.147  1.00  0.00     0.049 H 
BRANCH  52  55
ATOM     55  N   UNL A   1      32.570  34.194  27.662  1.00  0.00    -0.352 N 
ATOM     56  C   UNL A   1      33.040  34.997  28.678  1.00  0.00     0.251 C 
ATOM     57  H   UNL A   1      31.862  34.588  27.104  1.00  0.00     0.163 HD
ATOM     58  O   UNL A   1      32.493  36.054  28.948  1.00  0.00    -0.269 OA
BRANCH  56  59
ATOM     59  C   UNL A   1      34.201  34.539  29.474  1.00  0.00     0.039 A 
ATOM     60  C   UNL A   1      35.497  34.660  28.967  1.00  0.00    -0.049 A 
ATOM     61  C   UNL A   1      33.980  33.936  30.713  1.00  0.00    -0.049 A 
ATOM     62  C   UNL A   1      36.551  34.030  29.620  1.00  0.00    -0.053 A 
ATOM     63  H   UNL A   1      35.672  35.215  28.114  1.00  0.00     0.063 H 
ATOM     64  C   UNL A   1      35.053  33.370  31.406  1.00  0.00    -0.053 A 
ATOM     65  H   UNL A   1      33.030  33.908  31.115  1.00  0.00     0.063 H 
ATOM     66  C   UNL A   1      36.339  33.371  30.842  1.00  0.00    -0.014 A 
ATOM     67  H   UNL A   1      37.495  34.047  29.204  1.00  0.00     0.063 H 
ATOM     68  H   UNL A   1      34.900  32.950  32.336  1.00  0.00     0.063 H 
BRANCH  66  69
ATOM     69  C   UNL A   1      37.471  32.685  31.516  1.00  0.00     0.031 A 
ATOM     70  C   UNL A   1      38.211  31.567  30.830  1.00  0.00     0.074 A 
ATOM     71  C   UNL A   1      37.853  33.094  32.740  1.00  0.00     0.049 A 
ATOM     72  N   UNL A   1      39.184  30.820  31.287  1.00  0.00    -0.248 NA
ATOM     73  C   UNL A   1      37.807  31.245  29.452  1.00  0.00    -0.034 C 
ATOM     74  C   UNL A   1      37.228  34.180  33.497  1.00  0.00    -0.036 A 
ATOM     75  N   UNL A   1      38.863  32.656  33.559  1.00  0.00    -0.354 N 
ATOM     76  C   UNL A   1      39.492  29.928  30.268  1.00  0.00     0.074 A 
ATOM     77  C   UNL A   1      38.595  30.216  29.169  1.00  0.00    -0.034 C 
ATOM     78  H   UNL A   1      37.096  31.701  28.860  1.00  0.00     0.065 H 
ATOM     79  C   UNL A   1      37.885  34.344  34.654  1.00  0.00    -0.036 A 
ATOM     80  H   UNL A   1      36.411  34.731  33.190  1.00  0.00     0.065 H 
ATOM     81  C   UNL A   1      38.936  33.335  34.750  1.00  0.00     0.049 A 
ATOM     82  H   UNL A   1      39.477  31.925  33.315  1.00  0.00     0.167 HD
ATOM     83  C   UNL A   1      40.440  28.962  30.253  1.00  0.00     0.037 A 
ATOM     84  H   UNL A   1      38.572  29.689  28.281  1.00  0.00     0.065 H 
ATOM     85  H   UNL A   1      37.681  35.066  35.363  1.00  0.00     0.065 H 
ATOM     86  C   UNL A   1      39.741  33.152  35.813  1.00  0.00     0.037 A 
ATOM     87  C   UNL A   1      41.349  28.695  31.337  1.00  0.00     0.049 A 
ATOM     88  C   UNL A   1      40.770  32.059  35.772  1.00  0.00     0.074 A 
ATOM     89  C   UNL A   1      42.346  27.736  31.412  1.00  0.00    -0.036 A 
ATOM     90  N   UNL A   1      41.381  29.396  32.533  1.00  0.00    -0.354 N 
ATOM     91  N   UNL A   1      41.035  31.209  34.811  1.00  0.00    -0.248 NA
ATOM     92  C   UNL A   1      41.609  31.896  36.968  1.00  0.00    -0.034 C 
ATOM     93  C   UNL A   1      42.960  27.837  32.664  1.00  0.00    -0.036 A 
ATOM     94  H   UNL A   1      42.593  27.063  30.670  1.00  0.00     0.065 H 
ATOM     95  C   UNL A   1      42.375  28.886  33.352  1.00  0.00     0.049 A 
ATOM     96  H   UNL A   1      40.784  30.144  32.766  1.00  0.00     0.167 HD
ATOM     97  C   UNL A   1      42.079  30.423  35.275  1.00  0.00     0.074 A 
ATOM     98  C   UNL A   1      42.413  30.908  36.598  1.00  0.00    -0.034 C 
ATOM     99  H   UNL A   1      41.580  32.413  37.861  1.00  0.00     0.065 H 
ATOM    100  H   UNL A   1      43.718  27.231  33.015  1.00  0.00     0.065 H 
ATOM    101  C   UNL A   1      42.702  29.389  34.661  1.00  0.00     0.037 A 
ATOM    102  H   UNL A   1      43.179  30.533  37.179  1.00  0.00     0.065 H 
BRANCH  83 103
ATOM    103  C   UNL A   1      40.558  28.102  29.029  1.00  0.00     0.064 A 
ATOM    104  C   UNL A   1      39.812  26.924  28.886  1.00  0.00     0.173 A 
ATOM    105  C   UNL A   1      41.343  28.520  27.942  1.00  0.00     0.173 A 
ATOM    106  F   UNL A   1      39.055  26.478  29.900  1.00  0.00    -0.203 F 
ATOM    107  C   UNL A   1      39.846  26.196  27.699  1.00  0.00     0.198 A 
ATOM    108  C   UNL A   1      41.357  27.801  26.750  1.00  0.00     0.198 A 
ATOM    109  F   UNL A   1      42.071  29.643  28.027  1.00  0.00    -0.203 F 
ATOM    110  F   UNL A   1      39.134  25.066  27.588  1.00  0.00    -0.200 F 
ATOM    111  C   UNL A   1      40.607  26.641  26.629  1.00  0.00     0.200 A 
ATOM    112  F   UNL A   1      42.084  28.239  25.713  1.00  0.00    -0.200 F 
ATOM    113  F   UNL A   1      40.618  25.952  25.479  1.00  0.00    -0.200 F 
ENDBRANCH  83 103
BRANCH  86 114
ATOM    114  C   UNL A   1      39.591  34.024  37.005  1.00  0.00     0.064 A 
ATOM    115  C   UNL A   1      40.210  35.279  37.063  1.00  0.00     0.173 A 
ATOM    116  C   UNL A   1      38.812  33.626  38.102  1.00  0.00     0.173 A 
ATOM    117  F   UNL A   1      40.982  35.693  36.049  1.00  0.00    -0.203 F 
ATOM    118  C   UNL A   1      40.063  36.101  38.179  1.00  0.00     0.198 A 
ATOM    119  C   UNL A   1      38.641  34.459  39.203  1.00  0.00     0.198 A 
ATOM    120  F   UNL A   1      38.197  32.434  38.091  1.00  0.00    -0.203 F 
ATOM    121  F   UNL A   1      40.693  37.282  38.226  1.00  0.00    -0.200 F 
ATOM    122  C   UNL A   1      39.271  35.694  39.244  1.00  0.00     0.200 A 
ATOM    123  F   UNL A   1      37.863  34.069  40.221  1.00  0.00    -0.200 F 
ATOM    124  F   UNL A   1      39.121  36.489  40.311  1.00  0.00    -0.200 F 
ENDBRANCH  86 114
BRANCH 101 125
ATOM    125  C   UNL A   1      43.832  28.733  35.398  1.00  0.00     0.064 A 
ATOM    126  C   UNL A   1      45.159  29.144  35.221  1.00  0.00     0.173 A 
ATOM    127  C   UNL A   1      43.574  27.709  36.321  1.00  0.00     0.173 A 
ATOM    128  F   UNL A   1      45.455  30.112  34.338  1.00  0.00    -0.203 F 
ATOM    129  C   UNL A   1      46.195  28.538  35.926  1.00  0.00     0.198 A 
ATOM    130  C   UNL A   1      44.609  27.123  37.044  1.00  0.00     0.198 A 
ATOM    131  F   UNL A   1      42.319  27.286  36.531  1.00  0.00    -0.203 F 
ATOM    132  F   UNL A   1      47.462  28.919  35.712  1.00  0.00    -0.200 F 
ATOM    133  C   UNL A   1      45.918  27.533  36.842  1.00  0.00     0.200 A 
ATOM    134  F   UNL A   1      44.339  26.159  37.936  1.00  0.00    -0.200 F 
ATOM    135  F   UNL A   1      46.915  26.954  37.525  1.00  0.00    -0.200 F 
ENDBRANCH 101 125
ENDBRANCH  66  69
ENDBRANCH  56  59
ENDBRANCH  52  55
ENDBRANCH  49  52
ENDBRANCH  46  49
ENDBRANCH   1  46
TORSDOF 17
ENDMDL
MODEL 4
REMARK VINA RESULT:     -13.2      0.298      7.120
REMARK SMILES Nn1c(S[C@@H](C(=O)NCCCCCCNC(=O)c2ccc(-c3c4nc(c(-c5c(F)c(F)c(F)c(F)c5F)c5ccc([nH]5)c(-c5c(F)c(F)c(F)c(F)c5F)c5nc(c(-c6c(F)c(F)c(F)c(F)c6F)c6ccc3[nH]6)C=C5)C=C4)cc2)c2ccccc2)nc2ccc(Br)cc2c1=O
REMARK SMILES IDX 11 1 10 4 9 7 8 10 6 11 7 12 5 14 4 16 3 17 2 18 95 19 87 20
REMARK SMILES IDX 94 21 96 22 88 23 93 24 89 25 91 26 90 28 92 30 1 32 81 35
REMARK SMILES IDX 82 36 86 37 83 38 85 40 84 42 12 46 13 49 14 52 15 55 16 56
REMARK SMILES IDX 17 58 18 59 19 60 80 61 20 62 79 64 21 66 22 69 23 70 73 71
REMARK SMILES IDX 24 72 78 73 72 74 74 75 25 76 77 77 71 79 70 81 26 83 58 86
REMARK SMILES IDX 38 87 57 88 39 89 42 90 56 91 75 92 40 93 41 95 55 97 76 98
REMARK SMILES IDX 43 101 27 103 28 104 36 105 29 106 30 107 34 108 37 109
REMARK SMILES IDX 31 110 32 111 35 112 33 113 59 114 60 115 68 116 61 117
REMARK SMILES IDX 62 118 66 119 69 120 63 121 64 122 67 123 65 124 44 125
REMARK SMILES IDX 45 126 53 127 46 128 47 129 51 130 54 131 48 132 49 133
REMARK SMILES IDX 52 134 50 135
REMARK H PARENT 11 2 11 3 10 5 10 6 9 8 9 9 8 13 5 15 93 27 89 29 90 31 1 33
REMARK H PARENT 1 34 82 39 86 41 83 43 85 44 84 45 12 47 12 48 13 50 13 51
REMARK H PARENT 14 53 14 54 15 57 19 63 80 65 20 67 79 68 78 78 72 80 74 82
REMARK H PARENT 77 84 71 85 39 94 42 96 75 99 40 100 76 102
REMARK Flexibility Score: inf
ROOT
ATOM      1  C   UNL A   1      33.157  30.142  27.422  1.00  0.00    -0.052 C 
ATOM      2  H   UNL A   1      33.738  31.005  27.672  1.00  0.00     0.027 H 
ATOM      3  H   UNL A   1      32.850  29.564  28.269  1.00  0.00     0.027 H 
ENDROOT
BRANCH   1   4
ATOM      4  C   UNL A   1      34.038  29.212  26.580  1.00  0.00    -0.036 C 
ATOM      5  H   UNL A   1      34.653  29.820  25.949  1.00  0.00     0.028 H 
ATOM      6  H   UNL A   1      34.593  28.620  27.276  1.00  0.00     0.028 H 
BRANCH   4   7
ATOM      7  C   UNL A   1      33.281  28.220  25.689  1.00  0.00     0.017 C 
ATOM      8  H   UNL A   1      33.737  27.257  25.782  1.00  0.00     0.049 H 
ATOM      9  H   UNL A   1      32.261  28.205  26.013  1.00  0.00     0.049 H 
BRANCH   7  10
ATOM     10  N   UNL A   1      33.292  28.608  24.289  1.00  0.00    -0.355 N 
ATOM     11  C   UNL A   1      32.273  28.730  23.379  1.00  0.00     0.238 C 
ATOM     12  O   UNL A   1      32.610  29.052  22.233  1.00  0.00    -0.273 OA
ATOM     13  H   UNL A   1      34.185  28.822  23.932  1.00  0.00     0.163 HD
BRANCH  11  14
ATOM     14  C   UNL A   1      30.802  28.525  23.786  1.00  0.00     0.116 C 
ATOM     15  H   UNL A   1      30.856  28.727  24.835  1.00  0.00     0.057 H 
BRANCH  14  16
ATOM     16  S   UNL A   1      30.226  26.827  23.628  1.00  0.00    -0.068 SA
BRANCH  16  17
ATOM     17  C   UNL A   1      31.532  25.701  23.411  1.00  0.00     0.191 A 
ATOM     18  N   UNL A   1      32.047  25.300  22.181  1.00  0.00    -0.202 N 
ATOM     19  C   UNL A   1      33.011  24.287  22.098  1.00  0.00     0.280 A 
ATOM     20  N   UNL A   1      32.064  25.334  24.536  1.00  0.00    -0.222 NA
ATOM     21  C   UNL A   1      33.688  23.942  23.357  1.00  0.00     0.069 A 
ATOM     22  O   UNL A   1      33.366  23.774  21.037  1.00  0.00    -0.267 OA
ATOM     23  C   UNL A   1      33.225  24.559  24.516  1.00  0.00     0.079 A 
ATOM     24  C   UNL A   1      34.852  23.168  23.361  1.00  0.00    -0.033 A 
ATOM     25  C   UNL A   1      33.979  24.449  25.686  1.00  0.00    -0.034 A 
ATOM     26  C   UNL A   1      35.589  23.062  24.538  1.00  0.00     0.018 A 
ATOM     27  H   UNL A   1      35.162  22.681  22.504  1.00  0.00     0.064 H 
ATOM     28  C   UNL A   1      35.168  23.714  25.697  1.00  0.00    -0.046 A 
ATOM     29  H   UNL A   1      33.657  24.914  26.549  1.00  0.00     0.065 H 
ATOM     30  Br  UNL A   1      37.197  22.072  24.555  1.00  0.00    -0.051 Br
ATOM     31  H   UNL A   1      35.732  23.655  26.559  1.00  0.00     0.064 H 
BRANCH  18  32
ATOM     32  N   UNL A   1      31.841  26.033  20.980  1.00  0.00    -0.334 N 
ATOM     33  H   UNL A   1      31.699  27.006  21.015  1.00  0.00     0.178 HD
ATOM     34  H   UNL A   1      31.838  25.565  20.113  1.00  0.00     0.178 HD
ENDBRANCH  18  32
ENDBRANCH  16  17
ENDBRANCH  14  16
BRANCH  14  35
ATOM     35  C   UNL A   1      29.781  29.578  23.352  1.00  0.00    -0.025 A 
ATOM     36  C   UNL A   1      28.972  29.310  22.228  1.00  0.00    -0.057 A 
ATOM     37  C   UNL A   1      29.591  30.808  24.000  1.00  0.00    -0.057 A 
ATOM     38  C   UNL A   1      28.011  30.225  21.788  1.00  0.00    -0.062 A 
ATOM     39  H   UNL A   1      29.092  28.419  21.722  1.00  0.00     0.063 H 
ATOM     40  C   UNL A   1      28.635  31.726  23.556  1.00  0.00    -0.062 A 
ATOM     41  H   UNL A   1      30.167  31.038  24.824  1.00  0.00     0.063 H 
ATOM     42  C   UNL A   1      27.845  31.436  22.450  1.00  0.00    -0.062 A 
ATOM     43  H   UNL A   1      27.425  30.001  20.968  1.00  0.00     0.062 H 
ATOM     44  H   UNL A   1      28.517  32.624  24.050  1.00  0.00     0.062 H 
ATOM     45  H   UNL A   1      27.138  32.113  22.124  1.00  0.00     0.062 H 
ENDBRANCH  14  35
ENDBRANCH  11  14
ENDBRANCH   7  10
ENDBRANCH   4   7
ENDBRANCH   1   4
BRANCH   1  46
ATOM     46  C   UNL A   1      31.866  30.621  26.754  1.00  0.00    -0.052 C 
ATOM     47  H   UNL A   1      31.044  30.136  27.236  1.00  0.00     0.027 H 
ATOM     48  H   UNL A   1      31.963  30.374  25.717  1.00  0.00     0.027 H 
BRANCH  46  49
ATOM     49  C   UNL A   1      31.623  32.129  26.808  1.00  0.00    -0.036 C 
ATOM     50  H   UNL A   1      30.818  32.312  27.489  1.00  0.00     0.028 H 
ATOM     51  H   UNL A   1      31.406  32.435  25.805  1.00  0.00     0.028 H 
BRANCH  49  52
ATOM     52  C   UNL A   1      32.821  32.955  27.258  1.00  0.00     0.018 C 
ATOM     53  H   UNL A   1      33.524  33.007  26.453  1.00  0.00     0.049 H 
ATOM     54  H   UNL A   1      33.240  32.477  28.118  1.00  0.00     0.049 H 
BRANCH  52  55
ATOM     55  N   UNL A   1      32.456  34.310  27.643  1.00  0.00    -0.352 N 
ATOM     56  C   UNL A   1      32.982  35.100  28.641  1.00  0.00     0.251 C 
ATOM     57  H   UNL A   1      31.732  34.719  27.116  1.00  0.00     0.163 HD
ATOM     58  O   UNL A   1      32.466  36.165  28.938  1.00  0.00    -0.269 OA
BRANCH  56  59
ATOM     59  C   UNL A   1      34.167  34.618  29.385  1.00  0.00     0.039 A 
ATOM     60  C   UNL A   1      35.445  34.736  28.833  1.00  0.00    -0.049 A 
ATOM     61  C   UNL A   1      33.986  33.996  30.622  1.00  0.00    -0.049 A 
ATOM     62  C   UNL A   1      36.516  34.085  29.435  1.00  0.00    -0.053 A 
ATOM     63  H   UNL A   1      35.593  35.304  27.984  1.00  0.00     0.063 H 
ATOM     64  C   UNL A   1      35.079  33.408  31.265  1.00  0.00    -0.053 A 
ATOM     65  H   UNL A   1      33.051  33.969  31.058  1.00  0.00     0.063 H 
ATOM     66  C   UNL A   1      36.343  33.407  30.653  1.00  0.00    -0.014 A 
ATOM     67  H   UNL A   1      37.445  34.101  28.985  1.00  0.00     0.063 H 
ATOM     68  H   UNL A   1      34.957  32.974  32.193  1.00  0.00     0.063 H 
BRANCH  66  69
ATOM     69  C   UNL A   1      37.493  32.699  31.273  1.00  0.00     0.031 A 
ATOM     70  C   UNL A   1      38.189  31.580  30.546  1.00  0.00     0.074 A 
ATOM     71  C   UNL A   1      37.930  33.090  32.485  1.00  0.00     0.049 A 
ATOM     72  N   UNL A   1      39.171  30.816  30.955  1.00  0.00    -0.248 NA
ATOM     73  C   UNL A   1      37.725  31.279  29.182  1.00  0.00    -0.034 C 
ATOM     74  C   UNL A   1      37.350  34.175  33.278  1.00  0.00    -0.036 A 
ATOM     75  N   UNL A   1      38.967  32.631  33.257  1.00  0.00    -0.354 N 
ATOM     76  C   UNL A   1      39.425  29.931  29.914  1.00  0.00     0.074 A 
ATOM     77  C   UNL A   1      38.488  30.243  28.856  1.00  0.00    -0.034 C 
ATOM     78  H   UNL A   1      36.997  31.750  28.624  1.00  0.00     0.065 H 
ATOM     79  C   UNL A   1      38.056  34.318  34.409  1.00  0.00    -0.036 A 
ATOM     80  H   UNL A   1      36.529  34.740  33.010  1.00  0.00     0.065 H 
ATOM     81  C   UNL A   1      39.097  33.295  34.451  1.00  0.00     0.049 A 
ATOM     82  H   UNL A   1      39.560  31.895  32.980  1.00  0.00     0.167 HD
ATOM     83  C   UNL A   1      40.359  28.954  29.850  1.00  0.00     0.037 A 
ATOM     84  H   UNL A   1      38.421  29.726  27.964  1.00  0.00     0.065 H 
ATOM     85  H   UNL A   1      37.890  35.035  35.133  1.00  0.00     0.065 H 
ATOM     86  C   UNL A   1      39.942  33.090  35.478  1.00  0.00     0.037 A 
ATOM     87  C   UNL A   1      41.308  28.664  30.894  1.00  0.00     0.049 A 
ATOM     88  C   UNL A   1      40.954  31.984  35.384  1.00  0.00     0.074 A 
ATOM     89  C   UNL A   1      42.295  27.692  30.917  1.00  0.00    -0.036 A 
ATOM     90  N   UNL A   1      41.398  29.351  32.095  1.00  0.00    -0.354 N 
ATOM     91  N   UNL A   1      41.169  31.143  34.404  1.00  0.00    -0.248 NA
ATOM     92  C   UNL A   1      41.839  31.798  36.542  1.00  0.00    -0.034 C 
ATOM     93  C   UNL A   1      42.960  27.770  32.144  1.00  0.00    -0.036 A 
ATOM     94  H   UNL A   1      42.502  27.023  30.159  1.00  0.00     0.065 H 
ATOM     95  C   UNL A   1      42.418  28.819  32.867  1.00  0.00     0.049 A 
ATOM     96  H   UNL A   1      40.820  30.103  32.359  1.00  0.00     0.167 HD
ATOM     97  C   UNL A   1      42.220  30.338  34.817  1.00  0.00     0.074 A 
ATOM     98  C   UNL A   1      42.614  30.804  36.129  1.00  0.00    -0.034 C 
ATOM     99  H   UNL A   1      41.853  32.305  37.441  1.00  0.00     0.065 H 
ATOM    100  H   UNL A   1      43.724  27.151  32.458  1.00  0.00     0.065 H 
ATOM    101  C   UNL A   1      42.804  29.303  34.167  1.00  0.00     0.037 A 
ATOM    102  H   UNL A   1      43.399  30.413  36.674  1.00  0.00     0.065 H 
BRANCH  83 103
ATOM    103  C   UNL A   1      40.416  28.106  28.613  1.00  0.00     0.064 A 
ATOM    104  C   UNL A   1      41.198  28.472  27.509  1.00  0.00     0.173 A 
ATOM    105  C   UNL A   1      39.768  26.862  28.576  1.00  0.00     0.173 A 
ATOM    106  F   UNL A   1      41.829  29.656  27.492  1.00  0.00    -0.203 F 
ATOM    107  C   UNL A   1      41.331  27.622  26.413  1.00  0.00     0.198 A 
ATOM    108  C   UNL A   1      39.920  26.005  27.490  1.00  0.00     0.198 A 
ATOM    109  F   UNL A   1      39.011  26.463  29.611  1.00  0.00    -0.203 F 
ATOM    110  F   UNL A   1      42.075  27.997  25.363  1.00  0.00    -0.200 F 
ATOM    111  C   UNL A   1      40.703  26.386  26.410  1.00  0.00     0.200 A 
ATOM    112  F   UNL A   1      39.322  24.806  27.493  1.00  0.00    -0.200 F 
ATOM    113  F   UNL A   1      40.853  25.559  25.366  1.00  0.00    -0.200 F 
ENDBRANCH  83 103
BRANCH  86 114
ATOM    114  C   UNL A   1      39.852  33.950  36.684  1.00  0.00     0.064 A 
ATOM    115  C   UNL A   1      40.578  35.145  36.774  1.00  0.00     0.173 A 
ATOM    116  C   UNL A   1      39.025  33.603  37.763  1.00  0.00     0.173 A 
ATOM    117  F   UNL A   1      41.397  35.508  35.777  1.00  0.00    -0.203 F 
ATOM    118  C   UNL A   1      40.487  35.957  37.903  1.00  0.00     0.198 A 
ATOM    119  C   UNL A   1      38.913  34.429  38.878  1.00  0.00     0.198 A 
ATOM    120  F   UNL A   1      38.309  32.470  37.722  1.00  0.00    -0.203 F 
ATOM    121  F   UNL A   1      41.219  37.077  37.981  1.00  0.00    -0.200 F 
ATOM    122  C   UNL A   1      39.648  35.602  38.950  1.00  0.00     0.200 A 
ATOM    123  F   UNL A   1      38.089  34.091  39.879  1.00  0.00    -0.200 F 
ATOM    124  F   UNL A   1      39.553  36.388  40.031  1.00  0.00    -0.200 F 
ENDBRANCH  86 114
BRANCH 101 125
ATOM    125  C   UNL A   1      43.954  28.625  34.849  1.00  0.00     0.064 A 
ATOM    126  C   UNL A   1      43.762  27.511  35.677  1.00  0.00     0.173 A 
ATOM    127  C   UNL A   1      45.267  29.071  34.636  1.00  0.00     0.173 A 
ATOM    128  F   UNL A   1      42.523  27.055  35.920  1.00  0.00    -0.203 F 
ATOM    129  C   UNL A   1      44.842  26.880  36.288  1.00  0.00     0.198 A 
ATOM    130  C   UNL A   1      46.346  28.422  35.228  1.00  0.00     0.198 A 
ATOM    131  F   UNL A   1      45.503  30.128  33.845  1.00  0.00    -0.203 F 
ATOM    132  F   UNL A   1      44.632  25.842  37.109  1.00  0.00    -0.200 F 
ATOM    133  C   UNL A   1      46.133  27.332  36.058  1.00  0.00     0.200 A 
ATOM    134  F   UNL A   1      47.595  28.853  34.996  1.00  0.00    -0.200 F 
ATOM    135  F   UNL A   1      47.173  26.720  36.641  1.00  0.00    -0.200 F 
ENDBRANCH 101 125
ENDBRANCH  66  69
ENDBRANCH  56  59
ENDBRANCH  52  55
ENDBRANCH  49  52
ENDBRANCH  46  49
ENDBRANCH   1  46
TORSDOF 17
ENDMDL
MODEL 5
REMARK VINA RESULT:     -13.1      5.694     11.343
REMARK SMILES Nn1c(S[C@@H](C(=O)NCCCCCCNC(=O)c2ccc(-c3c4nc(c(-c5c(F)c(F)c(F)c(F)c5F)c5ccc([nH]5)c(-c5c(F)c(F)c(F)c(F)c5F)c5nc(c(-c6c(F)c(F)c(F)c(F)c6F)c6ccc3[nH]6)C=C5)C=C4)cc2)c2ccccc2)nc2ccc(Br)cc2c1=O
REMARK SMILES IDX 11 1 10 4 9 7 8 10 6 11 7 12 5 14 4 16 3 17 2 18 95 19 87 20
REMARK SMILES IDX 94 21 96 22 88 23 93 24 89 25 91 26 90 28 92 30 1 32 81 35
REMARK SMILES IDX 82 36 86 37 83 38 85 40 84 42 12 46 13 49 14 52 15 55 16 56
REMARK SMILES IDX 17 58 18 59 19 60 80 61 20 62 79 64 21 66 22 69 23 70 73 71
REMARK SMILES IDX 24 72 78 73 72 74 74 75 25 76 77 77 71 79 70 81 26 83 58 86
REMARK SMILES IDX 38 87 57 88 39 89 42 90 56 91 75 92 40 93 41 95 55 97 76 98
REMARK SMILES IDX 43 101 27 103 28 104 36 105 29 106 30 107 34 108 37 109
REMARK SMILES IDX 31 110 32 111 35 112 33 113 59 114 60 115 68 116 61 117
REMARK SMILES IDX 62 118 66 119 69 120 63 121 64 122 67 123 65 124 44 125
REMARK SMILES IDX 45 126 53 127 46 128 47 129 51 130 54 131 48 132 49 133
REMARK SMILES IDX 52 134 50 135
REMARK H PARENT 11 2 11 3 10 5 10 6 9 8 9 9 8 13 5 15 93 27 89 29 90 31 1 33
REMARK H PARENT 1 34 82 39 86 41 83 43 85 44 84 45 12 47 12 48 13 50 13 51
REMARK H PARENT 14 53 14 54 15 57 19 63 80 65 20 67 79 68 78 78 72 80 74 82
REMARK H PARENT 77 84 71 85 39 94 42 96 75 99 40 100 76 102
REMARK Flexibility Score: inf
ROOT
ATOM      1  C   UNL A   1      38.208  22.340  25.702  1.00  0.00    -0.052 C 
ATOM      2  H   UNL A   1      38.351  21.994  26.704  1.00  0.00     0.027 H 
ATOM      3  H   UNL A   1      39.100  22.701  25.235  1.00  0.00     0.027 H 
ENDROOT
BRANCH   1   4
ATOM      4  C   UNL A   1      37.250  23.537  25.752  1.00  0.00    -0.036 C 
ATOM      5  H   UNL A   1      37.220  23.895  26.759  1.00  0.00     0.028 H 
ATOM      6  H   UNL A   1      37.633  24.251  25.054  1.00  0.00     0.028 H 
BRANCH   4   7
ATOM      7  C   UNL A   1      35.811  23.243  25.311  1.00  0.00     0.017 C 
ATOM      8  H   UNL A   1      35.326  24.168  25.082  1.00  0.00     0.049 H 
ATOM      9  H   UNL A   1      35.857  22.601  24.456  1.00  0.00     0.049 H 
BRANCH   7  10
ATOM     10  N   UNL A   1      35.044  22.557  26.337  1.00  0.00    -0.355 N 
ATOM     11  C   UNL A   1      34.118  21.548  26.247  1.00  0.00     0.238 C 
ATOM     12  O   UNL A   1      33.604  21.192  27.314  1.00  0.00    -0.273 OA
ATOM     13  H   UNL A   1      35.219  22.868  27.255  1.00  0.00     0.163 HD
BRANCH  11  14
ATOM     14  C   UNL A   1      33.789  20.876  24.901  1.00  0.00     0.116 C 
ATOM     15  H   UNL A   1      34.703  21.035  24.370  1.00  0.00     0.057 H 
BRANCH  14  16
ATOM     16  S   UNL A   1      32.505  21.715  23.957  1.00  0.00    -0.068 SA
BRANCH  16  17
ATOM     17  C   UNL A   1      32.009  23.209  24.694  1.00  0.00     0.191 A 
ATOM     18  N   UNL A   1      31.013  23.334  25.658  1.00  0.00    -0.202 N 
ATOM     19  C   UNL A   1      30.587  24.593  26.098  1.00  0.00     0.280 A 
ATOM     20  N   UNL A   1      32.743  24.213  24.323  1.00  0.00    -0.222 NA
ATOM     21  C   UNL A   1      31.473  25.720  25.766  1.00  0.00     0.069 A 
ATOM     22  O   UNL A   1      29.597  24.765  26.808  1.00  0.00    -0.267 OA
ATOM     23  C   UNL A   1      32.569  25.447  24.952  1.00  0.00     0.079 A 
ATOM     24  C   UNL A   1      31.318  26.965  26.384  1.00  0.00    -0.033 A 
ATOM     25  C   UNL A   1      33.560  26.420  24.807  1.00  0.00    -0.034 A 
ATOM     26  C   UNL A   1      32.312  27.927  26.223  1.00  0.00     0.018 A 
ATOM     27  H   UNL A   1      30.479  27.168  26.951  1.00  0.00     0.064 H 
ATOM     28  C   UNL A   1      33.442  27.654  25.452  1.00  0.00    -0.046 A 
ATOM     29  H   UNL A   1      34.386  26.226  24.220  1.00  0.00     0.065 H 
ATOM     30  Br  UNL A   1      32.156  29.595  27.095  1.00  0.00    -0.051 Br
ATOM     31  H   UNL A   1      34.188  28.361  25.358  1.00  0.00     0.064 H 
BRANCH  18  32
ATOM     32  N   UNL A   1      30.546  22.237  26.435  1.00  0.00    -0.334 N 
ATOM     33  H   UNL A   1      30.079  21.489  25.998  1.00  0.00     0.178 HD
ATOM     34  H   UNL A   1      30.689  22.229  27.409  1.00  0.00     0.178 HD
ENDBRANCH  18  32
ENDBRANCH  16  17
ENDBRANCH  14  16
BRANCH  14  35
ATOM     35  C   UNL A   1      33.703  19.350  24.860  1.00  0.00    -0.025 A 
ATOM     36  C   UNL A   1      34.858  18.619  24.512  1.00  0.00    -0.057 A 
ATOM     37  C   UNL A   1      32.542  18.617  25.147  1.00  0.00    -0.057 A 
ATOM     38  C   UNL A   1      34.849  17.221  24.469  1.00  0.00    -0.062 A 
ATOM     39  H   UNL A   1      35.727  19.126  24.286  1.00  0.00     0.063 H 
ATOM     40  C   UNL A   1      32.530  17.219  25.096  1.00  0.00    -0.062 A 
ATOM     41  H   UNL A   1      31.677  19.119  25.402  1.00  0.00     0.063 H 
ATOM     42  C   UNL A   1      33.683  16.521  24.758  1.00  0.00    -0.062 A 
ATOM     43  H   UNL A   1      35.710  16.709  24.221  1.00  0.00     0.062 H 
ATOM     44  H   UNL A   1      31.662  16.704  25.310  1.00  0.00     0.062 H 
ATOM     45  H   UNL A   1      33.675  15.490  24.722  1.00  0.00     0.062 H 
ENDBRANCH  14  35
ENDBRANCH  11  14
ENDBRANCH   7  10
ENDBRANCH   4   7
ENDBRANCH   1   4
BRANCH   1  46
ATOM     46  C   UNL A   1      37.746  21.152  24.855  1.00  0.00    -0.052 C 
ATOM     47  H   UNL A   1      37.815  21.433  23.826  1.00  0.00     0.027 H 
ATOM     48  H   UNL A   1      36.748  20.933  25.176  1.00  0.00     0.027 H 
BRANCH  46  49
ATOM     49  C   UNL A   1      38.543  19.863  25.048  1.00  0.00    -0.036 C 
ATOM     50  H   UNL A   1      39.052  19.647  24.131  1.00  0.00     0.028 H 
ATOM     51  H   UNL A   1      37.835  19.110  25.326  1.00  0.00     0.028 H 
BRANCH  49  52
ATOM     52  C   UNL A   1      39.579  19.910  26.163  1.00  0.00     0.018 C 
ATOM     53  H   UNL A   1      39.079  19.779  27.101  1.00  0.00     0.049 H 
ATOM     54  H   UNL A   1      40.072  20.858  26.108  1.00  0.00     0.049 H 
BRANCH  52  55
ATOM     55  N   UNL A   1      40.595  18.878  26.031  1.00  0.00    -0.352 N 
ATOM     56  C   UNL A   1      41.967  19.006  26.034  1.00  0.00     0.251 C 
ATOM     57  H   UNL A   1      40.256  17.961  25.923  1.00  0.00     0.163 HD
ATOM     58  O   UNL A   1      42.688  18.059  25.763  1.00  0.00    -0.269 OA
BRANCH  56  59
ATOM     59  C   UNL A   1      42.562  20.328  26.334  1.00  0.00     0.039 A 
ATOM     60  C   UNL A   1      42.537  20.836  27.635  1.00  0.00    -0.049 A 
ATOM     61  C   UNL A   1      43.100  21.082  25.290  1.00  0.00    -0.049 A 
ATOM     62  C   UNL A   1      42.895  22.161  27.860  1.00  0.00    -0.053 A 
ATOM     63  H   UNL A   1      42.256  20.232  28.423  1.00  0.00     0.063 H 
ATOM     64  C   UNL A   1      43.532  22.389  25.535  1.00  0.00    -0.053 A 
ATOM     65  H   UNL A   1      43.178  20.679  24.343  1.00  0.00     0.063 H 
ATOM     66  C   UNL A   1      43.388  22.954  26.812  1.00  0.00    -0.014 A 
ATOM     67  H   UNL A   1      42.798  22.564  28.806  1.00  0.00     0.063 H 
ATOM     68  H   UNL A   1      43.959  22.940  24.774  1.00  0.00     0.063 H 
BRANCH  66  69
ATOM     69  C   UNL A   1      43.746  24.373  27.065  1.00  0.00     0.031 A 
ATOM     70  C   UNL A   1      45.140  24.874  26.795  1.00  0.00     0.074 A 
ATOM     71  C   UNL A   1      42.800  25.221  27.512  1.00  0.00     0.049 A 
ATOM     72  N   UNL A   1      45.645  26.063  27.010  1.00  0.00    -0.248 NA
ATOM     73  C   UNL A   1      46.092  23.918  26.208  1.00  0.00    -0.034 C 
ATOM     74  C   UNL A   1      41.410  24.857  27.790  1.00  0.00    -0.036 A 
ATOM     75  N   UNL A   1      42.858  26.561  27.798  1.00  0.00    -0.354 N 
ATOM     76  C   UNL A   1      46.973  25.992  26.609  1.00  0.00     0.074 A 
ATOM     77  C   UNL A   1      47.203  24.640  26.147  1.00  0.00    -0.034 C 
ATOM     78  H   UNL A   1      45.936  22.940  25.919  1.00  0.00     0.065 H 
ATOM     79  C   UNL A   1      40.739  25.952  28.179  1.00  0.00    -0.036 A 
ATOM     80  H   UNL A   1      41.009  23.910  27.702  1.00  0.00     0.065 H 
ATOM     81  C   UNL A   1      41.665  27.079  28.238  1.00  0.00     0.049 A 
ATOM     82  H   UNL A   1      43.677  27.099  27.699  1.00  0.00     0.167 HD
ATOM     83  C   UNL A   1      47.909  26.970  26.621  1.00  0.00     0.037 A 
ATOM     84  H   UNL A   1      48.114  24.284  25.815  1.00  0.00     0.065 H 
ATOM     85  H   UNL A   1      39.732  25.991  28.400  1.00  0.00     0.065 H 
ATOM     86  C   UNL A   1      41.354  28.316  28.666  1.00  0.00     0.037 A 
ATOM     87  C   UNL A   1      47.669  28.322  27.055  1.00  0.00     0.049 A 
ATOM     88  C   UNL A   1      42.421  29.374  28.687  1.00  0.00     0.074 A 
ATOM     89  C   UNL A   1      48.558  29.384  27.102  1.00  0.00    -0.036 A 
ATOM     90  N   UNL A   1      46.450  28.804  27.507  1.00  0.00    -0.354 N 
ATOM     91  N   UNL A   1      43.676  29.287  28.325  1.00  0.00    -0.248 NA
ATOM     92  C   UNL A   1      42.026  30.701  29.179  1.00  0.00    -0.034 C 
ATOM     93  C   UNL A   1      47.885  30.498  27.611  1.00  0.00    -0.036 A 
ATOM     94  H   UNL A   1      49.548  29.357  26.811  1.00  0.00     0.065 H 
ATOM     95  C   UNL A   1      46.566  30.143  27.840  1.00  0.00     0.049 A 
ATOM     96  H   UNL A   1      45.625  28.271  27.582  1.00  0.00     0.167 HD
ATOM     97  C   UNL A   1      44.219  30.547  28.529  1.00  0.00     0.074 A 
ATOM     98  C   UNL A   1      43.151  31.387  29.029  1.00  0.00    -0.034 C 
ATOM     99  H   UNL A   1      41.115  31.016  29.546  1.00  0.00     0.065 H 
ATOM    100  H   UNL A   1      48.300  31.426  27.787  1.00  0.00     0.065 H 
ATOM    101  C   UNL A   1      45.490  30.968  28.325  1.00  0.00     0.037 A 
ATOM    102  H   UNL A   1      43.252  32.392  29.241  1.00  0.00     0.065 H 
BRANCH  83 103
ATOM    103  C   UNL A   1      49.295  26.632  26.157  1.00  0.00     0.064 A 
ATOM    104  C   UNL A   1      49.708  26.882  24.841  1.00  0.00     0.173 A 
ATOM    105  C   UNL A   1      50.251  26.155  27.067  1.00  0.00     0.173 A 
ATOM    106  F   UNL A   1      48.830  27.328  23.931  1.00  0.00    -0.203 F 
ATOM    107  C   UNL A   1      51.030  26.668  24.454  1.00  0.00     0.198 A 
ATOM    108  C   UNL A   1      51.575  25.963  26.683  1.00  0.00     0.198 A 
ATOM    109  F   UNL A   1      49.906  25.905  28.340  1.00  0.00    -0.203 F 
ATOM    110  F   UNL A   1      51.401  26.903  23.187  1.00  0.00    -0.200 F 
ATOM    111  C   UNL A   1      51.963  26.222  25.376  1.00  0.00     0.200 A 
ATOM    112  F   UNL A   1      52.478  25.543  27.579  1.00  0.00    -0.200 F 
ATOM    113  F   UNL A   1      53.239  26.042  25.008  1.00  0.00    -0.200 F 
ENDBRANCH  83 103
BRANCH  86 114
ATOM    114  C   UNL A   1      39.971  28.609  29.118  1.00  0.00     0.064 A 
ATOM    115  C   UNL A   1      39.013  29.115  28.230  1.00  0.00     0.173 A 
ATOM    116  C   UNL A   1      39.576  28.374  30.444  1.00  0.00     0.173 A 
ATOM    117  F   UNL A   1      39.350  29.376  26.959  1.00  0.00    -0.203 F 
ATOM    118  C   UNL A   1      37.713  29.383  28.653  1.00  0.00     0.198 A 
ATOM    119  C   UNL A   1      38.269  28.613  30.858  1.00  0.00     0.198 A 
ATOM    120  F   UNL A   1      40.456  27.887  31.330  1.00  0.00    -0.203 F 
ATOM    121  F   UNL A   1      36.824  29.900  27.793  1.00  0.00    -0.200 F 
ATOM    122  C   UNL A   1      37.339  29.124  29.963  1.00  0.00     0.200 A 
ATOM    123  F   UNL A   1      37.909  28.346  32.120  1.00  0.00    -0.200 F 
ATOM    124  F   UNL A   1      36.086  29.370  30.367  1.00  0.00    -0.200 F 
ENDBRANCH  86 114
BRANCH 101 125
ATOM    125  C   UNL A   1      45.790  32.410  28.607  1.00  0.00     0.064 A 
ATOM    126  C   UNL A   1      46.264  32.829  29.858  1.00  0.00     0.173 A 
ATOM    127  C   UNL A   1      45.640  33.374  27.601  1.00  0.00     0.173 A 
ATOM    128  F   UNL A   1      46.412  31.943  30.856  1.00  0.00    -0.203 F 
ATOM    129  C   UNL A   1      46.556  34.168  30.099  1.00  0.00     0.198 A 
ATOM    130  C   UNL A   1      45.957  34.709  27.837  1.00  0.00     0.198 A 
ATOM    131  F   UNL A   1      45.196  33.021  26.385  1.00  0.00    -0.203 F 
ATOM    132  F   UNL A   1      46.970  34.554  31.314  1.00  0.00    -0.200 F 
ATOM    133  C   UNL A   1      46.409  35.105  29.087  1.00  0.00     0.200 A 
ATOM    134  F   UNL A   1      45.825  35.612  26.855  1.00  0.00    -0.200 F 
ATOM    135  F   UNL A   1      46.697  36.394  29.318  1.00  0.00    -0.200 F 
ENDBRANCH 101 125
ENDBRANCH  66  69
ENDBRANCH  56  59
ENDBRANCH  52  55
ENDBRANCH  49  52
ENDBRANCH  46  49
ENDBRANCH   1  46
TORSDOF 17
ENDMDL
MODEL 6
REMARK VINA RESULT:     -13.1      5.289     10.440
REMARK SMILES Nn1c(S[C@@H](C(=O)NCCCCCCNC(=O)c2ccc(-c3c4nc(c(-c5c(F)c(F)c(F)c(F)c5F)c5ccc([nH]5)c(-c5c(F)c(F)c(F)c(F)c5F)c5nc(c(-c6c(F)c(F)c(F)c(F)c6F)c6ccc3[nH]6)C=C5)C=C4)cc2)c2ccccc2)nc2ccc(Br)cc2c1=O
REMARK SMILES IDX 11 1 10 4 9 7 8 10 6 11 7 12 5 14 4 16 3 17 2 18 95 19 87 20
REMARK SMILES IDX 94 21 96 22 88 23 93 24 89 25 91 26 90 28 92 30 1 32 81 35
REMARK SMILES IDX 82 36 86 37 83 38 85 40 84 42 12 46 13 49 14 52 15 55 16 56
REMARK SMILES IDX 17 58 18 59 19 60 80 61 20 62 79 64 21 66 22 69 23 70 73 71
REMARK SMILES IDX 24 72 78 73 72 74 74 75 25 76 77 77 71 79 70 81 26 83 58 86
REMARK SMILES IDX 38 87 57 88 39 89 42 90 56 91 75 92 40 93 41 95 55 97 76 98
REMARK SMILES IDX 43 101 27 103 28 104 36 105 29 106 30 107 34 108 37 109
REMARK SMILES IDX 31 110 32 111 35 112 33 113 59 114 60 115 68 116 61 117
REMARK SMILES IDX 62 118 66 119 69 120 63 121 64 122 67 123 65 124 44 125
REMARK SMILES IDX 45 126 53 127 46 128 47 129 51 130 54 131 48 132 49 133
REMARK SMILES IDX 52 134 50 135
REMARK H PARENT 11 2 11 3 10 5 10 6 9 8 9 9 8 13 5 15 93 27 89 29 90 31 1 33
REMARK H PARENT 1 34 82 39 86 41 83 43 85 44 84 45 12 47 12 48 13 50 13 51
REMARK H PARENT 14 53 14 54 15 57 19 63 80 65 20 67 79 68 78 78 72 80 74 82
REMARK H PARENT 77 84 71 85 39 94 42 96 75 99 40 100 76 102
REMARK Flexibility Score: inf
ROOT
ATOM      1  C   UNL A   1      35.799  21.618  24.623  1.00  0.00    -0.052 C 
ATOM      2  H   UNL A   1      35.433  22.340  23.924  1.00  0.00     0.027 H 
ATOM      3  H   UNL A   1      35.288  20.679  24.586  1.00  0.00     0.027 H 
ENDROOT
BRANCH   1   4
ATOM      4  C   UNL A   1      35.559  22.168  26.035  1.00  0.00    -0.036 C 
ATOM      5  H   UNL A   1      34.573  21.884  26.337  1.00  0.00     0.028 H 
ATOM      6  H   UNL A   1      36.331  21.754  26.648  1.00  0.00     0.028 H 
BRANCH   4   7
ATOM      7  C   UNL A   1      35.677  23.690  26.174  1.00  0.00     0.017 C 
ATOM      8  H   UNL A   1      35.039  24.012  26.970  1.00  0.00     0.049 H 
ATOM      9  H   UNL A   1      36.703  23.920  26.375  1.00  0.00     0.049 H 
BRANCH   7  10
ATOM     10  N   UNL A   1      35.297  24.391  24.959  1.00  0.00    -0.355 N 
ATOM     11  C   UNL A   1      34.149  25.067  24.630  1.00  0.00     0.238 C 
ATOM     12  O   UNL A   1      34.110  25.537  23.487  1.00  0.00    -0.273 OA
ATOM     13  H   UNL A   1      35.980  24.380  24.251  1.00  0.00     0.163 HD
BRANCH  11  14
ATOM     14  C   UNL A   1      33.012  25.265  25.649  1.00  0.00     0.116 C 
ATOM     15  H   UNL A   1      33.407  24.742  26.494  1.00  0.00     0.057 H 
BRANCH  14  16
ATOM     16  S   UNL A   1      31.479  24.430  25.210  1.00  0.00    -0.068 SA
BRANCH  16  17
ATOM     17  C   UNL A   1      31.755  22.874  24.486  1.00  0.00     0.191 A 
ATOM     18  N   UNL A   1      31.893  22.639  23.121  1.00  0.00    -0.202 N 
ATOM     19  C   UNL A   1      31.980  21.336  22.617  1.00  0.00     0.280 A 
ATOM     20  N   UNL A   1      31.926  21.938  25.369  1.00  0.00    -0.222 NA
ATOM     21  C   UNL A   1      32.276  20.286  23.605  1.00  0.00     0.069 A 
ATOM     22  O   UNL A   1      31.922  21.066  21.418  1.00  0.00    -0.267 OA
ATOM     23  C   UNL A   1      32.317  20.668  24.943  1.00  0.00     0.079 A 
ATOM     24  C   UNL A   1      32.670  19.007  23.200  1.00  0.00    -0.033 A 
ATOM     25  C   UNL A   1      32.824  19.770  25.885  1.00  0.00    -0.034 A 
ATOM     26  C   UNL A   1      33.166  18.121  24.154  1.00  0.00     0.018 A 
ATOM     27  H   UNL A   1      32.594  18.723  22.210  1.00  0.00     0.064 H 
ATOM     28  C   UNL A   1      33.262  18.502  25.492  1.00  0.00    -0.046 A 
ATOM     29  H   UNL A   1      32.876  20.045  26.878  1.00  0.00     0.065 H 
ATOM     30  Br  UNL A   1      33.761  16.408  23.625  1.00  0.00    -0.051 Br
ATOM     31  H   UNL A   1      33.656  17.852  26.189  1.00  0.00     0.064 H 
BRANCH  18  32
ATOM     32  N   UNL A   1      32.206  23.666  22.187  1.00  0.00    -0.334 N 
ATOM     33  H   UNL A   1      33.146  23.879  21.987  1.00  0.00     0.178 HD
ATOM     34  H   UNL A   1      31.482  24.163  21.742  1.00  0.00     0.178 HD
ENDBRANCH  18  32
ENDBRANCH  16  17
ENDBRANCH  14  16
BRANCH  14  35
ATOM     35  C   UNL A   1      32.818  26.658  26.251  1.00  0.00    -0.025 A 
ATOM     36  C   UNL A   1      33.901  27.561  26.226  1.00  0.00    -0.057 A 
ATOM     37  C   UNL A   1      31.623  27.107  26.833  1.00  0.00    -0.057 A 
ATOM     38  C   UNL A   1      33.785  28.853  26.748  1.00  0.00    -0.062 A 
ATOM     39  H   UNL A   1      34.798  27.261  25.814  1.00  0.00     0.063 H 
ATOM     40  C   UNL A   1      31.508  28.396  27.361  1.00  0.00    -0.062 A 
ATOM     41  H   UNL A   1      30.810  26.472  26.870  1.00  0.00     0.063 H 
ATOM     42  C   UNL A   1      32.588  29.270  27.318  1.00  0.00    -0.062 A 
ATOM     43  H   UNL A   1      34.590  29.497  26.709  1.00  0.00     0.062 H 
ATOM     44  H   UNL A   1      30.618  28.701  27.785  1.00  0.00     0.062 H 
ATOM     45  H   UNL A   1      32.502  30.222  27.707  1.00  0.00     0.062 H 
ENDBRANCH  14  35
ENDBRANCH  11  14
ENDBRANCH   7  10
ENDBRANCH   4   7
ENDBRANCH   1   4
BRANCH   1  46
ATOM     46  C   UNL A   1      37.256  21.315  24.266  1.00  0.00    -0.052 C 
ATOM     47  H   UNL A   1      37.841  22.177  24.505  1.00  0.00     0.027 H 
ATOM     48  H   UNL A   1      37.259  21.068  23.225  1.00  0.00     0.027 H 
BRANCH  46  49
ATOM     49  C   UNL A   1      37.869  20.114  24.986  1.00  0.00    -0.036 C 
ATOM     50  H   UNL A   1      38.182  19.406  24.246  1.00  0.00     0.028 H 
ATOM     51  H   UNL A   1      37.110  19.735  25.639  1.00  0.00     0.028 H 
BRANCH  49  52
ATOM     52  C   UNL A   1      39.068  20.439  25.867  1.00  0.00     0.018 C 
ATOM     53  H   UNL A   1      38.721  20.632  26.861  1.00  0.00     0.049 H 
ATOM     54  H   UNL A   1      39.558  21.291  25.447  1.00  0.00     0.049 H 
BRANCH  52  55
ATOM     55  N   UNL A   1      40.038  19.356  25.917  1.00  0.00    -0.352 N 
ATOM     56  C   UNL A   1      41.404  19.420  26.091  1.00  0.00     0.251 C 
ATOM     57  H   UNL A   1      39.667  18.450  25.812  1.00  0.00     0.163 HD
ATOM     58  O   UNL A   1      42.102  18.429  25.961  1.00  0.00    -0.269 OA
BRANCH  56  59
ATOM     59  C   UNL A   1      42.024  20.728  26.398  1.00  0.00     0.039 A 
ATOM     60  C   UNL A   1      42.282  21.095  27.722  1.00  0.00    -0.049 A 
ATOM     61  C   UNL A   1      42.299  21.613  25.354  1.00  0.00    -0.049 A 
ATOM     62  C   UNL A   1      42.655  22.403  28.011  1.00  0.00    -0.053 A 
ATOM     63  H   UNL A   1      42.197  20.399  28.479  1.00  0.00     0.063 H 
ATOM     64  C   UNL A   1      42.748  22.904  25.643  1.00  0.00    -0.053 A 
ATOM     65  H   UNL A   1      42.170  21.315  24.374  1.00  0.00     0.063 H 
ATOM     66  C   UNL A   1      42.884  23.324  26.976  1.00  0.00    -0.014 A 
ATOM     67  H   UNL A   1      42.765  22.699  28.994  1.00  0.00     0.063 H 
ATOM     68  H   UNL A   1      42.982  23.551  24.874  1.00  0.00     0.063 H 
BRANCH  66  69
ATOM     69  C   UNL A   1      43.262  24.723  27.303  1.00  0.00     0.031 A 
ATOM     70  C   UNL A   1      44.659  25.221  27.046  1.00  0.00     0.074 A 
ATOM     71  C   UNL A   1      42.331  25.556  27.804  1.00  0.00     0.049 A 
ATOM     72  N   UNL A   1      45.181  26.391  27.320  1.00  0.00    -0.248 NA
ATOM     73  C   UNL A   1      45.594  24.288  26.398  1.00  0.00    -0.034 C 
ATOM     74  C   UNL A   1      40.938  25.194  28.076  1.00  0.00    -0.036 A 
ATOM     75  N   UNL A   1      42.408  26.877  28.162  1.00  0.00    -0.354 N 
ATOM     76  C   UNL A   1      46.504  26.327  26.902  1.00  0.00     0.074 A 
ATOM     77  C   UNL A   1      46.713  24.999  26.365  1.00  0.00    -0.034 C 
ATOM     78  H   UNL A   1      45.423  23.329  26.057  1.00  0.00     0.065 H 
ATOM     79  C   UNL A   1      40.285  26.273  28.530  1.00  0.00    -0.036 A 
ATOM     80  H   UNL A   1      40.526  24.258  27.941  1.00  0.00     0.065 H 
ATOM     81  C   UNL A   1      41.226  27.385  28.642  1.00  0.00     0.049 A 
ATOM     82  H   UNL A   1      43.232  27.410  28.085  1.00  0.00     0.167 HD
ATOM     83  C   UNL A   1      47.452  27.292  26.958  1.00  0.00     0.037 A 
ATOM     84  H   UNL A   1      47.616  24.651  26.005  1.00  0.00     0.065 H 
ATOM     85  H   UNL A   1      39.280  26.312  28.764  1.00  0.00     0.065 H 
ATOM     86  C   UNL A   1      40.934  28.601  29.140  1.00  0.00     0.037 A 
ATOM     87  C   UNL A   1      47.233  28.621  27.467  1.00  0.00     0.049 A 
ATOM     88  C   UNL A   1      42.013  29.643  29.207  1.00  0.00     0.074 A 
ATOM     89  C   UNL A   1      48.135  29.667  27.562  1.00  0.00    -0.036 A 
ATOM     90  N   UNL A   1      46.024  29.091  27.957  1.00  0.00    -0.354 N 
ATOM     91  N   UNL A   1      43.264  29.561  28.828  1.00  0.00    -0.248 NA
ATOM     92  C   UNL A   1      41.640  30.946  29.775  1.00  0.00    -0.034 C 
ATOM     93  C   UNL A   1      47.480  30.760  28.138  1.00  0.00    -0.036 A 
ATOM     94  H   UNL A   1      49.121  29.645  27.261  1.00  0.00     0.065 H 
ATOM     95  C   UNL A   1      46.159  30.409  28.361  1.00  0.00     0.049 A 
ATOM     96  H   UNL A   1      45.193  28.565  28.011  1.00  0.00     0.167 HD
ATOM     97  C   UNL A   1      43.824  30.802  29.095  1.00  0.00     0.074 A 
ATOM     98  C   UNL A   1      42.771  31.626  29.650  1.00  0.00    -0.034 C 
ATOM     99  H   UNL A   1      40.735  31.251  30.167  1.00  0.00     0.065 H 
ATOM    100  H   UNL A   1      47.908  31.673  28.360  1.00  0.00     0.065 H 
ATOM    101  C   UNL A   1      45.098  31.218  28.901  1.00  0.00     0.037 A 
ATOM    102  H   UNL A   1      42.887  32.616  29.916  1.00  0.00     0.065 H 
BRANCH  83 103
ATOM    103  C   UNL A   1      48.829  26.963  26.462  1.00  0.00     0.064 A 
ATOM    104  C   UNL A   1      49.797  26.400  27.305  1.00  0.00     0.173 A 
ATOM    105  C   UNL A   1      49.147  27.112  25.103  1.00  0.00     0.173 A 
ATOM    106  F   UNL A   1      49.545  26.246  28.613  1.00  0.00    -0.203 F 
ATOM    107  C   UNL A   1      51.033  25.995  26.805  1.00  0.00     0.198 A 
ATOM    108  C   UNL A   1      50.375  26.687  24.602  1.00  0.00     0.198 A 
ATOM    109  F   UNL A   1      48.253  27.642  24.253  1.00  0.00    -0.203 F 
ATOM    110  F   UNL A   1      51.948  25.469  27.631  1.00  0.00    -0.200 F 
ATOM    111  C   UNL A   1      51.316  26.127  25.454  1.00  0.00     0.200 A 
ATOM    112  F   UNL A   1      50.642  26.805  23.294  1.00  0.00    -0.200 F 
ATOM    113  F   UNL A   1      52.495  25.714  24.971  1.00  0.00    -0.200 F 
ENDBRANCH  83 103
BRANCH  86 114
ATOM    114  C   UNL A   1      39.559  28.885  29.621  1.00  0.00     0.064 A 
ATOM    115  C   UNL A   1      39.188  28.616  30.945  1.00  0.00     0.173 A 
ATOM    116  C   UNL A   1      38.594  29.446  28.771  1.00  0.00     0.173 A 
ATOM    117  F   UNL A   1      40.070  28.060  31.788  1.00  0.00    -0.203 F 
ATOM    118  C   UNL A   1      37.899  28.890  31.400  1.00  0.00     0.198 A 
ATOM    119  C   UNL A   1      37.316  29.747  29.234  1.00  0.00     0.198 A 
ATOM    120  F   UNL A   1      38.902  29.723  27.497  1.00  0.00    -0.203 F 
ATOM    121  F   UNL A   1      37.558  28.592  32.660  1.00  0.00    -0.200 F 
ATOM    122  C   UNL A   1      36.967  29.463  30.546  1.00  0.00     0.200 A 
ATOM    123  F   UNL A   1      36.425  30.315  28.411  1.00  0.00    -0.200 F 
ATOM    124  F   UNL A   1      35.732  29.737  30.986  1.00  0.00    -0.200 F 
ENDBRANCH  86 114
BRANCH 101 125
ATOM    125  C   UNL A   1      45.418  32.639  29.259  1.00  0.00     0.064 A 
ATOM    126  C   UNL A   1      45.919  32.982  30.522  1.00  0.00     0.173 A 
ATOM    127  C   UNL A   1      45.261  33.660  28.310  1.00  0.00     0.173 A 
ATOM    128  F   UNL A   1      46.074  32.040  31.466  1.00  0.00    -0.203 F 
ATOM    129  C   UNL A   1      46.229  34.303  30.832  1.00  0.00     0.198 A 
ATOM    130  C   UNL A   1      45.597  34.976  28.616  1.00  0.00     0.198 A 
ATOM    131  F   UNL A   1      44.792  33.380  27.085  1.00  0.00    -0.203 F 
ATOM    132  F   UNL A   1      46.668  34.616  32.059  1.00  0.00    -0.200 F 
ATOM    133  C   UNL A   1      46.074  35.297  29.877  1.00  0.00     0.200 A 
ATOM    134  F   UNL A   1      45.457  35.934  27.688  1.00  0.00    -0.200 F 
ATOM    135  F   UNL A   1      46.380  36.568  30.175  1.00  0.00    -0.200 F 
ENDBRANCH 101 125
ENDBRANCH  66  69
ENDBRANCH  56  59
ENDBRANCH  52  55
ENDBRANCH  49  52
ENDBRANCH  46  49
ENDBRANCH   1  46
TORSDOF 17
ENDMDL
MODEL 7
REMARK VINA RESULT:     -13.0      5.485     11.113
REMARK SMILES Nn1c(S[C@@H](C(=O)NCCCCCCNC(=O)c2ccc(-c3c4nc(c(-c5c(F)c(F)c(F)c(F)c5F)c5ccc([nH]5)c(-c5c(F)c(F)c(F)c(F)c5F)c5nc(c(-c6c(F)c(F)c(F)c(F)c6F)c6ccc3[nH]6)C=C5)C=C4)cc2)c2ccccc2)nc2ccc(Br)cc2c1=O
REMARK SMILES IDX 11 1 10 4 9 7 8 10 6 11 7 12 5 14 4 16 3 17 2 18 95 19 87 20
REMARK SMILES IDX 94 21 96 22 88 23 93 24 89 25 91 26 90 28 92 30 1 32 81 35
REMARK SMILES IDX 82 36 86 37 83 38 85 40 84 42 12 46 13 49 14 52 15 55 16 56
REMARK SMILES IDX 17 58 18 59 19 60 80 61 20 62 79 64 21 66 22 69 23 70 73 71
REMARK SMILES IDX 24 72 78 73 72 74 74 75 25 76 77 77 71 79 70 81 26 83 58 86
REMARK SMILES IDX 38 87 57 88 39 89 42 90 56 91 75 92 40 93 41 95 55 97 76 98
REMARK SMILES IDX 43 101 27 103 28 104 36 105 29 106 30 107 34 108 37 109
REMARK SMILES IDX 31 110 32 111 35 112 33 113 59 114 60 115 68 116 61 117
REMARK SMILES IDX 62 118 66 119 69 120 63 121 64 122 67 123 65 124 44 125
REMARK SMILES IDX 45 126 53 127 46 128 47 129 51 130 54 131 48 132 49 133
REMARK SMILES IDX 52 134 50 135
REMARK H PARENT 11 2 11 3 10 5 10 6 9 8 9 9 8 13 5 15 93 27 89 29 90 31 1 33
REMARK H PARENT 1 34 82 39 86 41 83 43 85 44 84 45 12 47 12 48 13 50 13 51
REMARK H PARENT 14 53 14 54 15 57 19 63 80 65 20 67 79 68 78 78 72 80 74 82
REMARK H PARENT 77 84 71 85 39 94 42 96 75 99 40 100 76 102
REMARK Flexibility Score: inf
ROOT
ATOM      1  C   UNL A   1      37.964  22.577  25.263  1.00  0.00    -0.052 C 
ATOM      2  H   UNL A   1      38.793  22.328  25.892  1.00  0.00     0.027 H 
ATOM      3  H   UNL A   1      38.222  23.191  24.426  1.00  0.00     0.027 H 
ENDROOT
BRANCH   1   4
ATOM      4  C   UNL A   1      36.974  23.400  26.096  1.00  0.00    -0.036 C 
ATOM      5  H   UNL A   1      36.963  22.998  27.088  1.00  0.00     0.028 H 
ATOM      6  H   UNL A   1      37.317  24.412  26.048  1.00  0.00     0.028 H 
BRANCH   4   7
ATOM      7  C   UNL A   1      35.532  23.415  25.575  1.00  0.00     0.017 C 
ATOM      8  H   UNL A   1      35.171  24.422  25.592  1.00  0.00     0.049 H 
ATOM      9  H   UNL A   1      35.542  23.017  24.581  1.00  0.00     0.049 H 
BRANCH   7  10
ATOM     10  N   UNL A   1      34.644  22.587  26.373  1.00  0.00    -0.355 N 
ATOM     11  C   UNL A   1      33.718  21.644  26.004  1.00  0.00     0.238 C 
ATOM     12  O   UNL A   1      33.081  21.125  26.929  1.00  0.00    -0.273 OA
ATOM     13  H   UNL A   1      34.719  22.726  27.345  1.00  0.00     0.163 HD
BRANCH  11  14
ATOM     14  C   UNL A   1      33.531  21.232  24.532  1.00  0.00     0.116 C 
ATOM     15  H   UNL A   1      34.452  21.576  24.110  1.00  0.00     0.057 H 
BRANCH  14  16
ATOM     16  S   UNL A   1      32.221  22.125  23.680  1.00  0.00    -0.068 SA
BRANCH  16  17
ATOM     17  C   UNL A   1      31.821  23.624  24.464  1.00  0.00     0.191 A 
ATOM     18  N   UNL A   1      30.825  23.784  25.423  1.00  0.00    -0.202 N 
ATOM     19  C   UNL A   1      30.483  25.055  25.903  1.00  0.00     0.280 A 
ATOM     20  N   UNL A   1      32.627  24.586  24.136  1.00  0.00    -0.222 NA
ATOM     21  C   UNL A   1      31.448  26.128  25.619  1.00  0.00     0.069 A 
ATOM     22  O   UNL A   1      29.500  25.271  26.611  1.00  0.00    -0.267 OA
ATOM     23  C   UNL A   1      32.532  25.808  24.806  1.00  0.00     0.079 A 
ATOM     24  C   UNL A   1      31.373  27.358  26.279  1.00  0.00    -0.033 A 
ATOM     25  C   UNL A   1      33.589  26.713  24.704  1.00  0.00    -0.034 A 
ATOM     26  C   UNL A   1      32.433  28.254  26.160  1.00  0.00     0.018 A 
ATOM     27  H   UNL A   1      30.544  27.600  26.846  1.00  0.00     0.064 H 
ATOM     28  C   UNL A   1      33.550  27.930  25.390  1.00  0.00    -0.046 A 
ATOM     29  H   UNL A   1      34.406  26.483  24.117  1.00  0.00     0.065 H 
ATOM     30  Br  UNL A   1      32.383  29.898  27.089  1.00  0.00    -0.051 Br
ATOM     31  H   UNL A   1      34.344  28.585  25.328  1.00  0.00     0.064 H 
BRANCH  18  32
ATOM     32  N   UNL A   1      30.275  22.697  26.157  1.00  0.00    -0.334 N 
ATOM     33  H   UNL A   1      30.797  22.275  26.877  1.00  0.00     0.178 HD
ATOM     34  H   UNL A   1      29.372  22.367  25.943  1.00  0.00     0.178 HD
ENDBRANCH  18  32
ENDBRANCH  16  17
ENDBRANCH  14  16
BRANCH  14  35
ATOM     35  C   UNL A   1      33.605  19.744  24.186  1.00  0.00    -0.025 A 
ATOM     36  C   UNL A   1      32.592  19.188  23.378  1.00  0.00    -0.057 A 
ATOM     37  C   UNL A   1      34.623  18.882  24.622  1.00  0.00    -0.057 A 
ATOM     38  C   UNL A   1      32.609  17.837  23.014  1.00  0.00    -0.062 A 
ATOM     39  H   UNL A   1      31.824  19.791  23.047  1.00  0.00     0.063 H 
ATOM     40  C   UNL A   1      34.636  17.530  24.266  1.00  0.00    -0.062 A 
ATOM     41  H   UNL A   1      35.379  19.254  25.218  1.00  0.00     0.063 H 
ATOM     42  C   UNL A   1      33.630  17.007  23.462  1.00  0.00    -0.062 A 
ATOM     43  H   UNL A   1      31.861  17.458  22.414  1.00  0.00     0.062 H 
ATOM     44  H   UNL A   1      35.396  16.917  24.602  1.00  0.00     0.062 H 
ATOM     45  H   UNL A   1      33.641  16.010  23.197  1.00  0.00     0.062 H 
ENDBRANCH  14  35
ENDBRANCH  11  14
ENDBRANCH   7  10
ENDBRANCH   4   7
ENDBRANCH   1   4
BRANCH   1  46
ATOM     46  C   UNL A   1      37.416  21.276  24.672  1.00  0.00    -0.052 C 
ATOM     47  H   UNL A   1      37.348  21.398  23.611  1.00  0.00     0.027 H 
ATOM     48  H   UNL A   1      36.471  21.112  25.147  1.00  0.00     0.027 H 
BRANCH  46  49
ATOM     49  C   UNL A   1      38.251  20.027  24.952  1.00  0.00    -0.036 C 
ATOM     50  H   UNL A   1      38.729  19.735  24.040  1.00  0.00     0.028 H 
ATOM     51  H   UNL A   1      37.572  19.290  25.329  1.00  0.00     0.028 H 
BRANCH  49  52
ATOM     52  C   UNL A   1      39.327  20.202  26.015  1.00  0.00     0.018 C 
ATOM     53  H   UNL A   1      38.861  20.198  26.979  1.00  0.00     0.049 H 
ATOM     54  H   UNL A   1      39.827  21.128  25.822  1.00  0.00     0.049 H 
BRANCH  52  55
ATOM     55  N   UNL A   1      40.328  19.147  25.980  1.00  0.00    -0.352 N 
ATOM     56  C   UNL A   1      41.699  19.248  26.075  1.00  0.00     0.251 C 
ATOM     57  H   UNL A   1      39.977  18.233  25.873  1.00  0.00     0.163 HD
ATOM     58  O   UNL A   1      42.416  18.280  25.878  1.00  0.00    -0.269 OA
BRANCH  56  59
ATOM     59  C   UNL A   1      42.300  20.565  26.380  1.00  0.00     0.039 A 
ATOM     60  C   UNL A   1      42.437  20.990  27.704  1.00  0.00    -0.049 A 
ATOM     61  C   UNL A   1      42.679  21.400  25.327  1.00  0.00    -0.049 A 
ATOM     62  C   UNL A   1      42.794  22.308  27.968  1.00  0.00    -0.053 A 
ATOM     63  H   UNL A   1      42.276  20.330  28.481  1.00  0.00     0.063 H 
ATOM     64  C   UNL A   1      43.111  22.701  25.599  1.00  0.00    -0.053 A 
ATOM     65  H   UNL A   1      42.639  21.059  24.354  1.00  0.00     0.063 H 
ATOM     66  C   UNL A   1      43.126  23.180  26.918  1.00  0.00    -0.014 A 
ATOM     67  H   UNL A   1      42.815  22.648  28.942  1.00  0.00     0.063 H 
ATOM     68  H   UNL A   1      43.421  23.311  24.827  1.00  0.00     0.063 H 
BRANCH  66  69
ATOM     69  C   UNL A   1      43.484  24.591  27.216  1.00  0.00     0.031 A 
ATOM     70  C   UNL A   1      44.873  25.104  26.945  1.00  0.00     0.074 A 
ATOM     71  C   UNL A   1      42.542  25.420  27.703  1.00  0.00     0.049 A 
ATOM     72  N   UNL A   1      45.379  26.287  27.194  1.00  0.00    -0.248 NA
ATOM     73  C   UNL A   1      45.820  24.171  26.313  1.00  0.00    -0.034 C 
ATOM     74  C   UNL A   1      41.156  25.043  27.987  1.00  0.00    -0.036 A 
ATOM     75  N   UNL A   1      42.601  26.749  28.035  1.00  0.00    -0.354 N 
ATOM     76  C   UNL A   1      46.702  26.233  26.774  1.00  0.00     0.074 A 
ATOM     77  C   UNL A   1      46.929  24.898  26.263  1.00  0.00    -0.034 C 
ATOM     78  H   UNL A   1      45.662  23.204  25.993  1.00  0.00     0.065 H 
ATOM     79  C   UNL A   1      40.489  26.122  28.421  1.00  0.00    -0.036 A 
ATOM     80  H   UNL A   1      40.757  24.099  27.871  1.00  0.00     0.065 H 
ATOM     81  C   UNL A   1      41.413  27.249  28.508  1.00  0.00     0.049 A 
ATOM     82  H   UNL A   1      43.418  27.293  27.944  1.00  0.00     0.167 HD
ATOM     83  C   UNL A   1      47.636  27.212  26.808  1.00  0.00     0.037 A 
ATOM     84  H   UNL A   1      47.836  24.556  25.907  1.00  0.00     0.065 H 
ATOM     85  H   UNL A   1      39.484  26.151  28.657  1.00  0.00     0.065 H 
ATOM     86  C   UNL A   1      41.105  28.470  28.982  1.00  0.00     0.037 A 
ATOM     87  C   UNL A   1      47.399  28.548  27.291  1.00  0.00     0.049 A 
ATOM     88  C   UNL A   1      42.169  29.529  29.025  1.00  0.00     0.074 A 
ATOM     89  C   UNL A   1      48.286  29.609  27.363  1.00  0.00    -0.036 A 
ATOM     90  N   UNL A   1      46.184  29.010  27.775  1.00  0.00    -0.354 N 
ATOM     91  N   UNL A   1      43.421  29.458  28.644  1.00  0.00    -0.248 NA
ATOM     92  C   UNL A   1      41.779  30.838  29.568  1.00  0.00    -0.034 C 
ATOM     93  C   UNL A   1      47.617  30.704  27.918  1.00  0.00    -0.036 A 
ATOM     94  H   UNL A   1      49.272  29.595  27.059  1.00  0.00     0.065 H 
ATOM     95  C   UNL A   1      46.302  30.338  28.152  1.00  0.00     0.049 A 
ATOM     96  H   UNL A   1      45.362  28.473  27.842  1.00  0.00     0.167 HD
ATOM     97  C   UNL A   1      43.963  30.712  28.885  1.00  0.00     0.074 A 
ATOM     98  C   UNL A   1      42.900  31.531  29.427  1.00  0.00    -0.034 C 
ATOM     99  H   UNL A   1      40.871  31.138  29.957  1.00  0.00     0.065 H 
ATOM    100  H   UNL A   1      48.032  31.627  28.121  1.00  0.00     0.065 H 
ATOM    101  C   UNL A   1      45.230  31.143  28.679  1.00  0.00     0.037 A 
ATOM    102  H   UNL A   1      43.002  32.529  29.672  1.00  0.00     0.065 H 
BRANCH  83 103
ATOM    103  C   UNL A   1      49.016  26.894  26.314  1.00  0.00     0.064 A 
ATOM    104  C   UNL A   1      49.969  26.286  27.143  1.00  0.00     0.173 A 
ATOM    105  C   UNL A   1      49.352  27.099  24.967  1.00  0.00     0.173 A 
ATOM    106  F   UNL A   1      49.699  26.078  28.441  1.00  0.00    -0.203 F 
ATOM    107  C   UNL A   1      51.207  25.893  26.641  1.00  0.00     0.198 A 
ATOM    108  C   UNL A   1      50.582  26.686  24.463  1.00  0.00     0.198 A 
ATOM    109  F   UNL A   1      48.473  27.673  24.131  1.00  0.00    -0.203 F 
ATOM    110  F   UNL A   1      52.108  25.323  27.454  1.00  0.00    -0.200 F 
ATOM    111  C   UNL A   1      51.508  26.081  25.301  1.00  0.00     0.200 A 
ATOM    112  F   UNL A   1      50.866  26.858  23.165  1.00  0.00    -0.200 F 
ATOM    113  F   UNL A   1      52.690  25.679  24.814  1.00  0.00    -0.200 F 
ENDBRANCH  83 103
BRANCH  86 114
ATOM    114  C   UNL A   1      39.727  28.744  29.462  1.00  0.00     0.064 A 
ATOM    115  C   UNL A   1      38.756  29.273  28.603  1.00  0.00     0.173 A 
ATOM    116  C   UNL A   1      39.351  28.466  30.785  1.00  0.00     0.173 A 
ATOM    117  F   UNL A   1      39.075  29.575  27.336  1.00  0.00    -0.203 F 
ATOM    118  C   UNL A   1      37.460  29.523  29.051  1.00  0.00     0.198 A 
ATOM    119  C   UNL A   1      38.049  28.688  31.224  1.00  0.00     0.198 A 
ATOM    120  F   UNL A   1      40.245  27.956  31.643  1.00  0.00    -0.203 F 
ATOM    121  F   UNL A   1      36.559  30.063  28.220  1.00  0.00    -0.200 F 
ATOM    122  C   UNL A   1      37.105  29.222  30.358  1.00  0.00     0.200 A 
ATOM    123  F   UNL A   1      37.707  28.380  32.481  1.00  0.00    -0.200 F 
ATOM    124  F   UNL A   1      35.857  29.452  30.786  1.00  0.00    -0.200 F 
ENDBRANCH  86 114
BRANCH 101 125
ATOM    125  C   UNL A   1      45.531  32.575  29.007  1.00  0.00     0.064 A 
ATOM    126  C   UNL A   1      45.340  33.598  28.069  1.00  0.00     0.173 A 
ATOM    127  C   UNL A   1      45.974  32.929  30.290  1.00  0.00     0.173 A 
ATOM    128  F   UNL A   1      44.929  33.306  26.824  1.00  0.00    -0.203 F 
ATOM    129  C   UNL A   1      45.605  34.925  28.395  1.00  0.00     0.198 A 
ATOM    130  C   UNL A   1      46.213  34.259  30.620  1.00  0.00     0.198 A 
ATOM    131  F   UNL A   1      46.164  31.986  31.225  1.00  0.00    -0.203 F 
ATOM    132  F   UNL A   1      45.455  35.883  27.471  1.00  0.00    -0.200 F 
ATOM    133  C   UNL A   1      46.034  35.255  29.672  1.00  0.00     0.200 A 
ATOM    134  F   UNL A   1      46.618  34.578  31.859  1.00  0.00    -0.200 F 
ATOM    135  F   UNL A   1      46.283  36.533  29.988  1.00  0.00    -0.200 F 
ENDBRANCH 101 125
ENDBRANCH  66  69
ENDBRANCH  56  59
ENDBRANCH  52  55
ENDBRANCH  49  52
ENDBRANCH  46  49
ENDBRANCH   1  46
TORSDOF 17
ENDMDL
MODEL 8
REMARK VINA RESULT:     -13.0      1.927      8.138
REMARK SMILES Nn1c(S[C@@H](C(=O)NCCCCCCNC(=O)c2ccc(-c3c4nc(c(-c5c(F)c(F)c(F)c(F)c5F)c5ccc([nH]5)c(-c5c(F)c(F)c(F)c(F)c5F)c5nc(c(-c6c(F)c(F)c(F)c(F)c6F)c6ccc3[nH]6)C=C5)C=C4)cc2)c2ccccc2)nc2ccc(Br)cc2c1=O
REMARK SMILES IDX 11 1 10 4 9 7 8 10 6 11 7 12 5 14 4 16 3 17 2 18 95 19 87 20
REMARK SMILES IDX 94 21 96 22 88 23 93 24 89 25 91 26 90 28 92 30 1 32 81 35
REMARK SMILES IDX 82 36 86 37 83 38 85 40 84 42 12 46 13 49 14 52 15 55 16 56
REMARK SMILES IDX 17 58 18 59 19 60 80 61 20 62 79 64 21 66 22 69 23 70 73 71
REMARK SMILES IDX 24 72 78 73 72 74 74 75 25 76 77 77 71 79 70 81 26 83 58 86
REMARK SMILES IDX 38 87 57 88 39 89 42 90 56 91 75 92 40 93 41 95 55 97 76 98
REMARK SMILES IDX 43 101 27 103 28 104 36 105 29 106 30 107 34 108 37 109
REMARK SMILES IDX 31 110 32 111 35 112 33 113 59 114 60 115 68 116 61 117
REMARK SMILES IDX 62 118 66 119 69 120 63 121 64 122 67 123 65 124 44 125
REMARK SMILES IDX 45 126 53 127 46 128 47 129 51 130 54 131 48 132 49 133
REMARK SMILES IDX 52 134 50 135
REMARK H PARENT 11 2 11 3 10 5 10 6 9 8 9 9 8 13 5 15 93 27 89 29 90 31 1 33
REMARK H PARENT 1 34 82 39 86 41 83 43 85 44 84 45 12 47 12 48 13 50 13 51
REMARK H PARENT 14 53 14 54 15 57 19 63 80 65 20 67 79 68 78 78 72 80 74 82
REMARK H PARENT 77 84 71 85 39 94 42 96 75 99 40 100 76 102
REMARK Flexibility Score: inf
ROOT
ATOM      1  C   UNL A   1      32.286  29.297  26.916  1.00  0.00    -0.052 C 
ATOM      2  H   UNL A   1      33.319  29.047  26.792  1.00  0.00     0.027 H 
ATOM      3  H   UNL A   1      32.022  29.575  27.914  1.00  0.00     0.027 H 
ENDROOT
BRANCH   1   4
ATOM      4  C   UNL A   1      31.460  28.044  26.600  1.00  0.00    -0.036 C 
ATOM      5  H   UNL A   1      30.764  27.896  27.399  1.00  0.00     0.028 H 
ATOM      6  H   UNL A   1      30.994  28.228  25.655  1.00  0.00     0.028 H 
BRANCH   4   7
ATOM      7  C   UNL A   1      32.268  26.751  26.431  1.00  0.00     0.017 C 
ATOM      8  H   UNL A   1      32.436  26.586  25.387  1.00  0.00     0.049 H 
ATOM      9  H   UNL A   1      33.189  26.872  26.963  1.00  0.00     0.049 H 
BRANCH   7  10
ATOM     10  N   UNL A   1      31.587  25.593  26.983  1.00  0.00    -0.355 N 
ATOM     11  C   UNL A   1      31.362  24.345  26.459  1.00  0.00     0.238 C 
ATOM     12  O   UNL A   1      30.710  23.572  27.171  1.00  0.00    -0.273 OA
ATOM     13  H   UNL A   1      31.225  25.726  27.889  1.00  0.00     0.163 HD
BRANCH  11  14
ATOM     14  C   UNL A   1      31.938  23.931  25.092  1.00  0.00     0.116 C 
ATOM     15  H   UNL A   1      32.776  24.591  25.020  1.00  0.00     0.057 H 
BRANCH  14  16
ATOM     16  S   UNL A   1      30.868  24.319  23.697  1.00  0.00    -0.068 SA
BRANCH  16  17
ATOM     17  C   UNL A   1      30.763  26.028  23.397  1.00  0.00     0.191 A 
ATOM     18  N   UNL A   1      31.787  26.813  22.875  1.00  0.00    -0.202 N 
ATOM     19  C   UNL A   1      31.658  28.206  22.792  1.00  0.00     0.280 A 
ATOM     20  N   UNL A   1      29.573  26.499  23.617  1.00  0.00    -0.222 NA
ATOM     21  C   UNL A   1      30.292  28.733  22.940  1.00  0.00     0.069 A 
ATOM     22  O   UNL A   1      32.591  28.957  22.510  1.00  0.00    -0.267 OA
ATOM     23  C   UNL A   1      29.293  27.821  23.267  1.00  0.00     0.079 A 
ATOM     24  C   UNL A   1      29.989  30.053  22.594  1.00  0.00    -0.033 A 
ATOM     25  C   UNL A   1      27.959  28.224  23.183  1.00  0.00    -0.034 A 
ATOM     26  C   UNL A   1      28.653  30.441  22.523  1.00  0.00     0.018 A 
ATOM     27  H   UNL A   1      30.742  30.730  22.395  1.00  0.00     0.064 H 
ATOM     28  C   UNL A   1      27.635  29.528  22.798  1.00  0.00    -0.046 A 
ATOM     29  H   UNL A   1      27.206  27.555  23.407  1.00  0.00     0.065 H 
ATOM     30  Br  UNL A   1      28.213  32.202  22.000  1.00  0.00    -0.051 Br
ATOM     31  H   UNL A   1      26.647  29.813  22.717  1.00  0.00     0.064 H 
BRANCH  18  32
ATOM     32  N   UNL A   1      32.897  26.270  22.172  1.00  0.00    -0.334 N 
ATOM     33  H   UNL A   1      32.749  25.693  21.389  1.00  0.00     0.178 HD
ATOM     34  H   UNL A   1      33.814  26.471  22.470  1.00  0.00     0.178 HD
ENDBRANCH  18  32
ENDBRANCH  16  17
ENDBRANCH  14  16
BRANCH  14  35
ATOM     35  C   UNL A   1      32.640  22.577  24.986  1.00  0.00    -0.025 A 
ATOM     36  C   UNL A   1      34.036  22.523  25.181  1.00  0.00    -0.057 A 
ATOM     37  C   UNL A   1      31.986  21.368  24.705  1.00  0.00    -0.057 A 
ATOM     38  C   UNL A   1      34.736  21.315  25.111  1.00  0.00    -0.062 A 
ATOM     39  H   UNL A   1      34.551  23.395  25.381  1.00  0.00     0.063 H 
ATOM     40  C   UNL A   1      32.686  20.160  24.627  1.00  0.00    -0.062 A 
ATOM     41  H   UNL A   1      30.965  21.369  24.554  1.00  0.00     0.063 H 
ATOM     42  C   UNL A   1      34.061  20.133  24.831  1.00  0.00    -0.062 A 
ATOM     43  H   UNL A   1      35.756  21.302  25.268  1.00  0.00     0.062 H 
ATOM     44  H   UNL A   1      32.181  19.285  24.418  1.00  0.00     0.062 H 
ATOM     45  H   UNL A   1      34.577  19.241  24.775  1.00  0.00     0.062 H 
ENDBRANCH  14  35
ENDBRANCH  11  14
ENDBRANCH   7  10
ENDBRANCH   4   7
ENDBRANCH   1   4
BRANCH   1  46
ATOM     46  C   UNL A   1      31.992  30.523  26.049  1.00  0.00    -0.052 C 
ATOM     47  H   UNL A   1      31.181  30.280  25.397  1.00  0.00     0.027 H 
ATOM     48  H   UNL A   1      32.905  30.747  25.536  1.00  0.00     0.027 H 
BRANCH  46  49
ATOM     49  C   UNL A   1      31.618  31.791  26.816  1.00  0.00    -0.036 C 
ATOM     50  H   UNL A   1      31.020  31.506  27.658  1.00  0.00     0.028 H 
ATOM     51  H   UNL A   1      31.100  32.420  26.123  1.00  0.00     0.028 H 
BRANCH  49  52
ATOM     52  C   UNL A   1      32.801  32.602  27.329  1.00  0.00     0.018 C 
ATOM     53  H   UNL A   1      33.579  32.577  26.594  1.00  0.00     0.049 H 
ATOM     54  H   UNL A   1      33.116  32.167  28.254  1.00  0.00     0.049 H 
BRANCH  52  55
ATOM     55  N   UNL A   1      32.457  33.991  27.593  1.00  0.00    -0.352 N 
ATOM     56  C   UNL A   1      32.985  34.853  28.530  1.00  0.00     0.251 C 
ATOM     57  H   UNL A   1      31.749  34.368  27.022  1.00  0.00     0.163 HD
ATOM     58  O   UNL A   1      32.486  35.948  28.728  1.00  0.00    -0.269 OA
BRANCH  56  59
ATOM     59  C   UNL A   1      34.149  34.413  29.331  1.00  0.00     0.039 A 
ATOM     60  C   UNL A   1      35.445  34.544  28.825  1.00  0.00    -0.049 A 
ATOM     61  C   UNL A   1      33.933  33.818  30.574  1.00  0.00    -0.049 A 
ATOM     62  C   UNL A   1      36.504  33.930  29.484  1.00  0.00    -0.053 A 
ATOM     63  H   UNL A   1      35.615  35.093  27.968  1.00  0.00     0.063 H 
ATOM     64  C   UNL A   1      35.011  33.268  31.273  1.00  0.00    -0.053 A 
ATOM     65  H   UNL A   1      32.982  33.782  30.975  1.00  0.00     0.063 H 
ATOM     66  C   UNL A   1      36.297  33.278  30.711  1.00  0.00    -0.014 A 
ATOM     67  H   UNL A   1      37.449  33.954  29.070  1.00  0.00     0.063 H 
ATOM     68  H   UNL A   1      34.861  32.854  32.207  1.00  0.00     0.063 H 
BRANCH  66  69
ATOM     69  C   UNL A   1      37.435  32.609  31.392  1.00  0.00     0.031 A 
ATOM     70  C   UNL A   1      38.193  31.500  30.713  1.00  0.00     0.074 A 
ATOM     71  C   UNL A   1      37.807  33.028  32.617  1.00  0.00     0.049 A 
ATOM     72  N   UNL A   1      39.174  30.767  31.177  1.00  0.00    -0.248 NA
ATOM     73  C   UNL A   1      37.799  31.168  29.334  1.00  0.00    -0.034 C 
ATOM     74  C   UNL A   1      37.164  34.108  33.367  1.00  0.00    -0.036 A 
ATOM     75  N   UNL A   1      38.819  32.606  33.441  1.00  0.00    -0.354 N 
ATOM     76  C   UNL A   1      39.498  29.875  30.162  1.00  0.00     0.074 A 
ATOM     77  C   UNL A   1      38.602  30.148  29.058  1.00  0.00    -0.034 C 
ATOM     78  H   UNL A   1      37.085  31.612  28.738  1.00  0.00     0.065 H 
ATOM     79  C   UNL A   1      37.814  34.284  34.527  1.00  0.00    -0.036 A 
ATOM     80  H   UNL A   1      36.341  34.647  33.055  1.00  0.00     0.065 H 
ATOM     81  C   UNL A   1      38.878  33.289  34.630  1.00  0.00     0.049 A 
ATOM     82  H   UNL A   1      39.443  31.882  33.202  1.00  0.00     0.167 HD
ATOM     83  C   UNL A   1      40.459  28.922  30.154  1.00  0.00     0.037 A 
ATOM     84  H   UNL A   1      38.590  29.618  28.172  1.00  0.00     0.065 H 
ATOM     85  H   UNL A   1      37.597  35.006  35.232  1.00  0.00     0.065 H 
ATOM     86  C   UNL A   1      39.681  33.120  35.697  1.00  0.00     0.037 A 
ATOM     87  C   UNL A   1      41.367  28.671  31.243  1.00  0.00     0.049 A 
ATOM     88  C   UNL A   1      40.724  32.041  35.665  1.00  0.00     0.074 A 
ATOM     89  C   UNL A   1      42.376  27.726  31.325  1.00  0.00    -0.036 A 
ATOM     90  N   UNL A   1      41.384  29.377  32.437  1.00  0.00    -0.354 N 
ATOM     91  N   UNL A   1      41.005  31.192  34.707  1.00  0.00    -0.248 NA
ATOM     92  C   UNL A   1      41.560  31.893  36.864  1.00  0.00    -0.034 C 
ATOM     93  C   UNL A   1      42.983  27.838  32.579  1.00  0.00    -0.036 A 
ATOM     94  H   UNL A   1      42.635  27.053  30.587  1.00  0.00     0.065 H 
ATOM     95  C   UNL A   1      42.382  28.883  33.262  1.00  0.00     0.049 A 
ATOM     96  H   UNL A   1      40.776  30.117  32.664  1.00  0.00     0.167 HD
ATOM     97  C   UNL A   1      42.057  30.421  35.179  1.00  0.00     0.074 A 
ATOM     98  C   UNL A   1      42.379  30.915  36.501  1.00  0.00    -0.034 C 
ATOM     99  H   UNL A   1      41.520  32.413  37.755  1.00  0.00     0.065 H 
ATOM    100  H   UNL A   1      43.747  27.244  32.936  1.00  0.00     0.065 H 
ATOM    101  C   UNL A   1      42.696  29.393  34.570  1.00  0.00     0.037 A 
ATOM    102  H   UNL A   1      43.147  30.552  37.086  1.00  0.00     0.065 H 
BRANCH  83 103
ATOM    103  C   UNL A   1      40.594  28.060  28.933  1.00  0.00     0.064 A 
ATOM    104  C   UNL A   1      39.847  26.884  28.781  1.00  0.00     0.173 A 
ATOM    105  C   UNL A   1      41.396  28.474  27.858  1.00  0.00     0.173 A 
ATOM    106  F   UNL A   1      39.074  26.441  29.784  1.00  0.00    -0.203 F 
ATOM    107  C   UNL A   1      39.897  26.153  27.596  1.00  0.00     0.198 A 
ATOM    108  C   UNL A   1      41.427  27.754  26.667  1.00  0.00     0.198 A 
ATOM    109  F   UNL A   1      42.126  29.596  27.952  1.00  0.00    -0.203 F 
ATOM    110  F   UNL A   1      39.184  25.025  27.475  1.00  0.00    -0.200 F 
ATOM    111  C   UNL A   1      40.676  26.595  26.537  1.00  0.00     0.200 A 
ATOM    112  F   UNL A   1      42.171  28.188  25.641  1.00  0.00    -0.200 F 
ATOM    113  F   UNL A   1      40.703  25.905  25.389  1.00  0.00    -0.200 F 
ENDBRANCH  83 103
BRANCH  86 114
ATOM    114  C   UNL A   1      39.514  33.994  36.885  1.00  0.00     0.064 A 
ATOM    115  C   UNL A   1      38.739  33.585  37.978  1.00  0.00     0.173 A 
ATOM    116  C   UNL A   1      40.140  35.247  36.959  1.00  0.00     0.173 A 
ATOM    117  F   UNL A   1      38.103  32.405  37.945  1.00  0.00    -0.203 F 
ATOM    118  C   UNL A   1      38.588  34.402  39.097  1.00  0.00     0.198 A 
ATOM    119  C   UNL A   1      40.014  36.049  38.089  1.00  0.00     0.198 A 
ATOM    120  F   UNL A   1      40.895  35.680  35.939  1.00  0.00    -0.203 F 
ATOM    121  F   UNL A   1      37.813  34.004  40.115  1.00  0.00    -0.200 F 
ATOM    122  C   UNL A   1      39.233  35.629  39.156  1.00  0.00     0.200 A 
ATOM    123  F   UNL A   1      40.651  37.226  38.147  1.00  0.00    -0.200 F 
ATOM    124  F   UNL A   1      39.098  36.409  40.236  1.00  0.00    -0.200 F 
ENDBRANCH  86 114
BRANCH 101 125
ATOM    125  C   UNL A   1      43.831  28.755  35.314  1.00  0.00     0.064 A 
ATOM    126  C   UNL A   1      43.617  27.706  36.219  1.00  0.00     0.173 A 
ATOM    127  C   UNL A   1      45.151  29.171  35.084  1.00  0.00     0.173 A 
ATOM    128  F   UNL A   1      42.371  27.283  36.480  1.00  0.00    -0.203 F 
ATOM    129  C   UNL A   1      44.684  27.111  36.886  1.00  0.00     0.198 A 
ATOM    130  C   UNL A   1      46.217  28.555  35.734  1.00  0.00     0.198 A 
ATOM    131  F   UNL A   1      45.407  30.165  34.221  1.00  0.00    -0.203 F 
ATOM    132  F   UNL A   1      44.454  26.137  37.778  1.00  0.00    -0.200 F 
ATOM    133  C   UNL A   1      45.982  27.531  36.638  1.00  0.00     0.200 A 
ATOM    134  F   UNL A   1      47.472  28.956  35.485  1.00  0.00    -0.200 F 
ATOM    135  F   UNL A   1      47.009  26.953  37.277  1.00  0.00    -0.200 F 
ENDBRANCH 101 125
ENDBRANCH  66  69
ENDBRANCH  56  59
ENDBRANCH  52  55
ENDBRANCH  49  52
ENDBRANCH  46  49
ENDBRANCH   1  46
TORSDOF 17
ENDMDL
MODEL 9
REMARK VINA RESULT:     -12.9      1.898      4.061
REMARK SMILES Nn1c(S[C@@H](C(=O)NCCCCCCNC(=O)c2ccc(-c3c4nc(c(-c5c(F)c(F)c(F)c(F)c5F)c5ccc([nH]5)c(-c5c(F)c(F)c(F)c(F)c5F)c5nc(c(-c6c(F)c(F)c(F)c(F)c6F)c6ccc3[nH]6)C=C5)C=C4)cc2)c2ccccc2)nc2ccc(Br)cc2c1=O
REMARK SMILES IDX 11 1 10 4 9 7 8 10 6 11 7 12 5 14 4 16 3 17 2 18 95 19 87 20
REMARK SMILES IDX 94 21 96 22 88 23 93 24 89 25 91 26 90 28 92 30 1 32 81 35
REMARK SMILES IDX 82 36 86 37 83 38 85 40 84 42 12 46 13 49 14 52 15 55 16 56
REMARK SMILES IDX 17 58 18 59 19 60 80 61 20 62 79 64 21 66 22 69 23 70 73 71
REMARK SMILES IDX 24 72 78 73 72 74 74 75 25 76 77 77 71 79 70 81 26 83 58 86
REMARK SMILES IDX 38 87 57 88 39 89 42 90 56 91 75 92 40 93 41 95 55 97 76 98
REMARK SMILES IDX 43 101 27 103 28 104 36 105 29 106 30 107 34 108 37 109
REMARK SMILES IDX 31 110 32 111 35 112 33 113 59 114 60 115 68 116 61 117
REMARK SMILES IDX 62 118 66 119 69 120 63 121 64 122 67 123 65 124 44 125
REMARK SMILES IDX 45 126 53 127 46 128 47 129 51 130 54 131 48 132 49 133
REMARK SMILES IDX 52 134 50 135
REMARK H PARENT 11 2 11 3 10 5 10 6 9 8 9 9 8 13 5 15 93 27 89 29 90 31 1 33
REMARK H PARENT 1 34 82 39 86 41 83 43 85 44 84 45 12 47 12 48 13 50 13 51
REMARK H PARENT 14 53 14 54 15 57 19 63 80 65 20 67 79 68 78 78 72 80 74 82
REMARK H PARENT 77 84 71 85 39 94 42 96 75 99 40 100 76 102
REMARK Flexibility Score: inf
ROOT
ATOM      1  C   UNL A   1      32.224  29.313  26.869  1.00  0.00    -0.052 C 
ATOM      2  H   UNL A   1      33.257  29.085  26.709  1.00  0.00     0.027 H 
ATOM      3  H   UNL A   1      31.995  29.620  27.867  1.00  0.00     0.027 H 
ENDROOT
BRANCH   1   4
ATOM      4  C   UNL A   1      31.419  28.028  26.634  1.00  0.00    -0.036 C 
ATOM      5  H   UNL A   1      30.765  27.890  27.470  1.00  0.00     0.028 H 
ATOM      6  H   UNL A   1      30.904  28.167  25.707  1.00  0.00     0.028 H 
BRANCH   4   7
ATOM      7  C   UNL A   1      32.253  26.752  26.469  1.00  0.00     0.017 C 
ATOM      8  H   UNL A   1      32.430  26.590  25.427  1.00  0.00     0.049 H 
ATOM      9  H   UNL A   1      33.169  26.892  27.007  1.00  0.00     0.049 H 
BRANCH   7  10
ATOM     10  N   UNL A   1      31.593  25.581  27.019  1.00  0.00    -0.355 N 
ATOM     11  C   UNL A   1      31.401  24.327  26.496  1.00  0.00     0.238 C 
ATOM     12  O   UNL A   1      30.759  23.541  27.205  1.00  0.00    -0.273 OA
ATOM     13  H   UNL A   1      31.220  25.708  27.921  1.00  0.00     0.163 HD
BRANCH  11  14
ATOM     14  C   UNL A   1      31.996  23.922  25.135  1.00  0.00     0.116 C 
ATOM     15  H   UNL A   1      32.823  24.598  25.070  1.00  0.00     0.057 H 
BRANCH  14  16
ATOM     16  S   UNL A   1      30.932  24.288  23.730  1.00  0.00    -0.068 SA
BRANCH  16  17
ATOM     17  C   UNL A   1      30.807  25.994  23.420  1.00  0.00     0.191 A 
ATOM     18  N   UNL A   1      31.820  26.788  22.891  1.00  0.00    -0.202 N 
ATOM     19  C   UNL A   1      31.675  28.178  22.800  1.00  0.00     0.280 A 
ATOM     20  N   UNL A   1      29.612  26.452  23.639  1.00  0.00    -0.222 NA
ATOM     21  C   UNL A   1      30.304  28.690  22.947  1.00  0.00     0.069 A 
ATOM     22  O   UNL A   1      32.598  28.939  22.511  1.00  0.00    -0.267 OA
ATOM     23  C   UNL A   1      29.315  27.768  23.281  1.00  0.00     0.079 A 
ATOM     24  C   UNL A   1      29.984  30.004  22.594  1.00  0.00    -0.033 A 
ATOM     25  C   UNL A   1      27.977  28.155  23.198  1.00  0.00    -0.034 A 
ATOM     26  C   UNL A   1      28.643  30.377  22.523  1.00  0.00     0.018 A 
ATOM     27  H   UNL A   1      30.729  30.689  22.388  1.00  0.00     0.064 H 
ATOM     28  C   UNL A   1      27.637  29.453  22.805  1.00  0.00    -0.046 A 
ATOM     29  H   UNL A   1      27.232  27.479  23.427  1.00  0.00     0.065 H 
ATOM     30  Br  UNL A   1      28.182  32.129  21.990  1.00  0.00    -0.051 Br
ATOM     31  H   UNL A   1      26.645  29.727  22.725  1.00  0.00     0.064 H 
BRANCH  18  32
ATOM     32  N   UNL A   1      32.936  26.253  22.189  1.00  0.00    -0.334 N 
ATOM     33  H   UNL A   1      33.800  26.147  22.647  1.00  0.00     0.178 HD
ATOM     34  H   UNL A   1      32.842  25.991  21.244  1.00  0.00     0.178 HD
ENDBRANCH  18  32
ENDBRANCH  16  17
ENDBRANCH  14  16
BRANCH  14  35
ATOM     35  C   UNL A   1      32.726  22.582  25.038  1.00  0.00    -0.025 A 
ATOM     36  C   UNL A   1      32.063  21.495  24.430  1.00  0.00    -0.057 A 
ATOM     37  C   UNL A   1      34.025  22.353  25.518  1.00  0.00    -0.057 A 
ATOM     38  C   UNL A   1      32.680  20.247  24.298  1.00  0.00    -0.062 A 
ATOM     39  H   UNL A   1      31.104  21.625  24.074  1.00  0.00     0.063 H 
ATOM     40  C   UNL A   1      34.639  21.103  25.394  1.00  0.00    -0.062 A 
ATOM     41  H   UNL A   1      34.538  23.124  25.971  1.00  0.00     0.063 H 
ATOM     42  C   UNL A   1      33.968  20.050  24.783  1.00  0.00    -0.062 A 
ATOM     43  H   UNL A   1      32.177  19.471  23.840  1.00  0.00     0.062 H 
ATOM     44  H   UNL A   1      35.594  20.961  25.757  1.00  0.00     0.062 H 
ATOM     45  H   UNL A   1      34.422  19.128  24.690  1.00  0.00     0.062 H 
ENDBRANCH  14  35
ENDBRANCH  11  14
ENDBRANCH   7  10
ENDBRANCH   4   7
ENDBRANCH   1   4
BRANCH   1  46
ATOM     46  C   UNL A   1      31.860  30.499  25.972  1.00  0.00    -0.052 C 
ATOM     47  H   UNL A   1      31.006  30.223  25.390  1.00  0.00     0.027 H 
ATOM     48  H   UNL A   1      32.732  30.704  25.387  1.00  0.00     0.027 H 
BRANCH  46  49
ATOM     49  C   UNL A   1      31.531  31.797  26.708  1.00  0.00    -0.036 C 
ATOM     50  H   UNL A   1      30.881  31.560  27.526  1.00  0.00     0.028 H 
ATOM     51  H   UNL A   1      31.081  32.447  25.986  1.00  0.00     0.028 H 
BRANCH  49  52
ATOM     52  C   UNL A   1      32.737  32.542  27.263  1.00  0.00     0.018 C 
ATOM     53  H   UNL A   1      33.524  32.508  26.539  1.00  0.00     0.049 H 
ATOM     54  H   UNL A   1      33.020  32.065  28.178  1.00  0.00     0.049 H 
BRANCH  52  55
ATOM     55  N   UNL A   1      32.446  33.935  27.567  1.00  0.00    -0.352 N 
ATOM     56  C   UNL A   1      33.030  34.760  28.503  1.00  0.00     0.251 C 
ATOM     57  H   UNL A   1      31.732  34.346  27.027  1.00  0.00     0.163 HD
ATOM     58  O   UNL A   1      32.573  35.866  28.739  1.00  0.00    -0.269 OA
BRANCH  56  59
ATOM     59  C   UNL A   1      34.206  34.268  29.256  1.00  0.00     0.039 A 
ATOM     60  C   UNL A   1      35.499  34.519  28.790  1.00  0.00    -0.049 A 
ATOM     61  C   UNL A   1      34.004  33.505  30.407  1.00  0.00    -0.049 A 
ATOM     62  C   UNL A   1      36.578  33.868  29.379  1.00  0.00    -0.053 A 
ATOM     63  H   UNL A   1      35.652  35.183  28.016  1.00  0.00     0.063 H 
ATOM     64  C   UNL A   1      35.099  32.913  31.043  1.00  0.00    -0.053 A 
ATOM     65  H   UNL A   1      33.053  33.377  30.785  1.00  0.00     0.063 H 
ATOM     66  C   UNL A   1      36.389  33.052  30.506  1.00  0.00    -0.014 A 
ATOM     67  H   UNL A   1      37.524  33.986  28.984  1.00  0.00     0.063 H 
ATOM     68  H   UNL A   1      34.959  32.374  31.912  1.00  0.00     0.063 H 
BRANCH  66  69
ATOM     69  C   UNL A   1      37.549  32.347  31.110  1.00  0.00     0.031 A 
ATOM     70  C   UNL A   1      38.029  32.702  32.492  1.00  0.00     0.074 A 
ATOM     71  C   UNL A   1      38.151  31.361  30.419  1.00  0.00     0.049 A 
ATOM     72  N   UNL A   1      39.057  32.233  33.153  1.00  0.00    -0.248 NA
ATOM     73  C   UNL A   1      37.257  33.715  33.228  1.00  0.00    -0.034 C 
ATOM     74  C   UNL A   1      37.763  30.913  29.081  1.00  0.00    -0.036 A 
ATOM     75  N   UNL A   1      39.207  30.550  30.749  1.00  0.00    -0.354 N 
ATOM     76  C   UNL A   1      39.070  32.907  34.368  1.00  0.00     0.074 A 
ATOM     77  C   UNL A   1      37.954  33.828  34.352  1.00  0.00    -0.034 C 
ATOM     78  H   UNL A   1      36.397  34.210  32.945  1.00  0.00     0.065 H 
ATOM     79  C   UNL A   1      38.549  29.889  28.715  1.00  0.00    -0.036 A 
ATOM     80  H   UNL A   1      37.006  31.319  28.510  1.00  0.00     0.065 H 
ATOM     81  C   UNL A   1      39.535  29.651  29.765  1.00  0.00     0.049 A 
ATOM     82  H   UNL A   1      39.684  30.607  31.609  1.00  0.00     0.167 HD
ATOM     83  C   UNL A   1      39.932  32.762  35.402  1.00  0.00     0.037 A 
ATOM     84  H   UNL A   1      37.730  34.487  35.114  1.00  0.00     0.065 H 
ATOM     85  H   UNL A   1      38.469  29.356  27.835  1.00  0.00     0.065 H 
ATOM     86  C   UNL A   1      40.534  28.751  29.700  1.00  0.00     0.037 A 
ATOM     87  C   UNL A   1      41.025  31.825  35.426  1.00  0.00     0.049 A 
ATOM     88  C   UNL A   1      41.486  28.630  30.855  1.00  0.00     0.074 A 
ATOM     89  C   UNL A   1      41.952  31.606  36.432  1.00  0.00    -0.036 A 
ATOM     90  N   UNL A   1      41.333  30.942  34.402  1.00  0.00    -0.354 N 
ATOM     91  N   UNL A   1      41.499  29.288  31.987  1.00  0.00    -0.248 NA
ATOM     92  C   UNL A   1      42.567  27.642  30.720  1.00  0.00    -0.034 C 
ATOM     93  C   UNL A   1      42.839  30.614  36.004  1.00  0.00    -0.036 A 
ATOM     94  H   UNL A   1      41.984  32.093  37.341  1.00  0.00     0.065 H 
ATOM     95  C   UNL A   1      42.438  30.182  34.751  1.00  0.00     0.049 A 
ATOM     96  H   UNL A   1      40.840  30.867  33.553  1.00  0.00     0.167 HD
ATOM     97  C   UNL A   1      42.574  28.786  32.707  1.00  0.00     0.074 A 
ATOM     98  C   UNL A   1      43.178  27.754  31.892  1.00  0.00    -0.034 C 
ATOM     99  H   UNL A   1      42.790  27.024  29.924  1.00  0.00     0.065 H 
ATOM    100  H   UNL A   1      43.653  30.263  36.532  1.00  0.00     0.065 H 
ATOM    101  C   UNL A   1      43.020  29.151  33.932  1.00  0.00     0.037 A 
ATOM    102  H   UNL A   1      43.983  27.178  32.184  1.00  0.00     0.065 H 
BRANCH  83 103
ATOM    103  C   UNL A   1      39.748  33.636  36.607  1.00  0.00     0.064 A 
ATOM    104  C   UNL A   1      40.315  34.916  36.678  1.00  0.00     0.173 A 
ATOM    105  C   UNL A   1      38.905  33.231  37.654  1.00  0.00     0.173 A 
ATOM    106  F   UNL A   1      41.136  35.345  35.707  1.00  0.00    -0.203 F 
ATOM    107  C   UNL A   1      40.043  35.760  37.752  1.00  0.00     0.198 A 
ATOM    108  C   UNL A   1      38.618  34.085  38.715  1.00  0.00     0.198 A 
ATOM    109  F   UNL A   1      38.334  32.017  37.630  1.00  0.00    -0.203 F 
ATOM    110  F   UNL A   1      40.605  36.976  37.806  1.00  0.00    -0.200 F 
ATOM    111  C   UNL A   1      39.187  35.350  38.762  1.00  0.00     0.200 A 
ATOM    112  F   UNL A   1      37.781  33.691  39.684  1.00  0.00    -0.200 F 
ATOM    113  F   UNL A   1      38.907  36.173  39.782  1.00  0.00    -0.200 F 
ENDBRANCH  83 103
BRANCH  86 114
ATOM    114  C   UNL A   1      40.682  27.907  28.488  1.00  0.00     0.064 A 
ATOM    115  C   UNL A   1      40.069  26.650  28.405  1.00  0.00     0.173 A 
ATOM    116  C   UNL A   1      41.426  28.347  27.383  1.00  0.00     0.173 A 
ATOM    117  F   UNL A   1      39.366  26.178  29.444  1.00  0.00    -0.203 F 
ATOM    118  C   UNL A   1      40.201  25.860  27.265  1.00  0.00     0.198 A 
ATOM    119  C   UNL A   1      41.534  27.570  26.233  1.00  0.00     0.198 A 
ATOM    120  F   UNL A   1      42.029  29.544  27.414  1.00  0.00    -0.203 F 
ATOM    121  F   UNL A   1      39.635  24.647  27.223  1.00  0.00    -0.200 F 
ATOM    122  C   UNL A   1      40.926  26.324  26.177  1.00  0.00     0.200 A 
ATOM    123  F   UNL A   1      42.220  28.030  25.179  1.00  0.00    -0.200 F 
ATOM    124  F   UNL A   1      41.044  25.570  25.076  1.00  0.00    -0.200 F 
ENDBRANCH  86 114
BRANCH 101 125
ATOM    125  C   UNL A   1      44.200  28.407  34.483  1.00  0.00     0.064 A 
ATOM    126  C   UNL A   1      44.045  27.219  35.209  1.00  0.00     0.173 A 
ATOM    127  C   UNL A   1      45.503  28.869  34.242  1.00  0.00     0.173 A 
ATOM    128  F   UNL A   1      42.817  26.746  35.475  1.00  0.00    -0.203 F 
ATOM    129  C   UNL A   1      45.151  26.530  35.697  1.00  0.00     0.198 A 
ATOM    130  C   UNL A   1      46.608  28.163  34.709  1.00  0.00     0.198 A 
ATOM    131  F   UNL A   1      45.703  29.997  33.544  1.00  0.00    -0.203 F 
ATOM    132  F   UNL A   1      44.979  25.418  36.425  1.00  0.00    -0.200 F 
ATOM    133  C   UNL A   1      46.431  26.999  35.441  1.00  0.00     0.200 A 
ATOM    134  F   UNL A   1      47.845  28.612  34.451  1.00  0.00    -0.200 F 
ATOM    135  F   UNL A   1      47.497  26.332  35.905  1.00  0.00    -0.200 F 
ENDBRANCH 101 125
ENDBRANCH  66  69
ENDBRANCH  56  59
ENDBRANCH  52  55
ENDBRANCH  49  52
ENDBRANCH  46  49
ENDBRANCH   1  46
TORSDOF 17
ENDMDL
MODEL 10
REMARK VINA RESULT:     -12.9      1.334      1.934
REMARK SMILES Nn1c(S[C@@H](C(=O)NCCCCCCNC(=O)c2ccc(-c3c4nc(c(-c5c(F)c(F)c(F)c(F)c5F)c5ccc([nH]5)c(-c5c(F)c(F)c(F)c(F)c5F)c5nc(c(-c6c(F)c(F)c(F)c(F)c6F)c6ccc3[nH]6)C=C5)C=C4)cc2)c2ccccc2)nc2ccc(Br)cc2c1=O
REMARK SMILES IDX 11 1 10 4 9 7 8 10 6 11 7 12 5 14 4 16 3 17 2 18 95 19 87 20
REMARK SMILES IDX 94 21 96 22 88 23 93 24 89 25 91 26 90 28 92 30 1 32 81 35
REMARK SMILES IDX 82 36 86 37 83 38 85 40 84 42 12 46 13 49 14 52 15 55 16 56
REMARK SMILES IDX 17 58 18 59 19 60 80 61 20 62 79 64 21 66 22 69 23 70 73 71
REMARK SMILES IDX 24 72 78 73 72 74 74 75 25 76 77 77 71 79 70 81 26 83 58 86
REMARK SMILES IDX 38 87 57 88 39 89 42 90 56 91 75 92 40 93 41 95 55 97 76 98
REMARK SMILES IDX 43 101 27 103 28 104 36 105 29 106 30 107 34 108 37 109
REMARK SMILES IDX 31 110 32 111 35 112 33 113 59 114 60 115 68 116 61 117
REMARK SMILES IDX 62 118 66 119 69 120 63 121 64 122 67 123 65 124 44 125
REMARK SMILES IDX 45 126 53 127 46 128 47 129 51 130 54 131 48 132 49 133
REMARK SMILES IDX 52 134 50 135
REMARK H PARENT 11 2 11 3 10 5 10 6 9 8 9 9 8 13 5 15 93 27 89 29 90 31 1 33
REMARK H PARENT 1 34 82 39 86 41 83 43 85 44 84 45 12 47 12 48 13 50 13 51
REMARK H PARENT 14 53 14 54 15 57 19 63 80 65 20 67 79 68 78 78 72 80 74 82
REMARK H PARENT 77 84 71 85 39 94 42 96 75 99 40 100 76 102
REMARK Flexibility Score: inf
ROOT
ATOM      1  C   UNL A   1      32.375  29.784  27.236  1.00  0.00    -0.052 C 
ATOM      2  H   UNL A   1      33.431  29.766  27.070  1.00  0.00     0.027 H 
ATOM      3  H   UNL A   1      32.094  30.107  28.217  1.00  0.00     0.027 H 
ENDROOT
BRANCH   1   4
ATOM      4  C   UNL A   1      31.855  28.346  27.107  1.00  0.00    -0.036 C 
ATOM      5  H   UNL A   1      31.813  27.920  28.087  1.00  0.00     0.028 H 
ATOM      6  H   UNL A   1      30.900  28.419  26.630  1.00  0.00     0.028 H 
BRANCH   4   7
ATOM      7  C   UNL A   1      32.701  27.421  26.224  1.00  0.00     0.017 C 
ATOM      8  H   UNL A   1      33.630  27.230  26.719  1.00  0.00     0.049 H 
ATOM      9  H   UNL A   1      32.144  26.519  26.071  1.00  0.00     0.049 H 
BRANCH   7  10
ATOM     10  N   UNL A   1      32.977  27.996  24.919  1.00  0.00    -0.355 N 
ATOM     11  C   UNL A   1      32.173  28.166  23.821  1.00  0.00     0.238 C 
ATOM     12  O   UNL A   1      32.716  28.665  22.828  1.00  0.00    -0.273 OA
ATOM     13  H   UNL A   1      33.900  28.319  24.802  1.00  0.00     0.163 HD
BRANCH  11  14
ATOM     14  C   UNL A   1      30.676  27.804  23.856  1.00  0.00     0.116 C 
ATOM     15  H   UNL A   1      30.533  27.646  24.904  1.00  0.00     0.057 H 
BRANCH  14  16
ATOM     16  S   UNL A   1      30.281  26.242  23.052  1.00  0.00    -0.068 SA
BRANCH  16  17
ATOM     17  C   UNL A   1      30.835  24.869  23.962  1.00  0.00     0.191 A 
ATOM     18  N   UNL A   1      30.602  24.661  25.318  1.00  0.00    -0.202 N 
ATOM     19  C   UNL A   1      31.201  23.592  25.998  1.00  0.00     0.280 A 
ATOM     20  N   UNL A   1      31.416  23.981  23.216  1.00  0.00    -0.222 NA
ATOM     21  C   UNL A   1      31.771  22.533  25.151  1.00  0.00     0.069 A 
ATOM     22  O   UNL A   1      31.174  23.466  27.222  1.00  0.00    -0.267 OA
ATOM     23  C   UNL A   1      31.771  22.752  23.776  1.00  0.00     0.079 A 
ATOM     24  C   UNL A   1      32.131  21.295  25.690  1.00  0.00    -0.033 A 
ATOM     25  C   UNL A   1      32.076  21.689  22.924  1.00  0.00    -0.034 A 
ATOM     26  C   UNL A   1      32.442  20.247  24.827  1.00  0.00     0.018 A 
ATOM     27  H   UNL A   1      32.168  21.158  26.714  1.00  0.00     0.064 H 
ATOM     28  C   UNL A   1      32.398  20.433  23.445  1.00  0.00    -0.046 A 
ATOM     29  H   UNL A   1      32.065  21.832  21.902  1.00  0.00     0.065 H 
ATOM     30  Br  UNL A   1      32.874  18.547  25.528  1.00  0.00    -0.051 Br
ATOM     31  H   UNL A   1      32.602  19.646  22.810  1.00  0.00     0.064 H 
BRANCH  18  32
ATOM     32  N   UNL A   1      29.576  25.332  26.040  1.00  0.00    -0.334 N 
ATOM     33  H   UNL A   1      29.435  25.133  26.993  1.00  0.00     0.178 HD
ATOM     34  H   UNL A   1      29.007  25.993  25.584  1.00  0.00     0.178 HD
ENDBRANCH  18  32
ENDBRANCH  16  17
ENDBRANCH  14  16
BRANCH  14  35
ATOM     35  C   UNL A   1      29.659  28.917  23.601  1.00  0.00    -0.025 A 
ATOM     36  C   UNL A   1      28.369  28.563  23.154  1.00  0.00    -0.057 A 
ATOM     37  C   UNL A   1      29.922  30.283  23.782  1.00  0.00    -0.057 A 
ATOM     38  C   UNL A   1      27.389  29.532  22.915  1.00  0.00    -0.062 A 
ATOM     39  H   UNL A   1      28.144  27.568  23.001  1.00  0.00     0.063 H 
ATOM     40  C   UNL A   1      28.946  31.253  23.535  1.00  0.00    -0.062 A 
ATOM     41  H   UNL A   1      30.856  30.579  24.105  1.00  0.00     0.063 H 
ATOM     42  C   UNL A   1      27.679  30.879  23.103  1.00  0.00    -0.062 A 
ATOM     43  H   UNL A   1      26.450  29.246  22.597  1.00  0.00     0.062 H 
ATOM     44  H   UNL A   1      29.166  32.252  23.675  1.00  0.00     0.062 H 
ATOM     45  H   UNL A   1      26.958  31.594  22.923  1.00  0.00     0.062 H 
ENDBRANCH  14  35
ENDBRANCH  11  14
ENDBRANCH   7  10
ENDBRANCH   4   7
ENDBRANCH   1   4
BRANCH   1  46
ATOM     46  C   UNL A   1      31.764  30.802  26.270  1.00  0.00    -0.052 C 
ATOM     47  H   UNL A   1      30.841  30.400  25.908  1.00  0.00     0.027 H 
ATOM     48  H   UNL A   1      32.496  30.957  25.506  1.00  0.00     0.027 H 
BRANCH  46  49
ATOM     49  C   UNL A   1      31.478  32.179  26.868  1.00  0.00    -0.036 C 
ATOM     50  H   UNL A   1      30.786  32.054  27.675  1.00  0.00     0.028 H 
ATOM     51  H   UNL A   1      31.091  32.778  26.069  1.00  0.00     0.028 H 
BRANCH  49  52
ATOM     52  C   UNL A   1      32.701  32.913  27.400  1.00  0.00     0.018 C 
ATOM     53  H   UNL A   1      33.463  32.900  26.649  1.00  0.00     0.049 H 
ATOM     54  H   UNL A   1      33.017  32.413  28.292  1.00  0.00     0.049 H 
BRANCH  52  55
ATOM     55  N   UNL A   1      32.418  34.296  27.750  1.00  0.00    -0.352 N 
ATOM     56  C   UNL A   1      33.012  35.088  28.709  1.00  0.00     0.251 C 
ATOM     57  H   UNL A   1      31.702  34.727  27.229  1.00  0.00     0.163 HD
ATOM     58  O   UNL A   1      32.561  36.188  28.984  1.00  0.00    -0.269 OA
BRANCH  56  59
ATOM     59  C   UNL A   1      34.190  34.567  29.437  1.00  0.00     0.039 A 
ATOM     60  C   UNL A   1      35.466  34.658  28.875  1.00  0.00    -0.049 A 
ATOM     61  C   UNL A   1      34.003  33.937  30.669  1.00  0.00    -0.049 A 
ATOM     62  C   UNL A   1      36.524  33.973  29.462  1.00  0.00    -0.053 A 
ATOM     63  H   UNL A   1      35.622  35.231  28.031  1.00  0.00     0.063 H 
ATOM     64  C   UNL A   1      35.086  33.313  31.296  1.00  0.00    -0.053 A 
ATOM     65  H   UNL A   1      33.072  33.929  31.112  1.00  0.00     0.063 H 
ATOM     66  C   UNL A   1      36.344  33.286  30.674  1.00  0.00    -0.014 A 
ATOM     67  H   UNL A   1      37.449  33.969  29.004  1.00  0.00     0.063 H 
ATOM     68  H   UNL A   1      34.960  32.873  32.220  1.00  0.00     0.063 H 
BRANCH  66  69
ATOM     69  C   UNL A   1      37.480  32.542  31.276  1.00  0.00     0.031 A 
ATOM     70  C   UNL A   1      37.973  32.880  32.658  1.00  0.00     0.074 A 
ATOM     71  C   UNL A   1      38.047  31.535  30.586  1.00  0.00     0.049 A 
ATOM     72  N   UNL A   1      38.985  32.375  33.319  1.00  0.00    -0.248 NA
ATOM     73  C   UNL A   1      37.237  33.919  33.395  1.00  0.00    -0.034 C 
ATOM     74  C   UNL A   1      37.642  31.101  29.248  1.00  0.00    -0.036 A 
ATOM     75  N   UNL A   1      39.075  30.688  30.914  1.00  0.00    -0.354 N 
ATOM     76  C   UNL A   1      39.022  33.048  34.533  1.00  0.00     0.074 A 
ATOM     77  C   UNL A   1      37.939  34.008  34.518  1.00  0.00    -0.034 C 
ATOM     78  H   UNL A   1      36.395  34.443  33.113  1.00  0.00     0.065 H 
ATOM     79  C   UNL A   1      38.391  30.051  28.881  1.00  0.00    -0.036 A 
ATOM     80  H   UNL A   1      36.899  31.534  28.677  1.00  0.00     0.065 H 
ATOM     81  C   UNL A   1      39.370  29.779  29.930  1.00  0.00     0.049 A 
ATOM     82  H   UNL A   1      39.554  30.730  31.774  1.00  0.00     0.167 HD
ATOM     83  C   UNL A   1      39.880  32.874  35.566  1.00  0.00     0.037 A 
ATOM     84  H   UNL A   1      37.739  34.674  35.281  1.00  0.00     0.065 H 
ATOM     85  H   UNL A   1      38.292  29.521  28.001  1.00  0.00     0.065 H 
ATOM     86  C   UNL A   1      40.338  28.845  29.864  1.00  0.00     0.037 A 
ATOM     87  C   UNL A   1      40.940  31.900  35.589  1.00  0.00     0.049 A 
ATOM     88  C   UNL A   1      41.286  28.691  31.018  1.00  0.00     0.074 A 
ATOM     89  C   UNL A   1      41.860  31.649  36.594  1.00  0.00    -0.036 A 
ATOM     90  N   UNL A   1      41.216  31.006  34.565  1.00  0.00    -0.354 N 
ATOM     91  N   UNL A   1      41.323  29.348  32.150  1.00  0.00    -0.248 NA
ATOM     92  C   UNL A   1      42.331  27.666  30.883  1.00  0.00    -0.034 C 
ATOM     93  C   UNL A   1      42.711  30.626  36.166  1.00  0.00    -0.036 A 
ATOM     94  H   UNL A   1      41.909  32.135  37.503  1.00  0.00     0.065 H 
ATOM     95  C   UNL A   1      42.295  30.209  34.913  1.00  0.00     0.049 A 
ATOM     96  H   UNL A   1      40.720  30.949  33.717  1.00  0.00     0.167 HD
ATOM     97  C   UNL A   1      42.380  28.809  32.869  1.00  0.00     0.074 A 
ATOM     98  C   UNL A   1      42.948  27.757  32.053  1.00  0.00    -0.034 C 
ATOM     99  H   UNL A   1      42.533  27.041  30.086  1.00  0.00     0.065 H 
ATOM    100  H   UNL A   1      43.513  30.248  36.693  1.00  0.00     0.065 H 
ATOM    101  C   UNL A   1      42.840  29.158  34.094  1.00  0.00     0.037 A 
ATOM    102  H   UNL A   1      43.733  27.154  32.345  1.00  0.00     0.065 H 
BRANCH  83 103
ATOM    103  C   UNL A   1      39.727  33.754  36.772  1.00  0.00     0.064 A 
ATOM    104  C   UNL A   1      40.313  35.026  36.830  1.00  0.00     0.173 A 
ATOM    105  C   UNL A   1      38.896  33.364  37.833  1.00  0.00     0.173 A 
ATOM    106  F   UNL A   1      41.125  35.440  35.845  1.00  0.00    -0.203 F 
ATOM    107  C   UNL A   1      40.071  35.877  37.906  1.00  0.00     0.198 A 
ATOM    108  C   UNL A   1      38.638  34.225  38.896  1.00  0.00     0.198 A 
ATOM    109  F   UNL A   1      38.307  32.158  37.822  1.00  0.00    -0.203 F 
ATOM    110  F   UNL A   1      40.651  37.084  37.947  1.00  0.00    -0.200 F 
ATOM    111  C   UNL A   1      39.224  35.481  38.931  1.00  0.00     0.200 A 
ATOM    112  F   UNL A   1      37.810  33.845  39.880  1.00  0.00    -0.200 F 
ATOM    113  F   UNL A   1      38.972  36.311  39.952  1.00  0.00    -0.200 F 
ENDBRANCH  83 103
BRANCH  86 114
ATOM    114  C   UNL A   1      40.455  27.996  28.652  1.00  0.00     0.064 A 
ATOM    115  C   UNL A   1      41.225  28.405  27.556  1.00  0.00     0.173 A 
ATOM    116  C   UNL A   1      39.814  26.750  28.574  1.00  0.00     0.173 A 
ATOM    117  F   UNL A   1      41.838  29.597  27.576  1.00  0.00    -0.203 F 
ATOM    118  C   UNL A   1      41.342  27.605  26.421  1.00  0.00     0.198 A 
ATOM    119  C   UNL A   1      39.955  25.938  27.453  1.00  0.00     0.198 A 
ATOM    120  F   UNL A   1      39.069  26.314  29.599  1.00  0.00    -0.203 F 
ATOM    121  F   UNL A   1      42.054  28.034  25.371  1.00  0.00    -0.200 F 
ATOM    122  C   UNL A   1      40.714  26.368  26.374  1.00  0.00     0.200 A 
ATOM    123  F   UNL A   1      39.361  24.738  27.418  1.00  0.00    -0.200 F 
ATOM    124  F   UNL A   1      40.836  25.593  25.288  1.00  0.00    -0.200 F 
ENDBRANCH  86 114
BRANCH 101 125
ATOM    125  C   UNL A   1      43.994  28.374  34.643  1.00  0.00     0.064 A 
ATOM    126  C   UNL A   1      45.319  28.792  34.457  1.00  0.00     0.173 A 
ATOM    127  C   UNL A   1      43.766  27.216  35.400  1.00  0.00     0.173 A 
ATOM    128  F   UNL A   1      45.586  29.888  33.729  1.00  0.00    -0.203 F 
ATOM    129  C   UNL A   1      46.378  28.064  34.990  1.00  0.00     0.198 A 
ATOM    130  C   UNL A   1      44.827  26.504  35.953  1.00  0.00     0.198 A 
ATOM    131  F   UNL A   1      42.516  26.781  35.612  1.00  0.00    -0.203 F 
ATOM    132  F   UNL A   1      47.640  28.457  34.765  1.00  0.00    -0.200 F 
ATOM    133  C   UNL A   1      46.131  26.925  35.742  1.00  0.00     0.200 A 
ATOM    134  F   UNL A   1      44.586  25.410  36.689  1.00  0.00    -0.200 F 
ATOM    135  F   UNL A   1      47.152  26.228  36.260  1.00  0.00    -0.200 F 
ENDBRANCH 101 125
ENDBRANCH  66  69
ENDBRANCH  56  59
ENDBRANCH  52  55
ENDBRANCH  49  52
ENDBRANCH  46  49
ENDBRANCH   1  46
TORSDOF 17
ENDMDL
