MODEL 1
REMARK VINA RESULT:     -12.5      0.000      0.000
REMARK SMILES O=C(NCCCCCCNC(=O)c1cccc(Nc2ccc([N+](=O)[O-])cc2)c1)c1ccc(-c2c3nc(c(-c4c(F)c(F)c(F)c(F)c4F)c4ccc([nH]4)c(-c4c(F)c(F)c(F)c(F)c4F)c4nc(c(-c5c(F)c(F)c(F)c(F)c5F)c5ccc2[nH]5)C=C4)C=C3)cc1
REMARK SMILES IDX 7 1 6 4 5 7 4 10 3 13 1 14 2 15 29 17 30 18 91 19 31 20
REMARK SMILES IDX 90 22 32 24 33 27 34 28 84 29 35 30 89 31 83 32 85 33 36 34
REMARK SMILES IDX 88 35 82 37 81 39 37 41 69 44 49 45 68 46 50 47 53 48 67 49
REMARK SMILES IDX 86 50 51 51 52 53 66 55 87 56 54 59 38 61 39 62 47 63 40 64
REMARK SMILES IDX 41 65 45 66 48 67 42 68 43 69 46 70 44 71 70 72 71 73 79 74
REMARK SMILES IDX 72 75 73 76 77 77 80 78 74 79 75 80 78 81 76 82 55 83 56 84
REMARK SMILES IDX 64 85 57 86 58 87 62 88 65 89 59 90 60 91 63 92 61 93 8 94
REMARK SMILES IDX 9 97 10 100 11 101 12 103 13 104 14 105 28 106 15 107 17 109
REMARK SMILES IDX 16 111 18 114 19 116 20 117 27 118 21 119 26 121 22 123
REMARK SMILES IDX 23 126 24 127 25 128
REMARK H PARENT 7 2 7 3 6 5 6 6 5 8 5 9 4 11 4 12 3 16 30 21 91 23 31 25 90 26
REMARK H PARENT 89 36 83 38 85 40 88 42 82 43 50 52 53 54 86 57 51 58 87 60
REMARK H PARENT 8 95 8 96 9 98 9 99 10 102 14 108 28 110 15 112 16 113 18 115
REMARK H PARENT 20 120 27 122 21 124 26 125
REMARK Flexibility Score: inf
ROOT
ATOM      1  C   UNL A   1      36.961  21.747  24.333  1.00  0.00    -0.052 C 
ATOM      2  H   UNL A   1      35.994  22.011  23.959  1.00  0.00     0.027 H 
ATOM      3  H   UNL A   1      37.708  21.639  23.575  1.00  0.00     0.027 H 
ENDROOT
BRANCH   1   4
ATOM      4  C   UNL A   1      36.847  20.374  25.003  1.00  0.00    -0.052 C 
ATOM      5  H   UNL A   1      36.595  20.529  26.031  1.00  0.00     0.027 H 
ATOM      6  H   UNL A   1      36.103  19.840  24.451  1.00  0.00     0.027 H 
BRANCH   4   7
ATOM      7  C   UNL A   1      38.107  19.512  24.952  1.00  0.00    -0.036 C 
ATOM      8  H   UNL A   1      37.819  18.494  25.114  1.00  0.00     0.028 H 
ATOM      9  H   UNL A   1      38.547  19.681  23.992  1.00  0.00     0.028 H 
BRANCH   7  10
ATOM     10  C   UNL A   1      39.174  19.868  25.977  1.00  0.00     0.018 C 
ATOM     11  H   UNL A   1      39.472  20.884  25.821  1.00  0.00     0.049 H 
ATOM     12  H   UNL A   1      38.748  19.722  26.948  1.00  0.00     0.049 H 
BRANCH  10  13
ATOM     13  N   UNL A   1      40.352  19.022  25.888  1.00  0.00    -0.352 N 
ATOM     14  O   UNL A   1      42.558  18.548  25.753  1.00  0.00    -0.269 OA
ATOM     15  C   UNL A   1      41.678  19.370  25.990  1.00  0.00     0.251 C 
ATOM     16  H   UNL A   1      40.176  18.065  25.733  1.00  0.00     0.163 HD
BRANCH  15  17
ATOM     17  C   UNL A   1      42.043  20.756  26.359  1.00  0.00     0.039 A 
ATOM     18  C   UNL A   1      42.161  21.743  25.381  1.00  0.00    -0.049 A 
ATOM     19  C   UNL A   1      42.272  21.068  27.703  1.00  0.00    -0.049 A 
ATOM     20  C   UNL A   1      42.653  22.997  25.723  1.00  0.00    -0.053 A 
ATOM     21  H   UNL A   1      41.884  21.544  24.406  1.00  0.00     0.063 H 
ATOM     22  C   UNL A   1      42.678  22.359  28.057  1.00  0.00    -0.053 A 
ATOM     23  H   UNL A   1      42.144  20.348  28.431  1.00  0.00     0.063 H 
ATOM     24  C   UNL A   1      42.901  23.325  27.066  1.00  0.00    -0.014 A 
ATOM     25  H   UNL A   1      42.838  23.692  24.983  1.00  0.00     0.063 H 
ATOM     26  H   UNL A   1      42.814  22.600  29.051  1.00  0.00     0.063 H 
BRANCH  24  27
ATOM     27  C   UNL A   1      43.326  24.710  27.399  1.00  0.00     0.031 A 
ATOM     28  C   UNL A   1      44.719  25.194  27.113  1.00  0.00     0.074 A 
ATOM     29  C   UNL A   1      42.411  25.549  27.923  1.00  0.00     0.049 A 
ATOM     30  N   UNL A   1      45.230  26.386  27.299  1.00  0.00    -0.248 NA
ATOM     31  C   UNL A   1      45.665  24.219  26.552  1.00  0.00    -0.034 C 
ATOM     32  C   UNL A   1      41.034  25.182  28.263  1.00  0.00    -0.036 A 
ATOM     33  N   UNL A   1      42.488  26.880  28.241  1.00  0.00    -0.354 N 
ATOM     34  C   UNL A   1      46.553  26.304  26.884  1.00  0.00     0.074 A 
ATOM     35  C   UNL A   1      46.778  24.935  26.469  1.00  0.00    -0.034 C 
ATOM     36  H   UNL A   1      45.505  23.233  26.289  1.00  0.00     0.065 H 
ATOM     37  C   UNL A   1      40.382  26.272  28.693  1.00  0.00    -0.036 A 
ATOM     38  H   UNL A   1      40.630  24.236  28.184  1.00  0.00     0.065 H 
ATOM     39  C   UNL A   1      41.308  27.397  28.719  1.00  0.00     0.049 A 
ATOM     40  H   UNL A   1      43.308  27.413  28.137  1.00  0.00     0.167 HD
ATOM     41  C   UNL A   1      47.487  27.284  26.843  1.00  0.00     0.037 A 
ATOM     42  H   UNL A   1      47.688  24.564  26.151  1.00  0.00     0.065 H 
ATOM     43  H   UNL A   1      39.386  26.307  28.962  1.00  0.00     0.065 H 
ATOM     44  C   UNL A   1      41.007  28.637  29.145  1.00  0.00     0.037 A 
ATOM     45  C   UNL A   1      47.256  28.646  27.258  1.00  0.00     0.049 A 
ATOM     46  C   UNL A   1      42.069  29.697  29.103  1.00  0.00     0.074 A 
ATOM     47  C   UNL A   1      48.138  29.714  27.251  1.00  0.00    -0.036 A 
ATOM     48  N   UNL A   1      46.053  29.128  27.755  1.00  0.00    -0.354 N 
ATOM     49  N   UNL A   1      43.308  29.610  28.685  1.00  0.00    -0.248 NA
ATOM     50  C   UNL A   1      41.690  31.029  29.591  1.00  0.00    -0.034 C 
ATOM     51  C   UNL A   1      47.480  30.831  27.778  1.00  0.00    -0.036 A 
ATOM     52  H   UNL A   1      49.114  29.691  26.914  1.00  0.00     0.065 H 
ATOM     53  C   UNL A   1      46.175  30.473  28.068  1.00  0.00     0.049 A 
ATOM     54  H   UNL A   1      45.234  28.593  27.867  1.00  0.00     0.167 HD
ATOM     55  C   UNL A   1      43.853  30.874  28.847  1.00  0.00     0.074 A 
ATOM     56  C   UNL A   1      42.801  31.719  29.372  1.00  0.00    -0.034 C 
ATOM     57  H   UNL A   1      40.796  31.344  29.996  1.00  0.00     0.065 H 
ATOM     58  H   UNL A   1      47.899  31.763  27.925  1.00  0.00     0.065 H 
ATOM     59  C   UNL A   1      45.115  31.298  28.592  1.00  0.00     0.037 A 
ATOM     60  H   UNL A   1      42.902  32.730  29.554  1.00  0.00     0.065 H 
BRANCH  41  61
ATOM     61  C   UNL A   1      48.854  26.927  26.334  1.00  0.00     0.064 A 
ATOM     62  C   UNL A   1      49.845  26.418  27.187  1.00  0.00     0.173 A 
ATOM     63  C   UNL A   1      49.160  27.036  24.968  1.00  0.00     0.173 A 
ATOM     64  F   UNL A   1      49.609  26.302  28.502  1.00  0.00    -0.203 F 
ATOM     65  C   UNL A   1      51.095  26.048  26.695  1.00  0.00     0.198 A 
ATOM     66  C   UNL A   1      50.402  26.642  24.475  1.00  0.00     0.198 A 
ATOM     67  F   UNL A   1      48.247  27.511  24.106  1.00  0.00    -0.203 F 
ATOM     68  F   UNL A   1      52.037  25.597  27.534  1.00  0.00    -0.200 F 
ATOM     69  C   UNL A   1      51.369  26.152  25.339  1.00  0.00     0.200 A 
ATOM     70  F   UNL A   1      50.661  26.731  23.163  1.00  0.00    -0.200 F 
ATOM     71  F   UNL A   1      52.568  25.785  24.866  1.00  0.00    -0.200 F 
ENDBRANCH  41  61
BRANCH  44  72
ATOM     72  C   UNL A   1      39.644  28.931  29.657  1.00  0.00     0.064 A 
ATOM     73  C   UNL A   1      38.648  29.445  28.816  1.00  0.00     0.173 A 
ATOM     74  C   UNL A   1      39.310  28.700  31.001  1.00  0.00     0.173 A 
ATOM     75  F   UNL A   1      38.924  29.699  27.529  1.00  0.00    -0.203 F 
ATOM     76  C   UNL A   1      37.377  29.737  29.305  1.00  0.00     0.198 A 
ATOM     77  C   UNL A   1      38.030  28.961  31.479  1.00  0.00     0.198 A 
ATOM     78  F   UNL A   1      40.226  28.201  31.844  1.00  0.00    -0.203 F 
ATOM     79  F   UNL A   1      36.458  30.274  28.491  1.00  0.00    -0.200 F 
ATOM     80  C   UNL A   1      37.067  29.490  30.633  1.00  0.00     0.200 A 
ATOM     81  F   UNL A   1      37.729  28.701  32.759  1.00  0.00    -0.200 F 
ATOM     82  F   UNL A   1      35.841  29.765  31.101  1.00  0.00    -0.200 F 
ENDBRANCH  44  72
BRANCH  59  83
ATOM     83  C   UNL A   1      45.412  32.743  28.861  1.00  0.00     0.064 A 
ATOM     84  C   UNL A   1      45.918  33.171  30.098  1.00  0.00     0.173 A 
ATOM     85  C   UNL A   1      45.195  33.710  27.869  1.00  0.00     0.173 A 
ATOM     86  F   UNL A   1      46.125  32.287  31.085  1.00  0.00    -0.203 F 
ATOM     87  C   UNL A   1      46.163  34.519  30.342  1.00  0.00     0.198 A 
ATOM     88  C   UNL A   1      45.470  35.054  28.106  1.00  0.00     0.198 A 
ATOM     89  F   UNL A   1      44.718  33.351  26.668  1.00  0.00    -0.203 F 
ATOM     90  F   UNL A   1      46.590  34.913  31.549  1.00  0.00    -0.200 F 
ATOM     91  C   UNL A   1      45.944  35.458  29.345  1.00  0.00     0.200 A 
ATOM     92  F   UNL A   1      45.267  35.959  27.138  1.00  0.00    -0.200 F 
ATOM     93  F   UNL A   1      46.178  36.756  29.582  1.00  0.00    -0.200 F 
ENDBRANCH  59  83
ENDBRANCH  24  27
ENDBRANCH  15  17
ENDBRANCH  10  13
ENDBRANCH   7  10
ENDBRANCH   4   7
ENDBRANCH   1   4
BRANCH   1  94
ATOM     94  C   UNL A   1      37.444  22.890  25.232  1.00  0.00    -0.036 C 
ATOM     95  H   UNL A   1      38.143  23.478  24.673  1.00  0.00     0.028 H 
ATOM     96  H   UNL A   1      37.870  22.427  26.097  1.00  0.00     0.028 H 
BRANCH  94  97
ATOM     97  C   UNL A   1      36.350  23.823  25.748  1.00  0.00     0.018 C 
ATOM     98  H   UNL A   1      35.681  24.049  24.944  1.00  0.00     0.049 H 
ATOM     99  H   UNL A   1      36.818  24.708  26.122  1.00  0.00     0.049 H 
BRANCH  97 100
ATOM    100  N   UNL A   1      35.594  23.222  26.832  1.00  0.00    -0.352 N 
ATOM    101  C   UNL A   1      34.290  22.804  26.851  1.00  0.00     0.251 C 
ATOM    102  H   UNL A   1      36.090  23.098  27.674  1.00  0.00     0.163 HD
ATOM    103  O   UNL A   1      33.755  22.496  27.911  1.00  0.00    -0.269 OA
BRANCH 101 104
ATOM    104  C   UNL A   1      33.521  22.729  25.593  1.00  0.00     0.041 A 
ATOM    105  C   UNL A   1      33.073  23.915  25.012  1.00  0.00    -0.049 A 
ATOM    106  C   UNL A   1      33.200  21.489  25.024  1.00  0.00    -0.026 A 
ATOM    107  C   UNL A   1      32.340  23.860  23.832  1.00  0.00    -0.059 A 
ATOM    108  H   UNL A   1      33.283  24.824  25.453  1.00  0.00     0.063 H 
ATOM    109  C   UNL A   1      32.459  21.420  23.839  1.00  0.00     0.039 A 
ATOM    110  H   UNL A   1      33.512  20.620  25.483  1.00  0.00     0.065 H 
ATOM    111  C   UNL A   1      32.047  22.623  23.248  1.00  0.00    -0.039 A 
ATOM    112  H   UNL A   1      32.013  24.732  23.386  1.00  0.00     0.062 H 
ATOM    113  H   UNL A   1      31.517  22.595  22.363  1.00  0.00     0.064 H 
BRANCH 109 114
ATOM    114  N   UNL A   1      32.187  20.157  23.279  1.00  0.00    -0.356 N 
ATOM    115  H   UNL A   1      31.674  20.177  22.439  1.00  0.00     0.167 HD
BRANCH 114 116
ATOM    116  C   UNL A   1      32.533  18.874  23.735  1.00  0.00     0.039 A 
ATOM    117  C   UNL A   1      33.220  18.010  22.871  1.00  0.00    -0.032 A 
ATOM    118  C   UNL A   1      32.313  18.466  25.057  1.00  0.00    -0.032 A 
ATOM    119  C   UNL A   1      33.713  16.785  23.326  1.00  0.00     0.018 A 
ATOM    120  H   UNL A   1      33.365  18.284  21.887  1.00  0.00     0.065 H 
ATOM    121  C   UNL A   1      32.793  17.238  25.520  1.00  0.00     0.018 A 
ATOM    122  H   UNL A   1      31.788  19.081  25.697  1.00  0.00     0.065 H 
ATOM    123  C   UNL A   1      33.513  16.409  24.657  1.00  0.00     0.269 A 
ATOM    124  H   UNL A   1      34.223  16.161  22.682  1.00  0.00     0.070 H 
ATOM    125  H   UNL A   1      32.619  16.947  26.494  1.00  0.00     0.070 H 
BRANCH 123 126
ATOM    126  N   UNL A   1      34.079  15.175  25.149  1.00  0.00     0.062 N 
ATOM    127  O   UNL A   1      35.267  15.077  25.373  1.00  0.00    -0.258 OA
ATOM    128  O   UNL A   1      33.282  14.087  25.418  1.00  0.00    -0.258 OA
ENDBRANCH 123 126
ENDBRANCH 114 116
ENDBRANCH 109 114
ENDBRANCH 101 104
ENDBRANCH  97 100
ENDBRANCH  94  97
ENDBRANCH   1  94
TORSDOF 16
ENDMDL
MODEL 2
REMARK VINA RESULT:     -12.4      6.262     11.771
REMARK SMILES O=C(NCCCCCCNC(=O)c1cccc(Nc2ccc([N+](=O)[O-])cc2)c1)c1ccc(-c2c3nc(c(-c4c(F)c(F)c(F)c(F)c4F)c4ccc([nH]4)c(-c4c(F)c(F)c(F)c(F)c4F)c4nc(c(-c5c(F)c(F)c(F)c(F)c5F)c5ccc2[nH]5)C=C4)C=C3)cc1
REMARK SMILES IDX 7 1 6 4 5 7 4 10 3 13 1 14 2 15 29 17 30 18 91 19 31 20
REMARK SMILES IDX 90 22 32 24 33 27 34 28 84 29 35 30 89 31 83 32 85 33 36 34
REMARK SMILES IDX 88 35 82 37 81 39 37 41 69 44 49 45 68 46 50 47 53 48 67 49
REMARK SMILES IDX 86 50 51 51 52 53 66 55 87 56 54 59 38 61 39 62 47 63 40 64
REMARK SMILES IDX 41 65 45 66 48 67 42 68 43 69 46 70 44 71 70 72 71 73 79 74
REMARK SMILES IDX 72 75 73 76 77 77 80 78 74 79 75 80 78 81 76 82 55 83 56 84
REMARK SMILES IDX 64 85 57 86 58 87 62 88 65 89 59 90 60 91 63 92 61 93 8 94
REMARK SMILES IDX 9 97 10 100 11 101 12 103 13 104 14 105 28 106 15 107 17 109
REMARK SMILES IDX 16 111 18 114 19 116 20 117 27 118 21 119 26 121 22 123
REMARK SMILES IDX 23 126 24 127 25 128
REMARK H PARENT 7 2 7 3 6 5 6 6 5 8 5 9 4 11 4 12 3 16 30 21 91 23 31 25 90 26
REMARK H PARENT 89 36 83 38 85 40 88 42 82 43 50 52 53 54 86 57 51 58 87 60
REMARK H PARENT 8 95 8 96 9 98 9 99 10 102 14 108 28 110 15 112 16 113 18 115
REMARK H PARENT 20 120 27 122 21 124 26 125
REMARK Flexibility Score: inf
ROOT
ATOM      1  C   UNL A   1      32.184  29.674  27.236  1.00  0.00    -0.052 C 
ATOM      2  H   UNL A   1      31.592  28.791  27.121  1.00  0.00     0.027 H 
ATOM      3  H   UNL A   1      32.074  30.154  28.186  1.00  0.00     0.027 H 
ENDROOT
BRANCH   1   4
ATOM      4  C   UNL A   1      31.710  30.696  26.199  1.00  0.00    -0.052 C 
ATOM      5  H   UNL A   1      32.448  30.747  25.425  1.00  0.00     0.027 H 
ATOM      6  H   UNL A   1      30.755  30.351  25.863  1.00  0.00     0.027 H 
BRANCH   4   7
ATOM      7  C   UNL A   1      31.483  32.112  26.725  1.00  0.00    -0.036 C 
ATOM      8  H   UNL A   1      30.969  32.668  25.970  1.00  0.00     0.028 H 
ATOM      9  H   UNL A   1      30.924  32.007  27.632  1.00  0.00     0.028 H 
BRANCH   7  10
ATOM     10  C   UNL A   1      32.748  32.874  27.092  1.00  0.00     0.018 C 
ATOM     11  H   UNL A   1      33.289  32.306  27.822  1.00  0.00     0.049 H 
ATOM     12  H   UNL A   1      33.313  33.009  26.194  1.00  0.00     0.049 H 
BRANCH  10  13
ATOM     13  N   UNL A   1      32.479  34.193  27.640  1.00  0.00    -0.352 N 
ATOM     14  O   UNL A   1      32.631  35.892  29.121  1.00  0.00    -0.269 OA
ATOM     15  C   UNL A   1      33.075  34.827  28.704  1.00  0.00     0.251 C 
ATOM     16  H   UNL A   1      31.770  34.704  27.185  1.00  0.00     0.163 HD
BRANCH  15  17
ATOM     17  C   UNL A   1      34.241  34.203  29.366  1.00  0.00     0.039 A 
ATOM     18  C   UNL A   1      35.540  34.569  29.009  1.00  0.00    -0.049 A 
ATOM     19  C   UNL A   1      34.031  33.237  30.354  1.00  0.00    -0.049 A 
ATOM     20  C   UNL A   1      36.621  33.867  29.527  1.00  0.00    -0.053 A 
ATOM     21  H   UNL A   1      35.697  35.359  28.363  1.00  0.00     0.063 H 
ATOM     22  C   UNL A   1      35.126  32.595  30.943  1.00  0.00    -0.053 A 
ATOM     23  H   UNL A   1      33.071  32.997  30.648  1.00  0.00     0.063 H 
ATOM     24  C   UNL A   1      36.429  32.884  30.512  1.00  0.00    -0.014 A 
ATOM     25  H   UNL A   1      37.573  34.069  29.184  1.00  0.00     0.063 H 
ATOM     26  H   UNL A   1      34.974  31.908  31.698  1.00  0.00     0.063 H 
BRANCH  24  27
ATOM     27  C   UNL A   1      37.619  32.231  31.116  1.00  0.00     0.031 A 
ATOM     28  C   UNL A   1      38.080  32.568  32.506  1.00  0.00     0.074 A 
ATOM     29  C   UNL A   1      38.257  31.282  30.403  1.00  0.00     0.049 A 
ATOM     30  N   UNL A   1      39.069  32.053  33.193  1.00  0.00    -0.248 NA
ATOM     31  C   UNL A   1      37.342  33.622  33.218  1.00  0.00    -0.034 C 
ATOM     32  C   UNL A   1      37.911  30.887  29.035  1.00  0.00    -0.036 A 
ATOM     33  N   UNL A   1      39.307  30.464  30.729  1.00  0.00    -0.354 N 
ATOM     34  C   UNL A   1      39.077  32.719  34.411  1.00  0.00     0.074 A 
ATOM     35  C   UNL A   1      38.015  33.703  34.358  1.00  0.00    -0.034 C 
ATOM     36  H   UNL A   1      36.515  34.159  32.912  1.00  0.00     0.065 H 
ATOM     37  C   UNL A   1      38.699  29.870  28.658  1.00  0.00    -0.036 A 
ATOM     38  H   UNL A   1      37.178  31.322  28.454  1.00  0.00     0.065 H 
ATOM     39  C   UNL A   1      39.644  29.583  29.730  1.00  0.00     0.049 A 
ATOM     40  H   UNL A   1      39.773  30.503  31.594  1.00  0.00     0.167 HD
ATOM     41  C   UNL A   1      39.888  32.519  35.478  1.00  0.00     0.037 A 
ATOM     42  H   UNL A   1      37.809  34.380  35.110  1.00  0.00     0.065 H 
ATOM     43  H   UNL A   1      38.645  29.372  27.755  1.00  0.00     0.065 H 
ATOM     44  C   UNL A   1      40.616  28.655  29.676  1.00  0.00     0.037 A 
ATOM     45  C   UNL A   1      40.943  31.537  35.524  1.00  0.00     0.049 A 
ATOM     46  C   UNL A   1      41.510  28.468  30.868  1.00  0.00     0.074 A 
ATOM     47  C   UNL A   1      41.817  31.254  36.560  1.00  0.00    -0.036 A 
ATOM     48  N   UNL A   1      41.268  30.675  34.485  1.00  0.00    -0.354 N 
ATOM     49  N   UNL A   1      41.488  29.089  32.022  1.00  0.00    -0.248 NA
ATOM     50  C   UNL A   1      42.561  27.450  30.751  1.00  0.00    -0.034 C 
ATOM     51  C   UNL A   1      42.693  30.249  36.136  1.00  0.00    -0.036 A 
ATOM     52  H   UNL A   1      41.821  31.707  37.488  1.00  0.00     0.065 H 
ATOM     53  C   UNL A   1      42.336  29.871  34.853  1.00  0.00     0.049 A 
ATOM     54  H   UNL A   1      40.807  30.640  33.616  1.00  0.00     0.167 HD
ATOM     55  C   UNL A   1      42.512  28.531  32.772  1.00  0.00     0.074 A 
ATOM     56  C   UNL A   1      43.115  27.499  31.954  1.00  0.00    -0.034 C 
ATOM     57  H   UNL A   1      42.805  26.855  29.945  1.00  0.00     0.065 H 
ATOM     58  H   UNL A   1      43.473  29.857  36.686  1.00  0.00     0.065 H 
ATOM     59  C   UNL A   1      42.924  28.850  34.024  1.00  0.00     0.037 A 
ATOM     60  H   UNL A   1      43.879  26.881  32.267  1.00  0.00     0.065 H 
BRANCH  41  61
ATOM     61  C   UNL A   1      39.673  33.378  36.691  1.00  0.00     0.064 A 
ATOM     62  C   UNL A   1      40.332  34.607  36.845  1.00  0.00     0.173 A 
ATOM     63  C   UNL A   1      38.754  33.000  37.682  1.00  0.00     0.173 A 
ATOM     64  F   UNL A   1      41.228  35.011  35.932  1.00  0.00    -0.203 F 
ATOM     65  C   UNL A   1      40.092  35.416  37.953  1.00  0.00     0.198 A 
ATOM     66  C   UNL A   1      38.497  33.824  38.776  1.00  0.00     0.198 A 
ATOM     67  F   UNL A   1      38.091  31.838  37.581  1.00  0.00    -0.203 F 
ATOM     68  F   UNL A   1      40.759  36.569  38.096  1.00  0.00    -0.200 F 
ATOM     69  C   UNL A   1      39.169  35.028  38.912  1.00  0.00     0.200 A 
ATOM     70  F   UNL A   1      37.595  33.453  39.695  1.00  0.00    -0.200 F 
ATOM     71  F   UNL A   1      38.930  35.814  39.971  1.00  0.00    -0.200 F 
ENDBRANCH  41  61
BRANCH  44  72
ATOM     72  C   UNL A   1      40.797  27.845  28.443  1.00  0.00     0.064 A 
ATOM     73  C   UNL A   1      40.155  26.609  28.287  1.00  0.00     0.173 A 
ATOM     74  C   UNL A   1      41.613  28.295  27.395  1.00  0.00     0.173 A 
ATOM     75  F   UNL A   1      39.378  26.129  29.269  1.00  0.00    -0.203 F 
ATOM     76  C   UNL A   1      40.342  25.844  27.139  1.00  0.00     0.198 A 
ATOM     77  C   UNL A   1      41.772  27.544  26.234  1.00  0.00     0.198 A 
ATOM     78  F   UNL A   1      42.243  29.475  27.493  1.00  0.00    -0.203 F 
ATOM     79  F   UNL A   1      39.756  24.644  27.034  1.00  0.00    -0.200 F 
ATOM     80  C   UNL A   1      41.145  26.315  26.110  1.00  0.00     0.200 A 
ATOM     81  F   UNL A   1      42.533  28.013  25.235  1.00  0.00    -0.200 F 
ATOM     82  F   UNL A   1      41.318  25.581  25.002  1.00  0.00    -0.200 F 
ENDBRANCH  44  72
BRANCH  59  83
ATOM     83  C   UNL A   1      44.066  28.055  34.584  1.00  0.00     0.064 A 
ATOM     84  C   UNL A   1      45.395  28.481  34.442  1.00  0.00     0.173 A 
ATOM     85  C   UNL A   1      43.828  26.859  35.277  1.00  0.00     0.173 A 
ATOM     86  F   UNL A   1      45.675  29.609  33.772  1.00  0.00    -0.203 F 
ATOM     87  C   UNL A   1      46.447  27.720  34.944  1.00  0.00     0.198 A 
ATOM     88  C   UNL A   1      44.881  26.116  35.803  1.00  0.00     0.198 A 
ATOM     89  F   UNL A   1      42.575  26.412  35.444  1.00  0.00    -0.203 F 
ATOM     90  F   UNL A   1      47.712  28.114  34.746  1.00  0.00    -0.200 F 
ATOM     91  C   UNL A   1      46.189  26.541  35.628  1.00  0.00     0.200 A 
ATOM     92  F   UNL A   1      44.629  24.982  36.473  1.00  0.00    -0.200 F 
ATOM     93  F   UNL A   1      47.202  25.808  36.109  1.00  0.00    -0.200 F 
ENDBRANCH  59  83
ENDBRANCH  24  27
ENDBRANCH  15  17
ENDBRANCH  10  13
ENDBRANCH   7  10
ENDBRANCH   4   7
ENDBRANCH   1   4
BRANCH   1  94
ATOM     94  C   UNL A   1      33.659  29.266  27.145  1.00  0.00    -0.036 C 
ATOM     95  H   UNL A   1      33.901  28.702  28.023  1.00  0.00     0.028 H 
ATOM     96  H   UNL A   1      34.213  30.176  27.054  1.00  0.00     0.028 H 
BRANCH  94  97
ATOM     97  C   UNL A   1      34.028  28.422  25.927  1.00  0.00     0.018 C 
ATOM     98  H   UNL A   1      35.010  28.695  25.602  1.00  0.00     0.049 H 
ATOM     99  H   UNL A   1      33.303  28.606  25.163  1.00  0.00     0.049 H 
BRANCH  97 100
ATOM    100  N   UNL A   1      34.012  27.002  26.228  1.00  0.00    -0.352 N 
ATOM    101  C   UNL A   1      33.318  25.994  25.613  1.00  0.00     0.251 C 
ATOM    102  H   UNL A   1      34.582  26.724  26.982  1.00  0.00     0.163 HD
ATOM    103  O   UNL A   1      33.272  24.877  26.119  1.00  0.00    -0.269 OA
BRANCH 101 104
ATOM    104  C   UNL A   1      32.617  26.251  24.339  1.00  0.00     0.041 A 
ATOM    105  C   UNL A   1      33.274  25.957  23.144  1.00  0.00    -0.049 A 
ATOM    106  C   UNL A   1      31.341  26.829  24.329  1.00  0.00    -0.026 A 
ATOM    107  C   UNL A   1      32.630  26.201  21.936  1.00  0.00    -0.059 A 
ATOM    108  H   UNL A   1      34.227  25.562  23.156  1.00  0.00     0.063 H 
ATOM    109  C   UNL A   1      30.684  27.084  23.121  1.00  0.00     0.039 A 
ATOM    110  H   UNL A   1      30.882  27.069  25.221  1.00  0.00     0.065 H 
ATOM    111  C   UNL A   1      31.343  26.750  21.929  1.00  0.00    -0.039 A 
ATOM    112  H   UNL A   1      33.101  25.977  21.045  1.00  0.00     0.062 H 
ATOM    113  H   UNL A   1      30.869  26.911  21.027  1.00  0.00     0.064 H 
BRANCH 109 114
ATOM    114  N   UNL A   1      29.389  27.634  23.152  1.00  0.00    -0.356 N 
ATOM    115  H   UNL A   1      28.667  26.987  23.321  1.00  0.00     0.167 HD
BRANCH 114 116
ATOM    116  C   UNL A   1      28.967  28.963  22.980  1.00  0.00     0.039 A 
ATOM    117  C   UNL A   1      29.580  29.972  23.736  1.00  0.00    -0.032 A 
ATOM    118  C   UNL A   1      28.033  29.329  22.002  1.00  0.00    -0.032 A 
ATOM    119  C   UNL A   1      29.299  31.318  23.493  1.00  0.00     0.018 A 
ATOM    120  H   UNL A   1      30.248  29.717  24.479  1.00  0.00     0.065 H 
ATOM    121  C   UNL A   1      27.737  30.673  21.758  1.00  0.00     0.018 A 
ATOM    122  H   UNL A   1      27.557  28.596  21.455  1.00  0.00     0.065 H 
ATOM    123  C   UNL A   1      28.389  31.667  22.491  1.00  0.00     0.269 A 
ATOM    124  H   UNL A   1      29.762  32.053  24.051  1.00  0.00     0.070 H 
ATOM    125  H   UNL A   1      27.043  30.930  21.039  1.00  0.00     0.070 H 
BRANCH 123 126
ATOM    126  N   UNL A   1      28.147  33.059  22.192  1.00  0.00     0.062 N 
ATOM    127  O   UNL A   1      28.408  33.927  22.998  1.00  0.00    -0.258 OA
ATOM    128  O   UNL A   1      27.652  33.445  20.968  1.00  0.00    -0.258 OA
ENDBRANCH 123 126
ENDBRANCH 114 116
ENDBRANCH 109 114
ENDBRANCH 101 104
ENDBRANCH  97 100
ENDBRANCH  94  97
ENDBRANCH   1  94
TORSDOF 16
ENDMDL
MODEL 3
REMARK VINA RESULT:     -12.4      4.453      9.534
REMARK SMILES O=C(NCCCCCCNC(=O)c1cccc(Nc2ccc([N+](=O)[O-])cc2)c1)c1ccc(-c2c3nc(c(-c4c(F)c(F)c(F)c(F)c4F)c4ccc([nH]4)c(-c4c(F)c(F)c(F)c(F)c4F)c4nc(c(-c5c(F)c(F)c(F)c(F)c5F)c5ccc2[nH]5)C=C4)C=C3)cc1
REMARK SMILES IDX 7 1 6 4 5 7 4 10 3 13 1 14 2 15 29 17 30 18 91 19 31 20
REMARK SMILES IDX 90 22 32 24 33 27 34 28 84 29 35 30 89 31 83 32 85 33 36 34
REMARK SMILES IDX 88 35 82 37 81 39 37 41 69 44 49 45 68 46 50 47 53 48 67 49
REMARK SMILES IDX 86 50 51 51 52 53 66 55 87 56 54 59 38 61 39 62 47 63 40 64
REMARK SMILES IDX 41 65 45 66 48 67 42 68 43 69 46 70 44 71 70 72 71 73 79 74
REMARK SMILES IDX 72 75 73 76 77 77 80 78 74 79 75 80 78 81 76 82 55 83 56 84
REMARK SMILES IDX 64 85 57 86 58 87 62 88 65 89 59 90 60 91 63 92 61 93 8 94
REMARK SMILES IDX 9 97 10 100 11 101 12 103 13 104 14 105 28 106 15 107 17 109
REMARK SMILES IDX 16 111 18 114 19 116 20 117 27 118 21 119 26 121 22 123
REMARK SMILES IDX 23 126 24 127 25 128
REMARK H PARENT 7 2 7 3 6 5 6 6 5 8 5 9 4 11 4 12 3 16 30 21 91 23 31 25 90 26
REMARK H PARENT 89 36 83 38 85 40 88 42 82 43 50 52 53 54 86 57 51 58 87 60
REMARK H PARENT 8 95 8 96 9 98 9 99 10 102 14 108 28 110 15 112 16 113 18 115
REMARK H PARENT 20 120 27 122 21 124 26 125
REMARK Flexibility Score: inf
ROOT
ATOM      1  C   UNL A   1      30.977  27.325  26.474  1.00  0.00    -0.052 C 
ATOM      2  H   UNL A   1      30.442  28.196  26.792  1.00  0.00     0.027 H 
ATOM      3  H   UNL A   1      30.759  26.446  27.045  1.00  0.00     0.027 H 
ENDROOT
BRANCH   1   4
ATOM      4  C   UNL A   1      32.471  27.592  26.676  1.00  0.00    -0.052 C 
ATOM      5  H   UNL A   1      32.571  28.500  27.234  1.00  0.00     0.027 H 
ATOM      6  H   UNL A   1      32.857  26.731  27.180  1.00  0.00     0.027 H 
BRANCH   4   7
ATOM      7  C   UNL A   1      33.293  27.733  25.397  1.00  0.00    -0.036 C 
ATOM      8  H   UNL A   1      34.087  27.016  25.432  1.00  0.00     0.028 H 
ATOM      9  H   UNL A   1      32.613  27.576  24.586  1.00  0.00     0.028 H 
BRANCH   7  10
ATOM     10  C   UNL A   1      33.908  29.107  25.174  1.00  0.00     0.018 C 
ATOM     11  H   UNL A   1      34.898  29.109  25.584  1.00  0.00     0.049 H 
ATOM     12  H   UNL A   1      33.913  29.289  24.120  1.00  0.00     0.049 H 
BRANCH  10  13
ATOM     13  N   UNL A   1      33.148  30.178  25.798  1.00  0.00    -0.352 N 
ATOM     14  O   UNL A   1      32.610  31.674  27.403  1.00  0.00    -0.269 OA
ATOM     15  C   UNL A   1      33.432  30.892  26.937  1.00  0.00     0.251 C 
ATOM     16  H   UNL A   1      32.312  30.427  25.339  1.00  0.00     0.163 HD
BRANCH  15  17
ATOM     17  C   UNL A   1      34.729  30.690  27.621  1.00  0.00     0.039 A 
ATOM     18  C   UNL A   1      35.054  29.452  28.175  1.00  0.00    -0.049 A 
ATOM     19  C   UNL A   1      35.628  31.757  27.711  1.00  0.00    -0.049 A 
ATOM     20  C   UNL A   1      36.203  29.322  28.946  1.00  0.00    -0.053 A 
ATOM     21  H   UNL A   1      34.444  28.635  28.013  1.00  0.00     0.063 H 
ATOM     22  C   UNL A   1      36.830  31.597  28.408  1.00  0.00    -0.053 A 
ATOM     23  H   UNL A   1      35.406  32.661  27.265  1.00  0.00     0.063 H 
ATOM     24  C   UNL A   1      37.113  30.386  29.058  1.00  0.00    -0.014 A 
ATOM     25  H   UNL A   1      36.389  28.435  29.440  1.00  0.00     0.063 H 
ATOM     26  H   UNL A   1      37.510  32.372  28.446  1.00  0.00     0.063 H 
BRANCH  24  27
ATOM     27  C   UNL A   1      38.380  30.171  29.803  1.00  0.00     0.031 A 
ATOM     28  C   UNL A   1      38.572  30.703  31.195  1.00  0.00     0.074 A 
ATOM     29  C   UNL A   1      39.347  29.438  29.219  1.00  0.00     0.049 A 
ATOM     30  N   UNL A   1      39.597  30.559  31.997  1.00  0.00    -0.248 NA
ATOM     31  C   UNL A   1      37.477  31.504  31.762  1.00  0.00    -0.034 C 
ATOM     32  C   UNL A   1      39.280  28.888  27.862  1.00  0.00    -0.036 A 
ATOM     33  N   UNL A   1      40.561  29.008  29.690  1.00  0.00    -0.354 N 
ATOM     34  C   UNL A   1      39.277  31.253  33.157  1.00  0.00     0.074 A 
ATOM     35  C   UNL A   1      37.975  31.848  32.943  1.00  0.00    -0.034 C 
ATOM     36  H   UNL A   1      36.560  31.738  31.350  1.00  0.00     0.065 H 
ATOM     37  C   UNL A   1      40.377  28.154  27.630  1.00  0.00    -0.036 A 
ATOM     38  H   UNL A   1      38.510  29.041  27.193  1.00  0.00     0.065 H 
ATOM     39  C   UNL A   1      41.252  28.231  28.793  1.00  0.00     0.049 A 
ATOM     40  H   UNL A   1      40.903  29.235  30.585  1.00  0.00     0.167 HD
ATOM     41  C   UNL A   1      39.999  31.370  34.297  1.00  0.00     0.037 A 
ATOM     42  H   UNL A   1      37.495  32.462  33.621  1.00  0.00     0.065 H 
ATOM     43  H   UNL A   1      40.570  27.621  26.767  1.00  0.00     0.065 H 
ATOM     44  C   UNL A   1      42.464  27.655  28.889  1.00  0.00     0.037 A 
ATOM     45  C   UNL A   1      41.296  30.773  34.504  1.00  0.00     0.049 A 
ATOM     46  C   UNL A   1      43.247  27.817  30.160  1.00  0.00     0.074 A 
ATOM     47  C   UNL A   1      42.106  30.831  35.626  1.00  0.00    -0.036 A 
ATOM     48  N   UNL A   1      41.973  30.008  33.564  1.00  0.00    -0.354 N 
ATOM     49  N   UNL A   1      42.919  28.454  31.257  1.00  0.00    -0.248 NA
ATOM     50  C   UNL A   1      44.568  27.177  30.206  1.00  0.00    -0.034 C 
ATOM     51  C   UNL A   1      43.287  30.133  35.352  1.00  0.00    -0.036 A 
ATOM     52  H   UNL A   1      41.877  31.306  36.513  1.00  0.00     0.065 H 
ATOM     53  C   UNL A   1      43.195  29.600  34.078  1.00  0.00     0.049 A 
ATOM     54  H   UNL A   1      41.635  29.788  32.666  1.00  0.00     0.167 HD
ATOM     55  C   UNL A   1      43.985  28.284  32.128  1.00  0.00     0.074 A 
ATOM     56  C   UNL A   1      44.955  27.456  31.443  1.00  0.00    -0.034 C 
ATOM     57  H   UNL A   1      45.062  26.650  29.471  1.00  0.00     0.065 H 
ATOM     58  H   UNL A   1      44.091  30.034  35.992  1.00  0.00     0.065 H 
ATOM     59  C   UNL A   1      44.150  28.776  33.380  1.00  0.00     0.037 A 
ATOM     60  H   UNL A   1      45.838  27.126  31.863  1.00  0.00     0.065 H 
BRANCH  41  61
ATOM     61  C   UNL A   1      39.409  32.175  35.419  1.00  0.00     0.064 A 
ATOM     62  C   UNL A   1      38.569  31.591  36.379  1.00  0.00     0.173 A 
ATOM     63  C   UNL A   1      39.734  33.533  35.574  1.00  0.00     0.173 A 
ATOM     64  F   UNL A   1      38.220  30.300  36.272  1.00  0.00    -0.203 F 
ATOM     65  C   UNL A   1      38.064  32.337  37.440  1.00  0.00     0.198 A 
ATOM     66  C   UNL A   1      39.247  34.270  36.650  1.00  0.00     0.198 A 
ATOM     67  F   UNL A   1      40.539  34.140  34.688  1.00  0.00    -0.203 F 
ATOM     68  F   UNL A   1      37.235  31.766  38.325  1.00  0.00    -0.200 F 
ATOM     69  C   UNL A   1      38.409  33.673  37.580  1.00  0.00     0.200 A 
ATOM     70  F   UNL A   1      39.592  35.557  36.791  1.00  0.00    -0.200 F 
ATOM     71  F   UNL A   1      37.931  34.387  38.609  1.00  0.00    -0.200 F 
ENDBRANCH  41  61
BRANCH  44  72
ATOM     72  C   UNL A   1      43.008  26.884  27.741  1.00  0.00     0.064 A 
ATOM     73  C   UNL A   1      42.784  25.506  27.622  1.00  0.00     0.173 A 
ATOM     74  C   UNL A   1      43.762  27.514  26.739  1.00  0.00     0.173 A 
ATOM     75  F   UNL A   1      42.084  24.857  28.563  1.00  0.00    -0.203 F 
ATOM     76  C   UNL A   1      43.311  24.784  26.554  1.00  0.00     0.198 A 
ATOM     77  C   UNL A   1      44.260  26.796  25.656  1.00  0.00     0.198 A 
ATOM     78  F   UNL A   1      43.998  28.833  26.804  1.00  0.00    -0.203 F 
ATOM     79  F   UNL A   1      43.124  23.459  26.488  1.00  0.00    -0.200 F 
ATOM     80  C   UNL A   1      44.044  25.430  25.569  1.00  0.00     0.200 A 
ATOM     81  F   UNL A   1      44.950  27.428  24.696  1.00  0.00    -0.200 F 
ATOM     82  F   UNL A   1      44.545  24.735  24.539  1.00  0.00    -0.200 F 
ENDBRANCH  44  72
BRANCH  59  83
ATOM     83  C   UNL A   1      45.419  28.410  34.089  1.00  0.00     0.064 A 
ATOM     84  C   UNL A   1      45.497  27.279  34.917  1.00  0.00     0.173 A 
ATOM     85  C   UNL A   1      46.572  29.193  33.936  1.00  0.00     0.173 A 
ATOM     86  F   UNL A   1      44.417  26.508  35.110  1.00  0.00    -0.203 F 
ATOM     87  C   UNL A   1      46.674  26.966  35.590  1.00  0.00     0.198 A 
ATOM     88  C   UNL A   1      47.756  28.860  34.588  1.00  0.00     0.198 A 
ATOM     89  F   UNL A   1      46.551  30.281  33.152  1.00  0.00    -0.203 F 
ATOM     90  F   UNL A   1      46.709  25.916  36.421  1.00  0.00    -0.200 F 
ATOM     91  C   UNL A   1      47.803  27.754  35.421  1.00  0.00     0.200 A 
ATOM     92  F   UNL A   1      48.850  29.617  34.415  1.00  0.00    -0.200 F 
ATOM     93  F   UNL A   1      48.935  27.452  36.072  1.00  0.00    -0.200 F 
ENDBRANCH  59  83
ENDBRANCH  24  27
ENDBRANCH  15  17
ENDBRANCH  10  13
ENDBRANCH   7  10
ENDBRANCH   4   7
ENDBRANCH   1   4
BRANCH   1  94
ATOM     94  C   UNL A   1      30.544  27.006  25.039  1.00  0.00    -0.036 C 
ATOM     95  H   UNL A   1      31.407  27.077  24.410  1.00  0.00     0.028 H 
ATOM     96  H   UNL A   1      29.778  27.712  24.797  1.00  0.00     0.028 H 
BRANCH  94  97
ATOM     97  C   UNL A   1      29.925  25.625  24.835  1.00  0.00     0.018 C 
ATOM     98  H   UNL A   1      30.581  25.038  24.228  1.00  0.00     0.049 H 
ATOM     99  H   UNL A   1      28.974  25.753  24.363  1.00  0.00     0.049 H 
BRANCH  97 100
ATOM    100  N   UNL A   1      29.711  24.937  26.095  1.00  0.00    -0.352 N 
ATOM    101  C   UNL A   1      30.307  23.801  26.574  1.00  0.00     0.251 C 
ATOM    102  H   UNL A   1      29.041  25.346  26.691  1.00  0.00     0.163 HD
ATOM    103  O   UNL A   1      29.868  23.248  27.578  1.00  0.00    -0.269 OA
BRANCH 101 104
ATOM    104  C   UNL A   1      31.479  23.233  25.879  1.00  0.00     0.041 A 
ATOM    105  C   UNL A   1      32.695  23.912  25.956  1.00  0.00    -0.049 A 
ATOM    106  C   UNL A   1      31.360  22.067  25.112  1.00  0.00    -0.026 A 
ATOM    107  C   UNL A   1      33.806  23.395  25.300  1.00  0.00    -0.059 A 
ATOM    108  H   UNL A   1      32.770  24.789  26.495  1.00  0.00     0.063 H 
ATOM    109  C   UNL A   1      32.470  21.538  24.443  1.00  0.00     0.039 A 
ATOM    110  H   UNL A   1      30.447  21.593  25.039  1.00  0.00     0.065 H 
ATOM    111  C   UNL A   1      33.693  22.213  24.560  1.00  0.00    -0.039 A 
ATOM    112  H   UNL A   1      34.715  23.882  25.359  1.00  0.00     0.062 H 
ATOM    113  H   UNL A   1      34.529  21.830  24.091  1.00  0.00     0.064 H 
BRANCH 109 114
ATOM    114  N   UNL A   1      32.318  20.345  23.711  1.00  0.00    -0.356 N 
ATOM    115  H   UNL A   1      31.943  20.457  22.808  1.00  0.00     0.167 HD
BRANCH 114 116
ATOM    116  C   UNL A   1      32.621  19.021  24.070  1.00  0.00     0.039 A 
ATOM    117  C   UNL A   1      33.147  18.159  23.099  1.00  0.00    -0.032 A 
ATOM    118  C   UNL A   1      32.517  18.563  25.390  1.00  0.00    -0.032 A 
ATOM    119  C   UNL A   1      33.598  16.882  23.444  1.00  0.00     0.018 A 
ATOM    120  H   UNL A   1      33.203  18.471  22.117  1.00  0.00     0.065 H 
ATOM    121  C   UNL A   1      32.957  17.285  25.744  1.00  0.00     0.018 A 
ATOM    122  H   UNL A   1      32.109  19.179  26.110  1.00  0.00     0.065 H 
ATOM    123  C   UNL A   1      33.518  16.454  24.772  1.00  0.00     0.269 A 
ATOM    124  H   UNL A   1      33.991  16.259  22.722  1.00  0.00     0.070 H 
ATOM    125  H   UNL A   1      32.869  16.957  26.719  1.00  0.00     0.070 H 
BRANCH 123 126
ATOM    126  N   UNL A   1      34.046  15.163  25.145  1.00  0.00     0.062 N 
ATOM    127  O   UNL A   1      35.242  14.977  25.230  1.00  0.00    -0.258 OA
ATOM    128  O   UNL A   1      33.208  14.118  25.456  1.00  0.00    -0.258 OA
ENDBRANCH 123 126
ENDBRANCH 114 116
ENDBRANCH 109 114
ENDBRANCH 101 104
ENDBRANCH  97 100
ENDBRANCH  94  97
ENDBRANCH   1  94
TORSDOF 16
ENDMDL
MODEL 4
REMARK VINA RESULT:     -12.3      5.597     10.998
REMARK SMILES O=C(NCCCCCCNC(=O)c1cccc(Nc2ccc([N+](=O)[O-])cc2)c1)c1ccc(-c2c3nc(c(-c4c(F)c(F)c(F)c(F)c4F)c4ccc([nH]4)c(-c4c(F)c(F)c(F)c(F)c4F)c4nc(c(-c5c(F)c(F)c(F)c(F)c5F)c5ccc2[nH]5)C=C4)C=C3)cc1
REMARK SMILES IDX 7 1 6 4 5 7 4 10 3 13 1 14 2 15 29 17 30 18 91 19 31 20
REMARK SMILES IDX 90 22 32 24 33 27 34 28 84 29 35 30 89 31 83 32 85 33 36 34
REMARK SMILES IDX 88 35 82 37 81 39 37 41 69 44 49 45 68 46 50 47 53 48 67 49
REMARK SMILES IDX 86 50 51 51 52 53 66 55 87 56 54 59 38 61 39 62 47 63 40 64
REMARK SMILES IDX 41 65 45 66 48 67 42 68 43 69 46 70 44 71 70 72 71 73 79 74
REMARK SMILES IDX 72 75 73 76 77 77 80 78 74 79 75 80 78 81 76 82 55 83 56 84
REMARK SMILES IDX 64 85 57 86 58 87 62 88 65 89 59 90 60 91 63 92 61 93 8 94
REMARK SMILES IDX 9 97 10 100 11 101 12 103 13 104 14 105 28 106 15 107 17 109
REMARK SMILES IDX 16 111 18 114 19 116 20 117 27 118 21 119 26 121 22 123
REMARK SMILES IDX 23 126 24 127 25 128
REMARK H PARENT 7 2 7 3 6 5 6 6 5 8 5 9 4 11 4 12 3 16 30 21 91 23 31 25 90 26
REMARK H PARENT 89 36 83 38 85 40 88 42 82 43 50 52 53 54 86 57 51 58 87 60
REMARK H PARENT 8 95 8 96 9 98 9 99 10 102 14 108 28 110 15 112 16 113 18 115
REMARK H PARENT 20 120 27 122 21 124 26 125
REMARK Flexibility Score: inf
ROOT
ATOM      1  C   UNL A   1      33.706  26.583  25.918  1.00  0.00    -0.052 C 
ATOM      2  H   UNL A   1      34.386  27.060  26.592  1.00  0.00     0.027 H 
ATOM      3  H   UNL A   1      33.733  26.973  24.922  1.00  0.00     0.027 H 
ENDROOT
BRANCH   1   4
ATOM      4  C   UNL A   1      32.284  26.839  26.425  1.00  0.00    -0.052 C 
ATOM      5  H   UNL A   1      31.606  26.314  25.785  1.00  0.00     0.027 H 
ATOM      6  H   UNL A   1      32.269  26.502  27.440  1.00  0.00     0.027 H 
BRANCH   4   7
ATOM      7  C   UNL A   1      31.854  28.305  26.463  1.00  0.00    -0.036 C 
ATOM      8  H   UNL A   1      30.994  28.415  25.836  1.00  0.00     0.028 H 
ATOM      9  H   UNL A   1      31.662  28.532  27.491  1.00  0.00     0.028 H 
BRANCH   7  10
ATOM     10  C   UNL A   1      32.907  29.299  25.998  1.00  0.00     0.018 C 
ATOM     11  H   UNL A   1      33.824  29.091  26.511  1.00  0.00     0.049 H 
ATOM     12  H   UNL A   1      33.009  29.186  24.939  1.00  0.00     0.049 H 
BRANCH  10  13
ATOM     13  N   UNL A   1      32.537  30.681  26.254  1.00  0.00    -0.352 N 
ATOM     14  O   UNL A   1      32.609  32.687  27.291  1.00  0.00    -0.269 OA
ATOM     15  C   UNL A   1      33.134  31.597  27.087  1.00  0.00     0.251 C 
ATOM     16  H   UNL A   1      31.748  31.007  25.762  1.00  0.00     0.163 HD
BRANCH  15  17
ATOM     17  C   UNL A   1      34.403  31.251  27.763  1.00  0.00     0.039 A 
ATOM     18  C   UNL A   1      34.611  29.967  28.269  1.00  0.00    -0.049 A 
ATOM     19  C   UNL A   1      35.396  32.226  27.896  1.00  0.00    -0.049 A 
ATOM     20  C   UNL A   1      35.740  29.702  29.035  1.00  0.00    -0.053 A 
ATOM     21  H   UNL A   1      33.929  29.216  28.074  1.00  0.00     0.063 H 
ATOM     22  C   UNL A   1      36.575  31.929  28.588  1.00  0.00    -0.053 A 
ATOM     23  H   UNL A   1      35.260  33.163  27.486  1.00  0.00     0.063 H 
ATOM     24  C   UNL A   1      36.743  30.673  29.189  1.00  0.00    -0.014 A 
ATOM     25  H   UNL A   1      35.841  28.783  29.494  1.00  0.00     0.063 H 
ATOM     26  H   UNL A   1      37.323  32.636  28.657  1.00  0.00     0.063 H 
BRANCH  24  27
ATOM     27  C   UNL A   1      37.981  30.313  29.927  1.00  0.00     0.031 A 
ATOM     28  C   UNL A   1      38.224  30.787  31.332  1.00  0.00     0.074 A 
ATOM     29  C   UNL A   1      38.872  29.503  29.323  1.00  0.00     0.049 A 
ATOM     30  N   UNL A   1      39.229  30.521  32.129  1.00  0.00    -0.248 NA
ATOM     31  C   UNL A   1      37.213  31.677  31.922  1.00  0.00    -0.034 C 
ATOM     32  C   UNL A   1      38.751  28.999  27.952  1.00  0.00    -0.036 A 
ATOM     33  N   UNL A   1      40.036  28.943  29.781  1.00  0.00    -0.354 N 
ATOM     34  C   UNL A   1      38.977  31.211  33.307  1.00  0.00     0.074 A 
ATOM     35  C   UNL A   1      37.741  31.939  33.111  1.00  0.00    -0.034 C 
ATOM     36  H   UNL A   1      36.325  32.012  31.518  1.00  0.00     0.065 H 
ATOM     37  C   UNL A   1      39.771  28.166  27.698  1.00  0.00    -0.036 A 
ATOM     38  H   UNL A   1      38.002  29.246  27.288  1.00  0.00     0.065 H 
ATOM     39  C   UNL A   1      40.648  28.125  28.862  1.00  0.00     0.049 A 
ATOM     40  H   UNL A   1      40.398  29.111  30.680  1.00  0.00     0.167 HD
ATOM     41  C   UNL A   1      39.706  31.226  34.449  1.00  0.00     0.037 A 
ATOM     42  H   UNL A   1      37.324  32.579  33.806  1.00  0.00     0.065 H 
ATOM     43  H   UNL A   1      39.911  27.639  26.822  1.00  0.00     0.065 H 
ATOM     44  C   UNL A   1      41.796  27.429  28.941  1.00  0.00     0.037 A 
ATOM     45  C   UNL A   1      40.937  30.498  34.638  1.00  0.00     0.049 A 
ATOM     46  C   UNL A   1      42.590  27.478  30.215  1.00  0.00     0.074 A 
ATOM     47  C   UNL A   1      41.747  30.445  35.760  1.00  0.00    -0.036 A 
ATOM     48  N   UNL A   1      41.536  29.695  33.678  1.00  0.00    -0.354 N 
ATOM     49  N   UNL A   1      42.326  28.116  31.329  1.00  0.00    -0.248 NA
ATOM     50  C   UNL A   1      43.840  26.710  30.242  1.00  0.00    -0.034 C 
ATOM     51  C   UNL A   1      42.854  29.641  35.466  1.00  0.00    -0.036 A 
ATOM     52  H   UNL A   1      41.566  30.918  36.660  1.00  0.00     0.065 H 
ATOM     53  C   UNL A   1      42.711  29.154  34.178  1.00  0.00     0.049 A 
ATOM     54  H   UNL A   1      41.179  29.533  32.775  1.00  0.00     0.167 HD
ATOM     55  C   UNL A   1      43.368  27.818  32.193  1.00  0.00     0.074 A 
ATOM     56  C   UNL A   1      44.252  26.916  31.485  1.00  0.00    -0.034 C 
ATOM     57  H   UNL A   1      44.281  26.156  29.492  1.00  0.00     0.065 H 
ATOM     58  H   UNL A   1      43.643  29.446  36.102  1.00  0.00     0.065 H 
ATOM     59  C   UNL A   1      43.580  28.258  33.457  1.00  0.00     0.037 A 
ATOM     60  H   UNL A   1      45.097  26.489  31.895  1.00  0.00     0.065 H 
BRANCH  41  61
ATOM     61  C   UNL A   1      39.198  32.056  35.593  1.00  0.00     0.064 A 
ATOM     62  C   UNL A   1      38.381  31.506  36.592  1.00  0.00     0.173 A 
ATOM     63  C   UNL A   1      39.580  33.401  35.726  1.00  0.00     0.173 A 
ATOM     64  F   UNL A   1      37.979  30.229  36.507  1.00  0.00    -0.203 F 
ATOM     65  C   UNL A   1      37.952  32.274  37.672  1.00  0.00     0.198 A 
ATOM     66  C   UNL A   1      39.169  34.159  36.821  1.00  0.00     0.198 A 
ATOM     67  F   UNL A   1      40.365  33.976  34.803  1.00  0.00    -0.203 F 
ATOM     68  F   UNL A   1      37.143  31.737  38.595  1.00  0.00    -0.200 F 
ATOM     69  C   UNL A   1      38.353  33.597  37.789  1.00  0.00     0.200 A 
ATOM     70  F   UNL A   1      39.568  35.433  36.939  1.00  0.00    -0.200 F 
ATOM     71  F   UNL A   1      37.948  34.331  38.835  1.00  0.00    -0.200 F 
ENDBRANCH  41  61
BRANCH  44  72
ATOM     72  C   UNL A   1      42.262  26.638  27.773  1.00  0.00     0.064 A 
ATOM     73  C   UNL A   1      41.807  25.332  27.552  1.00  0.00     0.173 A 
ATOM     74  C   UNL A   1      43.172  27.178  26.851  1.00  0.00     0.173 A 
ATOM     75  F   UNL A   1      40.949  24.767  28.415  1.00  0.00    -0.203 F 
ATOM     76  C   UNL A   1      42.260  24.587  26.466  1.00  0.00     0.198 A 
ATOM     77  C   UNL A   1      43.599  26.444  25.748  1.00  0.00     0.198 A 
ATOM     78  F   UNL A   1      43.632  28.427  27.013  1.00  0.00    -0.203 F 
ATOM     79  F   UNL A   1      41.847  23.323  26.305  1.00  0.00    -0.200 F 
ATOM     80  C   UNL A   1      43.151  25.146  25.562  1.00  0.00     0.200 A 
ATOM     81  F   UNL A   1      44.444  26.995  24.866  1.00  0.00    -0.200 F 
ATOM     82  F   UNL A   1      43.582  24.431  24.513  1.00  0.00    -0.200 F 
ENDBRANCH  44  72
BRANCH  59  83
ATOM     83  C   UNL A   1      44.805  27.749  34.155  1.00  0.00     0.064 A 
ATOM     84  C   UNL A   1      44.785  26.559  34.900  1.00  0.00     0.173 A 
ATOM     85  C   UNL A   1      46.015  28.453  34.073  1.00  0.00     0.173 A 
ATOM     86  F   UNL A   1      43.648  25.859  35.023  1.00  0.00    -0.203 F 
ATOM     87  C   UNL A   1      45.923  26.112  35.565  1.00  0.00     0.198 A 
ATOM     88  C   UNL A   1      47.160  27.987  34.715  1.00  0.00     0.198 A 
ATOM     89  F   UNL A   1      46.088  29.592  33.370  1.00  0.00    -0.203 F 
ATOM     90  F   UNL A   1      45.866  25.006  36.318  1.00  0.00    -0.200 F 
ATOM     91  C   UNL A   1      47.110  26.824  35.467  1.00  0.00     0.200 A 
ATOM     92  F   UNL A   1      48.309  28.670  34.612  1.00  0.00    -0.200 F 
ATOM     93  F   UNL A   1      48.205  26.394  36.110  1.00  0.00    -0.200 F 
ENDBRANCH  59  83
ENDBRANCH  24  27
ENDBRANCH  15  17
ENDBRANCH  10  13
ENDBRANCH   7  10
ENDBRANCH   4   7
ENDBRANCH   1   4
BRANCH   1  94
ATOM     94  C   UNL A   1      34.116  25.111  25.798  1.00  0.00    -0.036 C 
ATOM     95  H   UNL A   1      34.710  24.863  26.655  1.00  0.00     0.028 H 
ATOM     96  H   UNL A   1      34.644  25.025  24.872  1.00  0.00     0.028 H 
BRANCH  94  97
ATOM     97  C   UNL A   1      32.961  24.115  25.722  1.00  0.00     0.018 C 
ATOM     98  H   UNL A   1      32.037  24.653  25.762  1.00  0.00     0.049 H 
ATOM     99  H   UNL A   1      33.051  23.439  26.546  1.00  0.00     0.049 H 
BRANCH  97 100
ATOM    100  N   UNL A   1      32.999  23.336  24.497  1.00  0.00    -0.352 N 
ATOM    101  C   UNL A   1      32.676  23.713  23.221  1.00  0.00     0.251 C 
ATOM    102  H   UNL A   1      33.300  22.404  24.599  1.00  0.00     0.163 HD
ATOM    103  O   UNL A   1      32.581  22.872  22.333  1.00  0.00    -0.269 OA
BRANCH 101 104
ATOM    104  C   UNL A   1      32.434  25.136  22.910  1.00  0.00     0.041 A 
ATOM    105  C   UNL A   1      33.481  25.892  22.382  1.00  0.00    -0.049 A 
ATOM    106  C   UNL A   1      31.197  25.730  23.193  1.00  0.00    -0.026 A 
ATOM    107  C   UNL A   1      33.272  27.235  22.092  1.00  0.00    -0.059 A 
ATOM    108  H   UNL A   1      34.401  25.458  22.207  1.00  0.00     0.063 H 
ATOM    109  C   UNL A   1      30.975  27.082  22.910  1.00  0.00     0.039 A 
ATOM    110  H   UNL A   1      30.443  25.165  23.612  1.00  0.00     0.065 H 
ATOM    111  C   UNL A   1      32.026  27.818  22.345  1.00  0.00    -0.039 A 
ATOM    112  H   UNL A   1      34.035  27.802  21.690  1.00  0.00     0.062 H 
ATOM    113  H   UNL A   1      31.877  28.813  22.110  1.00  0.00     0.064 H 
BRANCH 109 114
ATOM    114  N   UNL A   1      29.707  27.634  23.175  1.00  0.00    -0.356 N 
ATOM    115  H   UNL A   1      29.045  27.001  23.535  1.00  0.00     0.167 HD
BRANCH 114 116
ATOM    116  C   UNL A   1      29.240  28.948  23.004  1.00  0.00     0.039 A 
ATOM    117  C   UNL A   1      29.715  29.952  23.858  1.00  0.00    -0.032 A 
ATOM    118  C   UNL A   1      28.402  29.310  21.942  1.00  0.00    -0.032 A 
ATOM    119  C   UNL A   1      29.394  31.293  23.634  1.00  0.00     0.018 A 
ATOM    120  H   UNL A   1      30.310  29.698  24.662  1.00  0.00     0.065 H 
ATOM    121  C   UNL A   1      28.067  30.648  21.714  1.00  0.00     0.018 A 
ATOM    122  H   UNL A   1      28.026  28.579  21.319  1.00  0.00     0.065 H 
ATOM    123  C   UNL A   1      28.583  31.640  22.550  1.00  0.00     0.269 A 
ATOM    124  H   UNL A   1      29.756  32.025  24.265  1.00  0.00     0.070 H 
ATOM    125  H   UNL A   1      27.443  30.901  20.932  1.00  0.00     0.070 H 
BRANCH 123 126
ATOM    126  N   UNL A   1      28.305  33.030  22.274  1.00  0.00     0.062 N 
ATOM    127  O   UNL A   1      27.679  33.360  21.289  1.00  0.00    -0.258 OA
ATOM    128  O   UNL A   1      28.707  34.019  23.142  1.00  0.00    -0.258 OA
ENDBRANCH 123 126
ENDBRANCH 114 116
ENDBRANCH 109 114
ENDBRANCH 101 104
ENDBRANCH  97 100
ENDBRANCH  94  97
ENDBRANCH   1  94
TORSDOF 16
ENDMDL
MODEL 5
REMARK VINA RESULT:     -12.3      4.479      9.642
REMARK SMILES O=C(NCCCCCCNC(=O)c1cccc(Nc2ccc([N+](=O)[O-])cc2)c1)c1ccc(-c2c3nc(c(-c4c(F)c(F)c(F)c(F)c4F)c4ccc([nH]4)c(-c4c(F)c(F)c(F)c(F)c4F)c4nc(c(-c5c(F)c(F)c(F)c(F)c5F)c5ccc2[nH]5)C=C4)C=C3)cc1
REMARK SMILES IDX 7 1 6 4 5 7 4 10 3 13 1 14 2 15 29 17 30 18 91 19 31 20
REMARK SMILES IDX 90 22 32 24 33 27 34 28 84 29 35 30 89 31 83 32 85 33 36 34
REMARK SMILES IDX 88 35 82 37 81 39 37 41 69 44 49 45 68 46 50 47 53 48 67 49
REMARK SMILES IDX 86 50 51 51 52 53 66 55 87 56 54 59 38 61 39 62 47 63 40 64
REMARK SMILES IDX 41 65 45 66 48 67 42 68 43 69 46 70 44 71 70 72 71 73 79 74
REMARK SMILES IDX 72 75 73 76 77 77 80 78 74 79 75 80 78 81 76 82 55 83 56 84
REMARK SMILES IDX 64 85 57 86 58 87 62 88 65 89 59 90 60 91 63 92 61 93 8 94
REMARK SMILES IDX 9 97 10 100 11 101 12 103 13 104 14 105 28 106 15 107 17 109
REMARK SMILES IDX 16 111 18 114 19 116 20 117 27 118 21 119 26 121 22 123
REMARK SMILES IDX 23 126 24 127 25 128
REMARK H PARENT 7 2 7 3 6 5 6 6 5 8 5 9 4 11 4 12 3 16 30 21 91 23 31 25 90 26
REMARK H PARENT 89 36 83 38 85 40 88 42 82 43 50 52 53 54 86 57 51 58 87 60
REMARK H PARENT 8 95 8 96 9 98 9 99 10 102 14 108 28 110 15 112 16 113 18 115
REMARK H PARENT 20 120 27 122 21 124 26 125
REMARK Flexibility Score: inf
ROOT
ATOM      1  C   UNL A   1      31.105  27.494  22.924  1.00  0.00    -0.052 C 
ATOM      2  H   UNL A   1      31.201  26.840  22.082  1.00  0.00     0.027 H 
ATOM      3  H   UNL A   1      30.872  28.506  22.667  1.00  0.00     0.027 H 
ENDROOT
BRANCH   1   4
ATOM      4  C   UNL A   1      32.461  27.547  23.634  1.00  0.00    -0.052 C 
ATOM      5  H   UNL A   1      32.859  26.554  23.658  1.00  0.00     0.027 H 
ATOM      6  H   UNL A   1      33.057  28.238  23.076  1.00  0.00     0.027 H 
BRANCH   4   7
ATOM      7  C   UNL A   1      32.434  28.078  25.066  1.00  0.00    -0.036 C 
ATOM      8  H   UNL A   1      31.452  28.457  25.261  1.00  0.00     0.028 H 
ATOM      9  H   UNL A   1      32.705  27.256  25.694  1.00  0.00     0.028 H 
BRANCH   7  10
ATOM     10  C   UNL A   1      33.434  29.186  25.362  1.00  0.00     0.018 C 
ATOM     11  H   UNL A   1      34.143  28.824  26.077  1.00  0.00     0.049 H 
ATOM     12  H   UNL A   1      33.901  29.452  24.437  1.00  0.00     0.049 H 
BRANCH  10  13
ATOM     13  N   UNL A   1      32.811  30.386  25.895  1.00  0.00    -0.352 N 
ATOM     14  O   UNL A   1      32.477  32.069  27.366  1.00  0.00    -0.269 OA
ATOM     15  C   UNL A   1      33.197  31.161  26.962  1.00  0.00     0.251 C 
ATOM     16  H   UNL A   1      31.997  30.686  25.426  1.00  0.00     0.163 HD
BRANCH  15  17
ATOM     17  C   UNL A   1      34.478  30.876  27.646  1.00  0.00     0.039 A 
ATOM     18  C   UNL A   1      34.706  29.633  28.238  1.00  0.00    -0.049 A 
ATOM     19  C   UNL A   1      35.463  31.868  27.697  1.00  0.00    -0.049 A 
ATOM     20  C   UNL A   1      35.846  29.435  29.007  1.00  0.00    -0.053 A 
ATOM     21  H   UNL A   1      34.030  28.864  28.106  1.00  0.00     0.063 H 
ATOM     22  C   UNL A   1      36.652  31.633  28.393  1.00  0.00    -0.053 A 
ATOM     23  H   UNL A   1      35.311  32.772  27.222  1.00  0.00     0.063 H 
ATOM     24  C   UNL A   1      36.841  30.424  29.079  1.00  0.00    -0.014 A 
ATOM     25  H   UNL A   1      35.963  28.552  29.528  1.00  0.00     0.063 H 
ATOM     26  H   UNL A   1      37.394  32.350  28.402  1.00  0.00     0.063 H 
BRANCH  24  27
ATOM     27  C   UNL A   1      38.092  30.130  29.825  1.00  0.00     0.031 A 
ATOM     28  C   UNL A   1      38.314  30.644  31.219  1.00  0.00     0.074 A 
ATOM     29  C   UNL A   1      39.014  29.342  29.239  1.00  0.00     0.049 A 
ATOM     30  N   UNL A   1      39.328  30.436  32.021  1.00  0.00    -0.248 NA
ATOM     31  C   UNL A   1      37.269  31.508  31.789  1.00  0.00    -0.034 C 
ATOM     32  C   UNL A   1      38.914  28.802  27.880  1.00  0.00    -0.036 A 
ATOM     33  N   UNL A   1      40.198  28.838  29.710  1.00  0.00    -0.354 N 
ATOM     34  C   UNL A   1      39.049  31.143  33.183  1.00  0.00     0.074 A 
ATOM     35  C   UNL A   1      37.786  31.817  32.971  1.00  0.00    -0.034 C 
ATOM     36  H   UNL A   1      36.369  31.799  31.377  1.00  0.00     0.065 H 
ATOM     37  C   UNL A   1      39.966  28.004  27.646  1.00  0.00    -0.036 A 
ATOM     38  H   UNL A   1      38.156  29.004  27.211  1.00  0.00     0.065 H 
ATOM     39  C   UNL A   1      40.842  28.024  28.810  1.00  0.00     0.049 A 
ATOM     40  H   UNL A   1      40.553  29.040  30.605  1.00  0.00     0.167 HD
ATOM     41  C   UNL A   1      39.776  31.212  34.325  1.00  0.00     0.037 A 
ATOM     42  H   UNL A   1      37.344  32.456  33.651  1.00  0.00     0.065 H 
ATOM     43  H   UNL A   1      40.127  27.463  26.781  1.00  0.00     0.065 H 
ATOM     44  C   UNL A   1      42.017  27.375  28.905  1.00  0.00     0.037 A 
ATOM     45  C   UNL A   1      41.034  30.537  34.531  1.00  0.00     0.049 A 
ATOM     46  C   UNL A   1      42.807  27.484  30.177  1.00  0.00     0.074 A 
ATOM     47  C   UNL A   1      41.845  30.541  35.653  1.00  0.00    -0.036 A 
ATOM     48  N   UNL A   1      41.665  29.736  33.589  1.00  0.00    -0.354 N 
ATOM     49  N   UNL A   1      42.517  28.136  31.276  1.00  0.00    -0.248 NA
ATOM     50  C   UNL A   1      44.086  26.766  30.222  1.00  0.00    -0.034 C 
ATOM     51  C   UNL A   1      42.982  29.774  35.378  1.00  0.00    -0.036 A 
ATOM     52  H   UNL A   1      41.644  31.027  36.542  1.00  0.00     0.065 H 
ATOM     53  C   UNL A   1      42.859  29.253  34.101  1.00  0.00     0.049 A 
ATOM     54  H   UNL A   1      41.315  29.540  32.690  1.00  0.00     0.167 HD
ATOM     55  C   UNL A   1      43.570  27.899  32.147  1.00  0.00     0.074 A 
ATOM     56  C   UNL A   1      44.489  27.016  31.459  1.00  0.00    -0.034 C 
ATOM     57  H   UNL A   1      44.549  26.212  29.485  1.00  0.00     0.065 H 
ATOM     58  H   UNL A   1      43.778  29.624  36.018  1.00  0.00     0.065 H 
ATOM     59  C   UNL A   1      43.763  28.375  33.401  1.00  0.00     0.037 A 
ATOM     60  H   UNL A   1      45.350  26.631  31.879  1.00  0.00     0.065 H 
BRANCH  41  61
ATOM     61  C   UNL A   1      39.235  32.047  35.450  1.00  0.00     0.064 A 
ATOM     62  C   UNL A   1      38.441  31.488  36.462  1.00  0.00     0.173 A 
ATOM     63  C   UNL A   1      39.562  33.409  35.551  1.00  0.00     0.173 A 
ATOM     64  F   UNL A   1      38.091  30.195  36.408  1.00  0.00    -0.203 F 
ATOM     65  C   UNL A   1      37.982  32.263  37.524  1.00  0.00     0.198 A 
ATOM     66  C   UNL A   1      39.121  34.176  36.628  1.00  0.00     0.198 A 
ATOM     67  F   UNL A   1      40.323  33.993  34.613  1.00  0.00    -0.203 F 
ATOM     68  F   UNL A   1      37.195  31.716  38.461  1.00  0.00    -0.200 F 
ATOM     69  C   UNL A   1      38.328  33.603  37.610  1.00  0.00     0.200 A 
ATOM     70  F   UNL A   1      39.469  35.467  36.716  1.00  0.00    -0.200 F 
ATOM     71  F   UNL A   1      37.895  34.345  38.639  1.00  0.00    -0.200 F 
ENDBRANCH  41  61
BRANCH  44  72
ATOM     72  C   UNL A   1      42.514  26.577  27.755  1.00  0.00     0.064 A 
ATOM     73  C   UNL A   1      43.390  27.131  26.812  1.00  0.00     0.173 A 
ATOM     74  C   UNL A   1      42.124  25.240  27.579  1.00  0.00     0.173 A 
ATOM     75  F   UNL A   1      43.778  28.409  26.928  1.00  0.00    -0.203 F 
ATOM     76  C   UNL A   1      43.839  26.385  25.725  1.00  0.00     0.198 A 
ATOM     77  C   UNL A   1      42.600  24.486  26.510  1.00  0.00     0.198 A 
ATOM     78  F   UNL A   1      41.293  24.661  28.458  1.00  0.00    -0.203 F 
ATOM     79  F   UNL A   1      44.638  26.953  24.811  1.00  0.00    -0.200 F 
ATOM     80  C   UNL A   1      43.450  25.062  25.578  1.00  0.00     0.200 A 
ATOM     81  F   UNL A   1      42.237  23.203  26.384  1.00  0.00    -0.200 F 
ATOM     82  F   UNL A   1      43.888  24.343  24.535  1.00  0.00    -0.200 F 
ENDBRANCH  44  72
BRANCH  59  83
ATOM     83  C   UNL A   1      45.007  27.930  34.110  1.00  0.00     0.064 A 
ATOM     84  C   UNL A   1      46.212  28.640  33.994  1.00  0.00     0.173 A 
ATOM     85  C   UNL A   1      44.993  26.786  34.921  1.00  0.00     0.173 A 
ATOM     86  F   UNL A   1      46.281  29.731  33.216  1.00  0.00    -0.203 F 
ATOM     87  C   UNL A   1      47.366  28.200  34.636  1.00  0.00     0.198 A 
ATOM     88  C   UNL A   1      46.142  26.366  35.586  1.00  0.00     0.198 A 
ATOM     89  F   UNL A   1      43.865  26.076  35.068  1.00  0.00    -0.203 F 
ATOM     90  F   UNL A   1      48.519  28.859  34.464  1.00  0.00    -0.200 F 
ATOM     91  C   UNL A   1      47.328  27.067  35.435  1.00  0.00     0.200 A 
ATOM     92  F   UNL A   1      46.101  25.276  36.366  1.00  0.00    -0.200 F 
ATOM     93  F   UNL A   1      48.440  26.643  36.052  1.00  0.00    -0.200 F 
ENDBRANCH  59  83
ENDBRANCH  24  27
ENDBRANCH  15  17
ENDBRANCH  10  13
ENDBRANCH   7  10
ENDBRANCH   4   7
ENDBRANCH   1   4
BRANCH   1  94
ATOM     94  C   UNL A   1      29.928  26.999  23.771  1.00  0.00    -0.036 C 
ATOM     95  H   UNL A   1      29.023  27.229  23.246  1.00  0.00     0.028 H 
ATOM     96  H   UNL A   1      30.013  27.494  24.715  1.00  0.00     0.028 H 
BRANCH  94  97
ATOM     97  C   UNL A   1      29.926  25.502  24.077  1.00  0.00     0.018 C 
ATOM     98  H   UNL A   1      30.690  25.030  23.495  1.00  0.00     0.049 H 
ATOM     99  H   UNL A   1      28.960  25.115  23.833  1.00  0.00     0.049 H 
BRANCH  97 100
ATOM    100  N   UNL A   1      30.174  25.237  25.482  1.00  0.00    -0.352 N 
ATOM    101  C   UNL A   1      31.010  24.316  26.055  1.00  0.00     0.251 C 
ATOM    102  H   UNL A   1      29.670  25.801  26.113  1.00  0.00     0.163 HD
ATOM    103  O   UNL A   1      30.953  24.096  27.261  1.00  0.00    -0.269 OA
BRANCH 101 104
ATOM    104  C   UNL A   1      31.979  23.578  25.221  1.00  0.00     0.041 A 
ATOM    105  C   UNL A   1      33.206  24.176  24.935  1.00  0.00    -0.049 A 
ATOM    106  C   UNL A   1      31.651  22.327  24.681  1.00  0.00    -0.026 A 
ATOM    107  C   UNL A   1      34.125  23.498  24.143  1.00  0.00    -0.059 A 
ATOM    108  H   UNL A   1      33.429  25.112  25.307  1.00  0.00     0.063 H 
ATOM    109  C   UNL A   1      32.566  21.635  23.880  1.00  0.00     0.039 A 
ATOM    110  H   UNL A   1      30.727  21.912  24.877  1.00  0.00     0.065 H 
ATOM    111  C   UNL A   1      33.809  22.235  23.631  1.00  0.00    -0.039 A 
ATOM    112  H   UNL A   1      35.042  23.925  23.934  1.00  0.00     0.062 H 
ATOM    113  H   UNL A   1      34.506  21.733  23.059  1.00  0.00     0.064 H 
BRANCH 109 114
ATOM    114  N   UNL A   1      32.214  20.365  23.385  1.00  0.00    -0.356 N 
ATOM    115  H   UNL A   1      31.639  20.375  22.587  1.00  0.00     0.167 HD
BRANCH 114 116
ATOM    116  C   UNL A   1      32.556  19.086  23.856  1.00  0.00     0.039 A 
ATOM    117  C   UNL A   1      33.002  18.124  22.939  1.00  0.00    -0.032 A 
ATOM    118  C   UNL A   1      32.572  18.773  25.221  1.00  0.00    -0.032 A 
ATOM    119  C   UNL A   1      33.491  16.891  23.378  1.00  0.00     0.018 A 
ATOM    120  H   UNL A   1      32.969  18.329  21.929  1.00  0.00     0.065 H 
ATOM    121  C   UNL A   1      33.051  17.539  25.669  1.00  0.00     0.018 A 
ATOM    122  H   UNL A   1      32.224  19.462  25.904  1.00  0.00     0.065 H 
ATOM    123  C   UNL A   1      33.530  16.608  24.746  1.00  0.00     0.269 A 
ATOM    124  H   UNL A   1      33.823  16.193  22.694  1.00  0.00     0.070 H 
ATOM    125  H   UNL A   1      33.051  17.317  26.677  1.00  0.00     0.070 H 
BRANCH 123 126
ATOM    126  N   UNL A   1      34.099  15.363  25.207  1.00  0.00     0.062 N 
ATOM    127  O   UNL A   1      35.294  15.247  25.379  1.00  0.00    -0.258 OA
ATOM    128  O   UNL A   1      33.298  14.285  25.503  1.00  0.00    -0.258 OA
ENDBRANCH 123 126
ENDBRANCH 114 116
ENDBRANCH 109 114
ENDBRANCH 101 104
ENDBRANCH  97 100
ENDBRANCH  94  97
ENDBRANCH   1  94
TORSDOF 16
ENDMDL
MODEL 6
REMARK VINA RESULT:     -12.2      6.284     11.667
REMARK SMILES O=C(NCCCCCCNC(=O)c1cccc(Nc2ccc([N+](=O)[O-])cc2)c1)c1ccc(-c2c3nc(c(-c4c(F)c(F)c(F)c(F)c4F)c4ccc([nH]4)c(-c4c(F)c(F)c(F)c(F)c4F)c4nc(c(-c5c(F)c(F)c(F)c(F)c5F)c5ccc2[nH]5)C=C4)C=C3)cc1
REMARK SMILES IDX 7 1 6 4 5 7 4 10 3 13 1 14 2 15 29 17 30 18 91 19 31 20
REMARK SMILES IDX 90 22 32 24 33 27 34 28 84 29 35 30 89 31 83 32 85 33 36 34
REMARK SMILES IDX 88 35 82 37 81 39 37 41 69 44 49 45 68 46 50 47 53 48 67 49
REMARK SMILES IDX 86 50 51 51 52 53 66 55 87 56 54 59 38 61 39 62 47 63 40 64
REMARK SMILES IDX 41 65 45 66 48 67 42 68 43 69 46 70 44 71 70 72 71 73 79 74
REMARK SMILES IDX 72 75 73 76 77 77 80 78 74 79 75 80 78 81 76 82 55 83 56 84
REMARK SMILES IDX 64 85 57 86 58 87 62 88 65 89 59 90 60 91 63 92 61 93 8 94
REMARK SMILES IDX 9 97 10 100 11 101 12 103 13 104 14 105 28 106 15 107 17 109
REMARK SMILES IDX 16 111 18 114 19 116 20 117 27 118 21 119 26 121 22 123
REMARK SMILES IDX 23 126 24 127 25 128
REMARK H PARENT 7 2 7 3 6 5 6 6 5 8 5 9 4 11 4 12 3 16 30 21 91 23 31 25 90 26
REMARK H PARENT 89 36 83 38 85 40 88 42 82 43 50 52 53 54 86 57 51 58 87 60
REMARK H PARENT 8 95 8 96 9 98 9 99 10 102 14 108 28 110 15 112 16 113 18 115
REMARK H PARENT 20 120 27 122 21 124 26 125
REMARK Flexibility Score: inf
ROOT
ATOM      1  C   UNL A   1      31.603  29.951  25.415  1.00  0.00    -0.052 C 
ATOM      2  H   UNL A   1      31.100  30.657  24.788  1.00  0.00     0.027 H 
ATOM      3  H   UNL A   1      31.065  29.037  25.563  1.00  0.00     0.027 H 
ENDROOT
BRANCH   1   4
ATOM      4  C   UNL A   1      31.747  30.576  26.805  1.00  0.00    -0.052 C 
ATOM      5  H   UNL A   1      31.062  30.082  27.462  1.00  0.00     0.027 H 
ATOM      6  H   UNL A   1      32.774  30.451  27.079  1.00  0.00     0.027 H 
BRANCH   4   7
ATOM      7  C   UNL A   1      31.472  32.077  26.883  1.00  0.00    -0.036 C 
ATOM      8  H   UNL A   1      30.974  32.371  25.983  1.00  0.00     0.028 H 
ATOM      9  H   UNL A   1      30.883  32.227  27.764  1.00  0.00     0.028 H 
BRANCH   7  10
ATOM     10  C   UNL A   1      32.708  32.951  27.045  1.00  0.00     0.018 C 
ATOM     11  H   UNL A   1      33.390  32.460  27.708  1.00  0.00     0.049 H 
ATOM     12  H   UNL A   1      33.130  33.092  26.072  1.00  0.00     0.049 H 
BRANCH  10  13
ATOM     13  N   UNL A   1      32.406  34.267  27.584  1.00  0.00    -0.352 N 
ATOM     14  O   UNL A   1      32.524  35.982  29.050  1.00  0.00    -0.269 OA
ATOM     15  C   UNL A   1      32.993  34.926  28.637  1.00  0.00     0.251 C 
ATOM     16  H   UNL A   1      31.680  34.754  27.130  1.00  0.00     0.163 HD
BRANCH  15  17
ATOM     17  C   UNL A   1      34.181  34.340  29.295  1.00  0.00     0.039 A 
ATOM     18  C   UNL A   1      35.465  34.632  28.832  1.00  0.00    -0.049 A 
ATOM     19  C   UNL A   1      34.007  33.485  30.387  1.00  0.00    -0.049 A 
ATOM     20  C   UNL A   1      36.558  33.955  29.359  1.00  0.00    -0.053 A 
ATOM     21  H   UNL A   1      35.603  35.348  28.100  1.00  0.00     0.063 H 
ATOM     22  C   UNL A   1      35.119  32.876  30.978  1.00  0.00    -0.053 A 
ATOM     23  H   UNL A   1      33.061  33.302  30.756  1.00  0.00     0.063 H 
ATOM     24  C   UNL A   1      36.401  33.083  30.449  1.00  0.00    -0.014 A 
ATOM     25  H   UNL A   1      37.493  34.095  28.945  1.00  0.00     0.063 H 
ATOM     26  H   UNL A   1      34.996  32.272  31.806  1.00  0.00     0.063 H 
BRANCH  24  27
ATOM     27  C   UNL A   1      37.610  32.461  31.050  1.00  0.00     0.031 A 
ATOM     28  C   UNL A   1      38.096  32.850  32.417  1.00  0.00     0.074 A 
ATOM     29  C   UNL A   1      38.241  31.493  30.357  1.00  0.00     0.049 A 
ATOM     30  N   UNL A   1      39.103  32.368  33.101  1.00  0.00    -0.248 NA
ATOM     31  C   UNL A   1      37.363  33.922  33.107  1.00  0.00    -0.034 C 
ATOM     32  C   UNL A   1      37.871  31.047  29.011  1.00  0.00    -0.036 A 
ATOM     33  N   UNL A   1      39.305  30.695  30.689  1.00  0.00    -0.354 N 
ATOM     34  C   UNL A   1      39.130  33.077  34.295  1.00  0.00     0.074 A 
ATOM     35  C   UNL A   1      38.059  34.049  34.229  1.00  0.00    -0.034 C 
ATOM     36  H   UNL A   1      36.526  34.442  32.800  1.00  0.00     0.065 H 
ATOM     37  C   UNL A   1      38.660  30.024  28.654  1.00  0.00    -0.036 A 
ATOM     38  H   UNL A   1      37.122  31.455  28.431  1.00  0.00     0.065 H 
ATOM     39  C   UNL A   1      39.630  29.783  29.715  1.00  0.00     0.049 A 
ATOM     40  H   UNL A   1      39.789  30.769  31.543  1.00  0.00     0.167 HD
ATOM     41  C   UNL A   1      39.965  32.920  35.351  1.00  0.00     0.037 A 
ATOM     42  H   UNL A   1      37.863  34.750  34.962  1.00  0.00     0.065 H 
ATOM     43  H   UNL A   1      38.592  29.495  27.770  1.00  0.00     0.065 H 
ATOM     44  C   UNL A   1      40.609  28.861  29.673  1.00  0.00     0.037 A 
ATOM     45  C   UNL A   1      41.029  31.949  35.409  1.00  0.00     0.049 A 
ATOM     46  C   UNL A   1      41.528  28.724  30.853  1.00  0.00     0.074 A 
ATOM     47  C   UNL A   1      41.927  31.710  36.436  1.00  0.00    -0.036 A 
ATOM     48  N   UNL A   1      41.340  31.055  34.395  1.00  0.00    -0.354 N 
ATOM     49  N   UNL A   1      41.525  29.384  31.984  1.00  0.00    -0.248 NA
ATOM     50  C   UNL A   1      42.586  27.711  30.749  1.00  0.00    -0.034 C 
ATOM     51  C   UNL A   1      42.803  30.698  36.029  1.00  0.00    -0.036 A 
ATOM     52  H   UNL A   1      41.946  32.195  37.348  1.00  0.00     0.065 H 
ATOM     53  C   UNL A   1      42.423  30.272  34.768  1.00  0.00     0.049 A 
ATOM     54  H   UNL A   1      40.862  30.985  33.537  1.00  0.00     0.167 HD
ATOM     55  C   UNL A   1      42.569  28.862  32.732  1.00  0.00     0.074 A 
ATOM     56  C   UNL A   1      43.163  27.807  31.938  1.00  0.00    -0.034 C 
ATOM     57  H   UNL A   1      42.818  27.090  29.959  1.00  0.00     0.065 H 
ATOM     58  H   UNL A   1      43.598  30.332  36.577  1.00  0.00     0.065 H 
ATOM     59  C   UNL A   1      43.003  29.227  33.963  1.00  0.00     0.037 A 
ATOM     60  H   UNL A   1      43.940  27.206  32.256  1.00  0.00     0.065 H 
BRANCH  41  61
ATOM     61  C   UNL A   1      39.767  33.820  36.537  1.00  0.00     0.064 A 
ATOM     62  C   UNL A   1      38.951  33.443  37.615  1.00  0.00     0.173 A 
ATOM     63  C   UNL A   1      40.448  35.044  36.628  1.00  0.00     0.173 A 
ATOM     64  F   UNL A   1      38.271  32.288  37.574  1.00  0.00    -0.203 F 
ATOM     65  C   UNL A   1      38.811  34.266  38.730  1.00  0.00     0.198 A 
ATOM     66  C   UNL A   1      40.325  35.853  37.756  1.00  0.00     0.198 A 
ATOM     67  F   UNL A   1      41.247  35.450  35.629  1.00  0.00    -0.203 F 
ATOM     68  F   UNL A   1      37.998  33.902  39.731  1.00  0.00    -0.200 F 
ATOM     69  C   UNL A   1      39.504  35.465  38.803  1.00  0.00     0.200 A 
ATOM     70  F   UNL A   1      41.006  37.004  37.831  1.00  0.00    -0.200 F 
ATOM     71  F   UNL A   1      39.376  36.249  39.883  1.00  0.00    -0.200 F 
ENDBRANCH  41  61
BRANCH  44  72
ATOM     72  C   UNL A   1      40.771  28.010  28.466  1.00  0.00     0.064 A 
ATOM     73  C   UNL A   1      41.539  28.437  27.375  1.00  0.00     0.173 A 
ATOM     74  C   UNL A   1      40.160  26.749  28.383  1.00  0.00     0.173 A 
ATOM     75  F   UNL A   1      42.128  29.641  27.401  1.00  0.00    -0.203 F 
ATOM     76  C   UNL A   1      41.673  27.644  26.238  1.00  0.00     0.198 A 
ATOM     77  C   UNL A   1      40.322  25.944  27.259  1.00  0.00     0.198 A 
ATOM     78  F   UNL A   1      39.420  26.292  29.404  1.00  0.00    -0.203 F 
ATOM     79  F   UNL A   1      42.374  28.095  25.189  1.00  0.00    -0.200 F 
ATOM     80  C   UNL A   1      41.070  26.396  26.183  1.00  0.00     0.200 A 
ATOM     81  F   UNL A   1      39.754  24.731  27.219  1.00  0.00    -0.200 F 
ATOM     82  F   UNL A   1      41.205  25.631  25.091  1.00  0.00    -0.200 F 
ENDBRANCH  44  72
BRANCH  59  83
ATOM     83  C   UNL A   1      44.163  28.462  34.526  1.00  0.00     0.064 A 
ATOM     84  C   UNL A   1      43.975  27.289  35.274  1.00  0.00     0.173 A 
ATOM     85  C   UNL A   1      45.477  28.902  34.312  1.00  0.00     0.173 A 
ATOM     86  F   UNL A   1      42.737  26.838  35.521  1.00  0.00    -0.203 F 
ATOM     87  C   UNL A   1      45.060  26.604  35.814  1.00  0.00     0.198 A 
ATOM     88  C   UNL A   1      46.561  28.198  34.828  1.00  0.00     0.198 A 
ATOM     89  F   UNL A   1      45.710  30.015  33.600  1.00  0.00    -0.203 F 
ATOM     90  F   UNL A   1      44.855  25.520  36.573  1.00  0.00    -0.200 F 
ATOM     91  C   UNL A   1      46.351  27.056  35.586  1.00  0.00     0.200 A 
ATOM     92  F   UNL A   1      47.810  28.630  34.599  1.00  0.00    -0.200 F 
ATOM     93  F   UNL A   1      47.395  26.397  36.108  1.00  0.00    -0.200 F 
ENDBRANCH  59  83
ENDBRANCH  24  27
ENDBRANCH  15  17
ENDBRANCH  10  13
ENDBRANCH   7  10
ENDBRANCH   4   7
ENDBRANCH   1   4
BRANCH   1  94
ATOM     94  C   UNL A   1      32.911  29.555  24.722  1.00  0.00    -0.036 C 
ATOM     95  H   UNL A   1      33.522  30.431  24.644  1.00  0.00     0.028 H 
ATOM     96  H   UNL A   1      32.632  29.142  23.776  1.00  0.00     0.028 H 
BRANCH  94  97
ATOM     97  C   UNL A   1      33.725  28.475  25.432  1.00  0.00     0.018 C 
ATOM     98  H   UNL A   1      33.137  28.064  26.225  1.00  0.00     0.049 H 
ATOM     99  H   UNL A   1      34.619  28.927  25.808  1.00  0.00     0.049 H 
BRANCH  97 100
ATOM    100  N   UNL A   1      34.109  27.406  24.529  1.00  0.00    -0.352 N 
ATOM    101  C   UNL A   1      33.413  26.281  24.172  1.00  0.00     0.251 C 
ATOM    102  H   UNL A   1      34.996  27.504  24.112  1.00  0.00     0.163 HD
ATOM    103  O   UNL A   1      33.967  25.384  23.544  1.00  0.00    -0.269 OA
BRANCH 101 104
ATOM    104  C   UNL A   1      31.993  26.142  24.550  1.00  0.00     0.041 A 
ATOM    105  C   UNL A   1      31.669  25.353  25.653  1.00  0.00    -0.049 A 
ATOM    106  C   UNL A   1      30.987  26.744  23.783  1.00  0.00    -0.026 A 
ATOM    107  C   UNL A   1      30.335  25.205  26.016  1.00  0.00    -0.059 A 
ATOM    108  H   UNL A   1      32.412  24.883  26.195  1.00  0.00     0.063 H 
ATOM    109  C   UNL A   1      29.640  26.600  24.135  1.00  0.00     0.039 A 
ATOM    110  H   UNL A   1      31.241  27.299  22.952  1.00  0.00     0.065 H 
ATOM    111  C   UNL A   1      29.334  25.833  25.268  1.00  0.00    -0.039 A 
ATOM    112  H   UNL A   1      30.084  24.633  26.838  1.00  0.00     0.062 H 
ATOM    113  H   UNL A   1      28.349  25.730  25.558  1.00  0.00     0.064 H 
BRANCH 109 114
ATOM    114  N   UNL A   1      28.661  27.249  23.361  1.00  0.00    -0.356 N 
ATOM    115  H   UNL A   1      27.918  26.676  23.064  1.00  0.00     0.167 HD
BRANCH 114 116
ATOM    116  C   UNL A   1      28.579  28.589  22.946  1.00  0.00     0.039 A 
ATOM    117  C   UNL A   1      27.445  29.337  23.289  1.00  0.00    -0.032 A 
ATOM    118  C   UNL A   1      29.639  29.235  22.296  1.00  0.00    -0.032 A 
ATOM    119  C   UNL A   1      27.386  30.708  23.027  1.00  0.00     0.018 A 
ATOM    120  H   UNL A   1      26.645  28.870  23.742  1.00  0.00     0.065 H 
ATOM    121  C   UNL A   1      29.586  30.605  22.021  1.00  0.00     0.018 A 
ATOM    122  H   UNL A   1      30.470  28.692  22.016  1.00  0.00     0.065 H 
ATOM    123  C   UNL A   1      28.466  31.343  22.408  1.00  0.00     0.269 A 
ATOM    124  H   UNL A   1      26.549  31.251  23.292  1.00  0.00     0.070 H 
ATOM    125  H   UNL A   1      30.370  31.067  21.535  1.00  0.00     0.070 H 
BRANCH 123 126
ATOM    126  N   UNL A   1      28.437  32.771  22.197  1.00  0.00     0.062 N 
ATOM    127  O   UNL A   1      27.730  33.264  21.343  1.00  0.00    -0.258 OA
ATOM    128  O   UNL A   1      29.179  33.619  22.987  1.00  0.00    -0.258 OA
ENDBRANCH 123 126
ENDBRANCH 114 116
ENDBRANCH 109 114
ENDBRANCH 101 104
ENDBRANCH  97 100
ENDBRANCH  94  97
ENDBRANCH   1  94
TORSDOF 16
ENDMDL
MODEL 7
REMARK VINA RESULT:     -12.2      0.611      2.123
REMARK SMILES O=C(NCCCCCCNC(=O)c1cccc(Nc2ccc([N+](=O)[O-])cc2)c1)c1ccc(-c2c3nc(c(-c4c(F)c(F)c(F)c(F)c4F)c4ccc([nH]4)c(-c4c(F)c(F)c(F)c(F)c4F)c4nc(c(-c5c(F)c(F)c(F)c(F)c5F)c5ccc2[nH]5)C=C4)C=C3)cc1
REMARK SMILES IDX 7 1 6 4 5 7 4 10 3 13 1 14 2 15 29 17 30 18 91 19 31 20
REMARK SMILES IDX 90 22 32 24 33 27 34 28 84 29 35 30 89 31 83 32 85 33 36 34
REMARK SMILES IDX 88 35 82 37 81 39 37 41 69 44 49 45 68 46 50 47 53 48 67 49
REMARK SMILES IDX 86 50 51 51 52 53 66 55 87 56 54 59 38 61 39 62 47 63 40 64
REMARK SMILES IDX 41 65 45 66 48 67 42 68 43 69 46 70 44 71 70 72 71 73 79 74
REMARK SMILES IDX 72 75 73 76 77 77 80 78 74 79 75 80 78 81 76 82 55 83 56 84
REMARK SMILES IDX 64 85 57 86 58 87 62 88 65 89 59 90 60 91 63 92 61 93 8 94
REMARK SMILES IDX 9 97 10 100 11 101 12 103 13 104 14 105 28 106 15 107 17 109
REMARK SMILES IDX 16 111 18 114 19 116 20 117 27 118 21 119 26 121 22 123
REMARK SMILES IDX 23 126 24 127 25 128
REMARK H PARENT 7 2 7 3 6 5 6 6 5 8 5 9 4 11 4 12 3 16 30 21 91 23 31 25 90 26
REMARK H PARENT 89 36 83 38 85 40 88 42 82 43 50 52 53 54 86 57 51 58 87 60
REMARK H PARENT 8 95 8 96 9 98 9 99 10 102 14 108 28 110 15 112 16 113 18 115
REMARK H PARENT 20 120 27 122 21 124 26 125
REMARK Flexibility Score: inf
ROOT
ATOM      1  C   UNL A   1      36.625  22.179  25.780  1.00  0.00    -0.052 C 
ATOM      2  H   UNL A   1      36.950  22.868  25.029  1.00  0.00     0.027 H 
ATOM      3  H   UNL A   1      37.351  21.990  26.544  1.00  0.00     0.027 H 
ENDROOT
BRANCH   1   4
ATOM      4  C   UNL A   1      36.376  20.829  25.102  1.00  0.00    -0.052 C 
ATOM      5  H   UNL A   1      35.634  20.307  25.670  1.00  0.00     0.027 H 
ATOM      6  H   UNL A   1      36.075  21.054  24.101  1.00  0.00     0.027 H 
BRANCH   4   7
ATOM      7  C   UNL A   1      37.598  19.920  24.978  1.00  0.00    -0.036 C 
ATOM      8  H   UNL A   1      37.337  18.958  25.367  1.00  0.00     0.028 H 
ATOM      9  H   UNL A   1      37.852  19.902  23.938  1.00  0.00     0.028 H 
BRANCH   7  10
ATOM     10  C   UNL A   1      38.840  20.404  25.711  1.00  0.00     0.018 C 
ATOM     11  H   UNL A   1      39.259  21.226  25.166  1.00  0.00     0.049 H 
ATOM     12  H   UNL A   1      38.539  20.692  26.696  1.00  0.00     0.049 H 
BRANCH  10  13
ATOM     13  N   UNL A   1      39.856  19.374  25.849  1.00  0.00    -0.352 N 
ATOM     14  O   UNL A   1      41.945  18.541  26.073  1.00  0.00    -0.269 OA
ATOM     15  C   UNL A   1      41.196  19.511  26.126  1.00  0.00     0.251 C 
ATOM     16  H   UNL A   1      39.541  18.449  25.727  1.00  0.00     0.163 HD
BRANCH  15  17
ATOM     17  C   UNL A   1      41.739  20.846  26.462  1.00  0.00     0.039 A 
ATOM     18  C   UNL A   1      42.006  21.191  27.787  1.00  0.00    -0.049 A 
ATOM     19  C   UNL A   1      41.982  21.764  25.435  1.00  0.00    -0.049 A 
ATOM     20  C   UNL A   1      42.368  22.495  28.101  1.00  0.00    -0.053 A 
ATOM     21  H   UNL A   1      41.934  20.480  28.533  1.00  0.00     0.063 H 
ATOM     22  C   UNL A   1      42.437  23.050  25.746  1.00  0.00    -0.053 A 
ATOM     23  H   UNL A   1      41.824  21.494  24.452  1.00  0.00     0.063 H 
ATOM     24  C   UNL A   1      42.604  23.435  27.084  1.00  0.00    -0.014 A 
ATOM     25  H   UNL A   1      42.464  22.775  29.089  1.00  0.00     0.063 H 
ATOM     26  H   UNL A   1      42.650  23.717  24.988  1.00  0.00     0.063 H 
BRANCH  24  27
ATOM     27  C   UNL A   1      43.092  24.788  27.457  1.00  0.00     0.031 A 
ATOM     28  C   UNL A   1      44.504  25.220  27.174  1.00  0.00     0.074 A 
ATOM     29  C   UNL A   1      42.220  25.649  28.016  1.00  0.00     0.049 A 
ATOM     30  N   UNL A   1      45.069  26.381  27.393  1.00  0.00    -0.248 NA
ATOM     31  C   UNL A   1      45.401  24.222  26.574  1.00  0.00    -0.034 C 
ATOM     32  C   UNL A   1      40.830  25.333  28.355  1.00  0.00    -0.036 A 
ATOM     33  N   UNL A   1      42.358  26.965  28.375  1.00  0.00    -0.354 N 
ATOM     34  C   UNL A   1      46.383  26.254  26.965  1.00  0.00     0.074 A 
ATOM     35  C   UNL A   1      46.544  24.890  26.505  1.00  0.00    -0.034 C 
ATOM     36  H   UNL A   1      45.196  23.253  26.282  1.00  0.00     0.065 H 
ATOM     37  C   UNL A   1      40.230  26.436  28.826  1.00  0.00    -0.036 A 
ATOM     38  H   UNL A   1      40.384  24.409  28.250  1.00  0.00     0.065 H 
ATOM     39  C   UNL A   1      41.206  27.518  28.879  1.00  0.00     0.049 A 
ATOM     40  H   UNL A   1      43.200  27.465  28.280  1.00  0.00     0.167 HD
ATOM     41  C   UNL A   1      47.360  27.193  26.947  1.00  0.00     0.037 A 
ATOM     42  H   UNL A   1      47.435  24.490  26.167  1.00  0.00     0.065 H 
ATOM     43  H   UNL A   1      39.239  26.507  29.104  1.00  0.00     0.065 H 
ATOM     44  C   UNL A   1      40.963  28.755  29.347  1.00  0.00     0.037 A 
ATOM     45  C   UNL A   1      47.193  28.549  27.406  1.00  0.00     0.049 A 
ATOM     46  C   UNL A   1      42.071  29.769  29.329  1.00  0.00     0.074 A 
ATOM     47  C   UNL A   1      48.121  29.577  27.426  1.00  0.00    -0.036 A 
ATOM     48  N   UNL A   1      46.016  29.068  27.929  1.00  0.00    -0.354 N 
ATOM     49  N   UNL A   1      43.302  29.641  28.898  1.00  0.00    -0.248 NA
ATOM     50  C   UNL A   1      41.755  31.100  29.862  1.00  0.00    -0.034 C 
ATOM     51  C   UNL A   1      47.518  30.705  27.994  1.00  0.00    -0.036 A 
ATOM     52  H   UNL A   1      49.092  29.521  27.080  1.00  0.00     0.065 H 
ATOM     53  C   UNL A   1      46.200  30.396  28.284  1.00  0.00     0.049 A 
ATOM     54  H   UNL A   1      45.175  28.567  28.031  1.00  0.00     0.167 HD
ATOM     55  C   UNL A   1      43.904  30.874  29.095  1.00  0.00     0.074 A 
ATOM     56  C   UNL A   1      42.894  31.746  29.656  1.00  0.00    -0.034 C 
ATOM     57  H   UNL A   1      40.879  31.441  30.285  1.00  0.00     0.065 H 
ATOM     58  H   UNL A   1      47.978  31.612  28.167  1.00  0.00     0.065 H 
ATOM     59  C   UNL A   1      45.182  31.249  28.843  1.00  0.00     0.037 A 
ATOM     60  H   UNL A   1      43.041  32.746  29.869  1.00  0.00     0.065 H 
BRANCH  41  61
ATOM     61  C   UNL A   1      48.706  26.792  26.414  1.00  0.00     0.064 A 
ATOM     62  C   UNL A   1      49.050  26.987  25.068  1.00  0.00     0.173 A 
ATOM     63  C   UNL A   1      49.686  26.263  27.270  1.00  0.00     0.173 A 
ATOM     64  F   UNL A   1      48.147  27.479  24.207  1.00  0.00    -0.203 F 
ATOM     65  C   UNL A   1      50.316  26.653  24.595  1.00  0.00     0.198 A 
ATOM     66  C   UNL A   1      50.960  25.953  26.799  1.00  0.00     0.198 A 
ATOM     67  F   UNL A   1      49.413  26.062  28.568  1.00  0.00    -0.203 F 
ATOM     68  F   UNL A   1      50.610  26.815  23.298  1.00  0.00    -0.200 F 
ATOM     69  C   UNL A   1      51.272  26.144  25.462  1.00  0.00     0.200 A 
ATOM     70  F   UNL A   1      51.887  25.475  27.640  1.00  0.00    -0.200 F 
ATOM     71  F   UNL A   1      52.494  25.834  25.007  1.00  0.00    -0.200 F 
ENDBRANCH  41  61
BRANCH  44  72
ATOM     72  C   UNL A   1      39.618  29.093  29.880  1.00  0.00     0.064 A 
ATOM     73  C   UNL A   1      39.296  28.877  31.226  1.00  0.00     0.173 A 
ATOM     74  C   UNL A   1      38.628  29.643  29.051  1.00  0.00     0.173 A 
ATOM     75  F   UNL A   1      40.203  28.339  32.054  1.00  0.00    -0.203 F 
ATOM     76  C   UNL A   1      38.028  29.178  31.718  1.00  0.00     0.198 A 
ATOM     77  C   UNL A   1      37.372  29.973  29.551  1.00  0.00     0.198 A 
ATOM     78  F   UNL A   1      38.890  29.875  27.756  1.00  0.00    -0.203 F 
ATOM     79  F   UNL A   1      37.730  28.917  32.997  1.00  0.00    -0.200 F 
ATOM     80  C   UNL A   1      37.069  29.731  30.882  1.00  0.00     0.200 A 
ATOM     81  F   UNL A   1      36.456  30.526  28.744  1.00  0.00    -0.200 F 
ATOM     82  F   UNL A   1      35.852  30.026  31.357  1.00  0.00    -0.200 F 
ENDBRANCH  44  72
BRANCH  59  83
ATOM     83  C   UNL A   1      45.544  32.670  29.155  1.00  0.00     0.064 A 
ATOM     84  C   UNL A   1      45.377  33.694  28.210  1.00  0.00     0.173 A 
ATOM     85  C   UNL A   1      46.057  33.014  30.414  1.00  0.00     0.173 A 
ATOM     86  F   UNL A   1      44.907  33.413  26.986  1.00  0.00    -0.203 F 
ATOM     87  C   UNL A   1      45.743  35.005  28.503  1.00  0.00     0.198 A 
ATOM     88  C   UNL A   1      46.394  34.331  30.714  1.00  0.00     0.198 A 
ATOM     89  F   UNL A   1      46.230  32.073  31.353  1.00  0.00    -0.203 F 
ATOM     90  F   UNL A   1      45.631  35.956  27.567  1.00  0.00    -0.200 F 
ATOM     91  C   UNL A   1      46.246  35.323  29.756  1.00  0.00     0.200 A 
ATOM     92  F   UNL A   1      46.870  34.639  31.929  1.00  0.00    -0.200 F 
ATOM     93  F   UNL A   1      46.600  36.584  30.037  1.00  0.00    -0.200 F 
ENDBRANCH  59  83
ENDBRANCH  24  27
ENDBRANCH  15  17
ENDBRANCH  10  13
ENDBRANCH   7  10
ENDBRANCH   4   7
ENDBRANCH   1   4
BRANCH   1  94
ATOM     94  C   UNL A   1      35.420  22.798  26.497  1.00  0.00    -0.036 C 
ATOM     95  H   UNL A   1      34.796  23.257  25.757  1.00  0.00     0.028 H 
ATOM     96  H   UNL A   1      35.821  23.489  27.208  1.00  0.00     0.028 H 
BRANCH  94  97
ATOM     97  C   UNL A   1      34.562  21.820  27.296  1.00  0.00     0.018 C 
ATOM     98  H   UNL A   1      35.091  21.538  28.181  1.00  0.00     0.049 H 
ATOM     99  H   UNL A   1      34.364  20.970  26.677  1.00  0.00     0.049 H 
BRANCH  97 100
ATOM    100  N   UNL A   1      33.288  22.403  27.676  1.00  0.00    -0.352 N 
ATOM    101  C   UNL A   1      32.303  22.926  26.881  1.00  0.00     0.251 C 
ATOM    102  H   UNL A   1      33.107  22.427  28.644  1.00  0.00     0.163 HD
ATOM    103  O   UNL A   1      31.374  23.553  27.380  1.00  0.00    -0.269 OA
BRANCH 101 104
ATOM    104  C   UNL A   1      32.358  22.739  25.418  1.00  0.00     0.041 A 
ATOM    105  C   UNL A   1      32.513  23.863  24.606  1.00  0.00    -0.049 A 
ATOM    106  C   UNL A   1      32.203  21.466  24.853  1.00  0.00    -0.026 A 
ATOM    107  C   UNL A   1      32.559  23.704  23.226  1.00  0.00    -0.059 A 
ATOM    108  H   UNL A   1      32.593  24.802  25.026  1.00  0.00     0.063 H 
ATOM    109  C   UNL A   1      32.243  21.293  23.465  1.00  0.00     0.039 A 
ATOM    110  H   UNL A   1      32.059  20.649  25.465  1.00  0.00     0.065 H 
ATOM    111  C   UNL A   1      32.436  22.429  22.665  1.00  0.00    -0.039 A 
ATOM    112  H   UNL A   1      32.685  24.527  22.615  1.00  0.00     0.062 H 
ATOM    113  H   UNL A   1      32.489  22.322  21.640  1.00  0.00     0.064 H 
BRANCH 109 114
ATOM    114  N   UNL A   1      32.119  19.994  22.937  1.00  0.00    -0.356 N 
ATOM    115  H   UNL A   1      31.677  19.943  22.059  1.00  0.00     0.167 HD
BRANCH 114 116
ATOM    116  C   UNL A   1      32.528  18.760  23.469  1.00  0.00     0.039 A 
ATOM    117  C   UNL A   1      33.329  17.917  22.687  1.00  0.00    -0.032 A 
ATOM    118  C   UNL A   1      32.255  18.391  24.792  1.00  0.00    -0.032 A 
ATOM    119  C   UNL A   1      33.880  16.751  23.225  1.00  0.00     0.018 A 
ATOM    120  H   UNL A   1      33.515  18.161  21.702  1.00  0.00     0.065 H 
ATOM    121  C   UNL A   1      32.794  17.222  25.338  1.00  0.00     0.018 A 
ATOM    122  H   UNL A   1      31.648  18.990  25.372  1.00  0.00     0.065 H 
ATOM    123  C   UNL A   1      33.624  16.415  24.558  1.00  0.00     0.269 A 
ATOM    124  H   UNL A   1      34.474  16.142  22.642  1.00  0.00     0.070 H 
ATOM    125  H   UNL A   1      32.580  16.957  26.312  1.00  0.00     0.070 H 
BRANCH 123 126
ATOM    126  N   UNL A   1      34.246  15.248  25.138  1.00  0.00     0.062 N 
ATOM    127  O   UNL A   1      35.444  15.207  25.328  1.00  0.00    -0.258 OA
ATOM    128  O   UNL A   1      33.495  14.165  25.530  1.00  0.00    -0.258 OA
ENDBRANCH 123 126
ENDBRANCH 114 116
ENDBRANCH 109 114
ENDBRANCH 101 104
ENDBRANCH  97 100
ENDBRANCH  94  97
ENDBRANCH   1  94
TORSDOF 16
ENDMDL
MODEL 8
REMARK VINA RESULT:     -12.2      5.366     10.729
REMARK SMILES O=C(NCCCCCCNC(=O)c1cccc(Nc2ccc([N+](=O)[O-])cc2)c1)c1ccc(-c2c3nc(c(-c4c(F)c(F)c(F)c(F)c4F)c4ccc([nH]4)c(-c4c(F)c(F)c(F)c(F)c4F)c4nc(c(-c5c(F)c(F)c(F)c(F)c5F)c5ccc2[nH]5)C=C4)C=C3)cc1
REMARK SMILES IDX 7 1 6 4 5 7 4 10 3 13 1 14 2 15 29 17 30 18 91 19 31 20
REMARK SMILES IDX 90 22 32 24 33 27 34 28 84 29 35 30 89 31 83 32 85 33 36 34
REMARK SMILES IDX 88 35 82 37 81 39 37 41 69 44 49 45 68 46 50 47 53 48 67 49
REMARK SMILES IDX 86 50 51 51 52 53 66 55 87 56 54 59 38 61 39 62 47 63 40 64
REMARK SMILES IDX 41 65 45 66 48 67 42 68 43 69 46 70 44 71 70 72 71 73 79 74
REMARK SMILES IDX 72 75 73 76 77 77 80 78 74 79 75 80 78 81 76 82 55 83 56 84
REMARK SMILES IDX 64 85 57 86 58 87 62 88 65 89 59 90 60 91 63 92 61 93 8 94
REMARK SMILES IDX 9 97 10 100 11 101 12 103 13 104 14 105 28 106 15 107 17 109
REMARK SMILES IDX 16 111 18 114 19 116 20 117 27 118 21 119 26 121 22 123
REMARK SMILES IDX 23 126 24 127 25 128
REMARK H PARENT 7 2 7 3 6 5 6 6 5 8 5 9 4 11 4 12 3 16 30 21 91 23 31 25 90 26
REMARK H PARENT 89 36 83 38 85 40 88 42 82 43 50 52 53 54 86 57 51 58 87 60
REMARK H PARENT 8 95 8 96 9 98 9 99 10 102 14 108 28 110 15 112 16 113 18 115
REMARK H PARENT 20 120 27 122 21 124 26 125
REMARK Flexibility Score: inf
ROOT
ATOM      1  C   UNL A   1      33.246  27.076  22.728  1.00  0.00    -0.052 C 
ATOM      2  H   UNL A   1      34.037  27.714  22.392  1.00  0.00     0.027 H 
ATOM      3  H   UNL A   1      32.266  27.450  22.519  1.00  0.00     0.027 H 
ENDROOT
BRANCH   1   4
ATOM      4  C   UNL A   1      33.337  26.978  24.253  1.00  0.00    -0.052 C 
ATOM      5  H   UNL A   1      32.828  26.087  24.557  1.00  0.00     0.027 H 
ATOM      6  H   UNL A   1      34.381  26.980  24.486  1.00  0.00     0.027 H 
BRANCH   4   7
ATOM      7  C   UNL A   1      32.733  28.150  25.025  1.00  0.00    -0.036 C 
ATOM      8  H   UNL A   1      31.809  28.416  24.555  1.00  0.00     0.028 H 
ATOM      9  H   UNL A   1      32.616  27.814  26.034  1.00  0.00     0.028 H 
BRANCH   7  10
ATOM     10  C   UNL A   1      33.605  29.396  25.090  1.00  0.00     0.018 C 
ATOM     11  H   UNL A   1      34.489  29.165  25.648  1.00  0.00     0.049 H 
ATOM     12  H   UNL A   1      33.831  29.682  24.085  1.00  0.00     0.049 H 
BRANCH  10  13
ATOM     13  N   UNL A   1      32.939  30.522  25.724  1.00  0.00    -0.352 N 
ATOM     14  O   UNL A   1      32.524  32.037  27.348  1.00  0.00    -0.269 OA
ATOM     15  C   UNL A   1      33.276  31.190  26.877  1.00  0.00     0.251 C 
ATOM     16  H   UNL A   1      32.134  30.853  25.262  1.00  0.00     0.163 HD
BRANCH  15  17
ATOM     17  C   UNL A   1      34.542  30.861  27.568  1.00  0.00     0.039 A 
ATOM     18  C   UNL A   1      34.761  29.579  28.076  1.00  0.00    -0.049 A 
ATOM     19  C   UNL A   1      35.520  31.849  27.713  1.00  0.00    -0.049 A 
ATOM     20  C   UNL A   1      35.884  29.329  28.855  1.00  0.00    -0.053 A 
ATOM     21  H   UNL A   1      34.092  28.819  27.873  1.00  0.00     0.063 H 
ATOM     22  C   UNL A   1      36.694  31.568  28.419  1.00  0.00    -0.053 A 
ATOM     23  H   UNL A   1      35.375  32.785  27.302  1.00  0.00     0.063 H 
ATOM     24  C   UNL A   1      36.872  30.314  29.022  1.00  0.00    -0.014 A 
ATOM     25  H   UNL A   1      35.993  28.412  29.315  1.00  0.00     0.063 H 
ATOM     26  H   UNL A   1      37.432  32.285  28.496  1.00  0.00     0.063 H 
BRANCH  24  27
ATOM     27  C   UNL A   1      38.107  29.971  29.774  1.00  0.00     0.031 A 
ATOM     28  C   UNL A   1      38.350  30.491  31.162  1.00  0.00     0.074 A 
ATOM     29  C   UNL A   1      38.992  29.134  29.199  1.00  0.00     0.049 A 
ATOM     30  N   UNL A   1      39.352  30.246  31.969  1.00  0.00    -0.248 NA
ATOM     31  C   UNL A   1      37.346  31.409  31.719  1.00  0.00    -0.034 C 
ATOM     32  C   UNL A   1      38.870  28.583  27.847  1.00  0.00    -0.036 A 
ATOM     33  N   UNL A   1      40.151  28.581  29.679  1.00  0.00    -0.354 N 
ATOM     34  C   UNL A   1      39.104  30.979  33.122  1.00  0.00     0.074 A 
ATOM     35  C   UNL A   1      37.874  31.708  32.898  1.00  0.00    -0.034 C 
ATOM     36  H   UNL A   1      36.460  31.737  31.301  1.00  0.00     0.065 H 
ATOM     37  C   UNL A   1      39.884  27.734  27.624  1.00  0.00    -0.036 A 
ATOM     38  H   UNL A   1      38.124  28.812  27.173  1.00  0.00     0.065 H 
ATOM     39  C   UNL A   1      40.758  27.727  28.791  1.00  0.00     0.049 A 
ATOM     40  H   UNL A   1      40.513  28.777  30.573  1.00  0.00     0.167 HD
ATOM     41  C   UNL A   1      39.831  31.028  34.264  1.00  0.00     0.037 A 
ATOM     42  H   UNL A   1      37.461  32.375  33.570  1.00  0.00     0.065 H 
ATOM     43  H   UNL A   1      40.021  27.176  26.767  1.00  0.00     0.065 H 
ATOM     44  C   UNL A   1      41.901  27.025  28.896  1.00  0.00     0.037 A 
ATOM     45  C   UNL A   1      41.056  30.298  34.481  1.00  0.00     0.049 A 
ATOM     46  C   UNL A   1      42.693  27.113  30.168  1.00  0.00     0.074 A 
ATOM     47  C   UNL A   1      41.864  30.278  35.605  1.00  0.00    -0.036 A 
ATOM     48  N   UNL A   1      41.651  29.457  33.550  1.00  0.00    -0.354 N 
ATOM     49  N   UNL A   1      42.432  27.791  31.259  1.00  0.00    -0.248 NA
ATOM     50  C   UNL A   1      43.938  26.337  30.225  1.00  0.00    -0.034 C 
ATOM     51  C   UNL A   1      42.965  29.455  35.342  1.00  0.00    -0.036 A 
ATOM     52  H   UNL A   1      41.685  30.782  36.488  1.00  0.00     0.065 H 
ATOM     53  C   UNL A   1      42.820  28.925  34.072  1.00  0.00     0.049 A 
ATOM     54  H   UNL A   1      41.294  29.266  32.653  1.00  0.00     0.167 HD
ATOM     55  C   UNL A   1      43.471  27.516  32.135  1.00  0.00     0.074 A 
ATOM     56  C   UNL A   1      44.349  26.583  31.460  1.00  0.00    -0.034 C 
ATOM     57  H   UNL A   1      44.376  25.754  29.496  1.00  0.00     0.065 H 
ATOM     58  H   UNL A   1      43.752  29.276  35.985  1.00  0.00     0.065 H 
ATOM     59  C   UNL A   1      43.684  27.998  33.383  1.00  0.00     0.037 A 
ATOM     60  H   UNL A   1      45.190  26.164  31.887  1.00  0.00     0.065 H 
BRANCH  41  61
ATOM     61  C   UNL A   1      39.327  31.901  35.378  1.00  0.00     0.064 A 
ATOM     62  C   UNL A   1      39.633  33.269  35.431  1.00  0.00     0.173 A 
ATOM     63  C   UNL A   1      38.480  31.380  36.368  1.00  0.00     0.173 A 
ATOM     64  F   UNL A   1      40.446  33.815  34.515  1.00  0.00    -0.203 F 
ATOM     65  C   UNL A   1      39.123  34.079  36.444  1.00  0.00     0.198 A 
ATOM     66  C   UNL A   1      37.952  32.198  37.365  1.00  0.00     0.198 A 
ATOM     67  F   UNL A   1      38.150  30.079  36.360  1.00  0.00    -0.203 F 
ATOM     68  F   UNL A   1      39.458  35.375  36.495  1.00  0.00    -0.200 F 
ATOM     69  C   UNL A   1      38.277  33.545  37.404  1.00  0.00     0.200 A 
ATOM     70  F   UNL A   1      37.124  31.683  38.284  1.00  0.00    -0.200 F 
ATOM     71  F   UNL A   1      37.778  34.328  38.371  1.00  0.00    -0.200 F 
ENDBRANCH  41  61
BRANCH  44  72
ATOM     72  C   UNL A   1      42.363  26.191  27.756  1.00  0.00     0.064 A 
ATOM     73  C   UNL A   1      43.322  26.665  26.852  1.00  0.00     0.173 A 
ATOM     74  C   UNL A   1      41.854  24.900  27.552  1.00  0.00     0.173 A 
ATOM     75  F   UNL A   1      43.826  27.900  26.996  1.00  0.00    -0.203 F 
ATOM     76  C   UNL A   1      43.739  25.888  25.775  1.00  0.00     0.198 A 
ATOM     77  C   UNL A   1      42.296  24.111  26.494  1.00  0.00     0.198 A 
ATOM     78  F   UNL A   1      40.939  24.397  28.394  1.00  0.00    -0.203 F 
ATOM     79  F   UNL A   1      44.622  26.382  24.897  1.00  0.00    -0.200 F 
ATOM     80  C   UNL A   1      43.231  24.609  25.600  1.00  0.00     0.200 A 
ATOM     81  F   UNL A   1      41.816  22.869  26.341  1.00  0.00    -0.200 F 
ATOM     82  F   UNL A   1      43.637  23.859  24.567  1.00  0.00    -0.200 F 
ENDBRANCH  44  72
BRANCH  59  83
ATOM     83  C   UNL A   1      44.904  27.504  34.101  1.00  0.00     0.064 A 
ATOM     84  C   UNL A   1      44.872  26.346  34.893  1.00  0.00     0.173 A 
ATOM     85  C   UNL A   1      46.122  28.192  33.991  1.00  0.00     0.173 A 
ATOM     86  F   UNL A   1      43.727  25.663  35.044  1.00  0.00    -0.203 F 
ATOM     87  C   UNL A   1      46.006  25.914  35.575  1.00  0.00     0.198 A 
ATOM     88  C   UNL A   1      47.261  27.740  34.650  1.00  0.00     0.198 A 
ATOM     89  F   UNL A   1      46.206  29.301  33.242  1.00  0.00    -0.203 F 
ATOM     90  F   UNL A   1      45.938  24.839  36.371  1.00  0.00    -0.200 F 
ATOM     91  C   UNL A   1      47.200  26.608  35.449  1.00  0.00     0.200 A 
ATOM     92  F   UNL A   1      48.417  28.406  34.520  1.00  0.00    -0.200 F 
ATOM     93  F   UNL A   1      48.291  26.192  36.108  1.00  0.00    -0.200 F 
ENDBRANCH  59  83
ENDBRANCH  24  27
ENDBRANCH  15  17
ENDBRANCH  10  13
ENDBRANCH   7  10
ENDBRANCH   4   7
ENDBRANCH   1   4
BRANCH   1  94
ATOM     94  C   UNL A   1      33.357  25.751  21.966  1.00  0.00    -0.036 C 
ATOM     95  H   UNL A   1      33.959  25.918  21.096  1.00  0.00     0.028 H 
ATOM     96  H   UNL A   1      32.354  25.453  21.742  1.00  0.00     0.028 H 
BRANCH  94  97
ATOM     97  C   UNL A   1      33.975  24.595  22.751  1.00  0.00     0.018 C 
ATOM     98  H   UNL A   1      34.001  24.857  23.788  1.00  0.00     0.049 H 
ATOM     99  H   UNL A   1      34.959  24.425  22.371  1.00  0.00     0.049 H 
BRANCH  97 100
ATOM    100  N   UNL A   1      33.215  23.368  22.596  1.00  0.00    -0.352 N 
ATOM    101  C   UNL A   1      32.079  22.965  23.246  1.00  0.00     0.251 C 
ATOM    102  H   UNL A   1      33.567  22.736  21.928  1.00  0.00     0.163 HD
ATOM    103  O   UNL A   1      31.676  21.811  23.130  1.00  0.00    -0.269 OA
BRANCH 101 104
ATOM    104  C   UNL A   1      31.337  23.917  24.096  1.00  0.00     0.041 A 
ATOM    105  C   UNL A   1      31.675  24.013  25.445  1.00  0.00    -0.049 A 
ATOM    106  C   UNL A   1      30.278  24.669  23.570  1.00  0.00    -0.026 A 
ATOM    107  C   UNL A   1      30.980  24.899  26.260  1.00  0.00    -0.059 A 
ATOM    108  H   UNL A   1      32.433  23.432  25.835  1.00  0.00     0.063 H 
ATOM    109  C   UNL A   1      29.567  25.562  24.380  1.00  0.00     0.039 A 
ATOM    110  H   UNL A   1      30.020  24.565  22.577  1.00  0.00     0.065 H 
ATOM    111  C   UNL A   1      29.944  25.672  25.726  1.00  0.00    -0.039 A 
ATOM    112  H   UNL A   1      31.229  24.988  27.258  1.00  0.00     0.062 H 
ATOM    113  H   UNL A   1      29.446  26.340  26.337  1.00  0.00     0.064 H 
BRANCH 109 114
ATOM    114  N   UNL A   1      28.533  26.326  23.807  1.00  0.00    -0.356 N 
ATOM    115  H   UNL A   1      27.707  25.827  23.612  1.00  0.00     0.167 HD
BRANCH 114 116
ATOM    116  C   UNL A   1      28.498  27.690  23.471  1.00  0.00     0.039 A 
ATOM    117  C   UNL A   1      29.663  28.298  22.986  1.00  0.00    -0.032 A 
ATOM    118  C   UNL A   1      27.313  28.436  23.500  1.00  0.00    -0.032 A 
ATOM    119  C   UNL A   1      29.638  29.609  22.502  1.00  0.00     0.018 A 
ATOM    120  H   UNL A   1      30.550  27.772  22.985  1.00  0.00     0.065 H 
ATOM    121  C   UNL A   1      27.279  29.751  23.027  1.00  0.00     0.018 A 
ATOM    122  H   UNL A   1      26.453  28.008  23.877  1.00  0.00     0.065 H 
ATOM    123  C   UNL A   1      28.440  30.327  22.508  1.00  0.00     0.269 A 
ATOM    124  H   UNL A   1      30.501  30.044  22.140  1.00  0.00     0.070 H 
ATOM    125  H   UNL A   1      26.400  30.291  23.060  1.00  0.00     0.070 H 
BRANCH 123 126
ATOM    126  N   UNL A   1      28.394  31.656  21.946  1.00  0.00     0.062 N 
ATOM    127  O   UNL A   1      28.445  31.831  20.746  1.00  0.00    -0.258 OA
ATOM    128  O   UNL A   1      28.250  32.762  22.751  1.00  0.00    -0.258 OA
ENDBRANCH 123 126
ENDBRANCH 114 116
ENDBRANCH 109 114
ENDBRANCH 101 104
ENDBRANCH  97 100
ENDBRANCH  94  97
ENDBRANCH   1  94
TORSDOF 16
ENDMDL
MODEL 9
REMARK VINA RESULT:     -12.1      5.616     10.848
REMARK SMILES O=C(NCCCCCCNC(=O)c1cccc(Nc2ccc([N+](=O)[O-])cc2)c1)c1ccc(-c2c3nc(c(-c4c(F)c(F)c(F)c(F)c4F)c4ccc([nH]4)c(-c4c(F)c(F)c(F)c(F)c4F)c4nc(c(-c5c(F)c(F)c(F)c(F)c5F)c5ccc2[nH]5)C=C4)C=C3)cc1
REMARK SMILES IDX 7 1 6 4 5 7 4 10 3 13 1 14 2 15 29 17 30 18 91 19 31 20
REMARK SMILES IDX 90 22 32 24 33 27 34 28 84 29 35 30 89 31 83 32 85 33 36 34
REMARK SMILES IDX 88 35 82 37 81 39 37 41 69 44 49 45 68 46 50 47 53 48 67 49
REMARK SMILES IDX 86 50 51 51 52 53 66 55 87 56 54 59 38 61 39 62 47 63 40 64
REMARK SMILES IDX 41 65 45 66 48 67 42 68 43 69 46 70 44 71 70 72 71 73 79 74
REMARK SMILES IDX 72 75 73 76 77 77 80 78 74 79 75 80 78 81 76 82 55 83 56 84
REMARK SMILES IDX 64 85 57 86 58 87 62 88 65 89 59 90 60 91 63 92 61 93 8 94
REMARK SMILES IDX 9 97 10 100 11 101 12 103 13 104 14 105 28 106 15 107 17 109
REMARK SMILES IDX 16 111 18 114 19 116 20 117 27 118 21 119 26 121 22 123
REMARK SMILES IDX 23 126 24 127 25 128
REMARK H PARENT 7 2 7 3 6 5 6 6 5 8 5 9 4 11 4 12 3 16 30 21 91 23 31 25 90 26
REMARK H PARENT 89 36 83 38 85 40 88 42 82 43 50 52 53 54 86 57 51 58 87 60
REMARK H PARENT 8 95 8 96 9 98 9 99 10 102 14 108 28 110 15 112 16 113 18 115
REMARK H PARENT 20 120 27 122 21 124 26 125
REMARK Flexibility Score: inf
ROOT
ATOM      1  C   UNL A   1      32.601  30.123  27.031  1.00  0.00    -0.052 C 
ATOM      2  H   UNL A   1      32.803  30.604  27.966  1.00  0.00     0.027 H 
ATOM      3  H   UNL A   1      33.404  30.187  26.326  1.00  0.00     0.027 H 
ENDROOT
BRANCH   1   4
ATOM      4  C   UNL A   1      31.418  30.842  26.378  1.00  0.00    -0.052 C 
ATOM      5  H   UNL A   1      31.431  30.617  25.332  1.00  0.00     0.027 H 
ATOM      6  H   UNL A   1      30.544  30.489  26.885  1.00  0.00     0.027 H 
BRANCH   4   7
ATOM      7  C   UNL A   1      31.405  32.362  26.532  1.00  0.00    -0.036 C 
ATOM      8  H   UNL A   1      31.362  32.794  25.553  1.00  0.00     0.028 H 
ATOM      9  H   UNL A   1      30.553  32.594  27.136  1.00  0.00     0.028 H 
BRANCH   7  10
ATOM     10  C   UNL A   1      32.610  32.948  27.253  1.00  0.00     0.018 C 
ATOM     11  H   UNL A   1      32.838  32.328  28.096  1.00  0.00     0.049 H 
ATOM     12  H   UNL A   1      33.418  32.981  26.553  1.00  0.00     0.049 H 
BRANCH  10  13
ATOM     13  N   UNL A   1      32.386  34.304  27.724  1.00  0.00    -0.352 N 
ATOM     14  O   UNL A   1      32.629  36.091  29.086  1.00  0.00    -0.269 OA
ATOM     15  C   UNL A   1      33.036  34.993  28.721  1.00  0.00     0.251 C 
ATOM     16  H   UNL A   1      31.670  34.800  27.264  1.00  0.00     0.163 HD
BRANCH  15  17
ATOM     17  C   UNL A   1      34.216  34.388  29.377  1.00  0.00     0.039 A 
ATOM     18  C   UNL A   1      35.502  34.648  28.904  1.00  0.00    -0.049 A 
ATOM     19  C   UNL A   1      34.030  33.547  30.479  1.00  0.00    -0.049 A 
ATOM     20  C   UNL A   1      36.584  33.954  29.431  1.00  0.00    -0.053 A 
ATOM     21  H   UNL A   1      35.650  35.354  28.165  1.00  0.00     0.063 H 
ATOM     22  C   UNL A   1      35.133  32.920  31.069  1.00  0.00    -0.053 A 
ATOM     23  H   UNL A   1      33.082  33.388  30.855  1.00  0.00     0.063 H 
ATOM     24  C   UNL A   1      36.416  33.095  30.530  1.00  0.00    -0.014 A 
ATOM     25  H   UNL A   1      37.519  34.070  29.010  1.00  0.00     0.063 H 
ATOM     26  H   UNL A   1      35.002  32.328  31.903  1.00  0.00     0.063 H 
BRANCH  24  27
ATOM     27  C   UNL A   1      37.615  32.454  31.129  1.00  0.00     0.031 A 
ATOM     28  C   UNL A   1      38.096  32.821  32.505  1.00  0.00     0.074 A 
ATOM     29  C   UNL A   1      38.240  31.489  30.428  1.00  0.00     0.049 A 
ATOM     30  N   UNL A   1      39.095  32.320  33.188  1.00  0.00    -0.248 NA
ATOM     31  C   UNL A   1      37.370  33.891  33.205  1.00  0.00    -0.034 C 
ATOM     32  C   UNL A   1      37.874  31.065  29.074  1.00  0.00    -0.036 A 
ATOM     33  N   UNL A   1      39.294  30.677  30.756  1.00  0.00    -0.354 N 
ATOM     34  C   UNL A   1      39.122  33.013  34.391  1.00  0.00     0.074 A 
ATOM     35  C   UNL A   1      38.060  33.996  34.332  1.00  0.00    -0.034 C 
ATOM     36  H   UNL A   1      36.540  34.422  32.899  1.00  0.00     0.065 H 
ATOM     37  C   UNL A   1      38.656  30.039  28.708  1.00  0.00    -0.036 A 
ATOM     38  H   UNL A   1      37.133  31.488  28.495  1.00  0.00     0.065 H 
ATOM     39  C   UNL A   1      39.616  29.774  29.772  1.00  0.00     0.049 A 
ATOM     40  H   UNL A   1      39.774  30.735  31.613  1.00  0.00     0.167 HD
ATOM     41  C   UNL A   1      39.949  32.835  35.450  1.00  0.00     0.037 A 
ATOM     42  H   UNL A   1      37.867  34.690  35.072  1.00  0.00     0.065 H 
ATOM     43  H   UNL A   1      38.587  29.521  27.817  1.00  0.00     0.065 H 
ATOM     44  C   UNL A   1      40.587  28.844  29.723  1.00  0.00     0.037 A 
ATOM     45  C   UNL A   1      41.004  31.853  35.502  1.00  0.00     0.049 A 
ATOM     46  C   UNL A   1      41.498  28.682  30.906  1.00  0.00     0.074 A 
ATOM     47  C   UNL A   1      41.893  31.592  36.531  1.00  0.00    -0.036 A 
ATOM     48  N   UNL A   1      41.312  30.968  34.477  1.00  0.00    -0.354 N 
ATOM     49  N   UNL A   1      41.494  29.328  32.046  1.00  0.00    -0.248 NA
ATOM     50  C   UNL A   1      42.546  27.661  30.795  1.00  0.00    -0.034 C 
ATOM     51  C   UNL A   1      42.761  30.576  36.115  1.00  0.00    -0.036 A 
ATOM     52  H   UNL A   1      41.911  32.065  37.448  1.00  0.00     0.065 H 
ATOM     53  C   UNL A   1      42.384  30.171  34.847  1.00  0.00     0.049 A 
ATOM     54  H   UNL A   1      40.838  30.915  33.616  1.00  0.00     0.167 HD
ATOM     55  C   UNL A   1      42.529  28.785  32.793  1.00  0.00     0.074 A 
ATOM     56  C   UNL A   1      43.118  27.735  31.988  1.00  0.00    -0.034 C 
ATOM     57  H   UNL A   1      42.777  27.047  29.999  1.00  0.00     0.065 H 
ATOM     58  H   UNL A   1      43.549  30.196  36.662  1.00  0.00     0.065 H 
ATOM     59  C   UNL A   1      42.959  29.131  34.031  1.00  0.00     0.037 A 
ATOM     60  H   UNL A   1      43.886  27.123  32.304  1.00  0.00     0.065 H 
BRANCH  41  61
ATOM     61  C   UNL A   1      39.753  33.720  36.647  1.00  0.00     0.064 A 
ATOM     62  C   UNL A   1      40.355  34.985  36.730  1.00  0.00     0.173 A 
ATOM     63  C   UNL A   1      38.906  33.329  37.696  1.00  0.00     0.173 A 
ATOM     64  F   UNL A   1      41.181  35.403  35.759  1.00  0.00    -0.203 F 
ATOM     65  C   UNL A   1      40.131  35.816  37.824  1.00  0.00     0.198 A 
ATOM     66  C   UNL A   1      38.664  34.173  38.777  1.00  0.00     0.198 A 
ATOM     67  F   UNL A   1      38.299  32.133  37.664  1.00  0.00    -0.203 F 
ATOM     68  F   UNL A   1      40.745  37.004  37.898  1.00  0.00    -0.200 F 
ATOM     69  C   UNL A   1      39.280  35.413  38.843  1.00  0.00     0.200 A 
ATOM     70  F   UNL A   1      37.831  33.788  39.753  1.00  0.00    -0.200 F 
ATOM     71  F   UNL A   1      39.056  36.220  39.889  1.00  0.00    -0.200 F 
ENDBRANCH  41  61
BRANCH  44  72
ATOM     72  C   UNL A   1      40.747  28.007  28.506  1.00  0.00     0.064 A 
ATOM     73  C   UNL A   1      40.132  26.752  28.402  1.00  0.00     0.173 A 
ATOM     74  C   UNL A   1      41.519  28.449  27.421  1.00  0.00     0.173 A 
ATOM     75  F   UNL A   1      39.398  26.279  29.419  1.00  0.00    -0.203 F 
ATOM     76  C   UNL A   1      40.301  25.963  27.267  1.00  0.00     0.198 A 
ATOM     77  C   UNL A   1      41.660  27.673  26.274  1.00  0.00     0.198 A 
ATOM     78  F   UNL A   1      42.123  29.646  27.469  1.00  0.00    -0.203 F 
ATOM     79  F   UNL A   1      39.742  24.747  27.212  1.00  0.00    -0.200 F 
ATOM     80  C   UNL A   1      41.059  26.426  26.202  1.00  0.00     0.200 A 
ATOM     81  F   UNL A   1      42.377  28.134  25.240  1.00  0.00    -0.200 F 
ATOM     82  F   UNL A   1      41.215  25.668  25.107  1.00  0.00    -0.200 F 
ENDBRANCH  44  72
BRANCH  59  83
ATOM     83  C   UNL A   1      44.109  28.347  34.591  1.00  0.00     0.064 A 
ATOM     84  C   UNL A   1      45.437  28.765  34.415  1.00  0.00     0.173 A 
ATOM     85  C   UNL A   1      43.880  27.170  35.318  1.00  0.00     0.173 A 
ATOM     86  F   UNL A   1      45.708  29.874  33.712  1.00  0.00    -0.203 F 
ATOM     87  C   UNL A   1      46.495  28.014  34.917  1.00  0.00     0.198 A 
ATOM     88  C   UNL A   1      44.940  26.437  35.845  1.00  0.00     0.198 A 
ATOM     89  F   UNL A   1      42.629  26.731  35.519  1.00  0.00    -0.203 F 
ATOM     90  F   UNL A   1      47.757  28.399  34.687  1.00  0.00    -0.200 F 
ATOM     91  C   UNL A   1      46.245  26.854  35.636  1.00  0.00     0.200 A 
ATOM     92  F   UNL A   1      44.697  25.322  36.548  1.00  0.00    -0.200 F 
ATOM     93  F   UNL A   1      47.266  26.130  36.118  1.00  0.00    -0.200 F 
ENDBRANCH  59  83
ENDBRANCH  24  27
ENDBRANCH  15  17
ENDBRANCH  10  13
ENDBRANCH   7  10
ENDBRANCH   4   7
ENDBRANCH   1   4
BRANCH   1  94
ATOM     94  C   UNL A   1      32.406  28.628  27.304  1.00  0.00    -0.036 C 
ATOM     95  H   UNL A   1      31.404  28.370  27.030  1.00  0.00     0.028 H 
ATOM     96  H   UNL A   1      32.615  28.487  28.344  1.00  0.00     0.028 H 
BRANCH  94  97
ATOM     97  C   UNL A   1      33.355  27.697  26.552  1.00  0.00     0.018 C 
ATOM     98  H   UNL A   1      32.823  26.811  26.276  1.00  0.00     0.049 H 
ATOM     99  H   UNL A   1      34.177  27.469  27.197  1.00  0.00     0.049 H 
BRANCH  97 100
ATOM    100  N   UNL A   1      33.885  28.319  25.353  1.00  0.00    -0.352 N 
ATOM    101  C   UNL A   1      33.352  28.363  24.092  1.00  0.00     0.251 C 
ATOM    102  H   UNL A   1      34.751  28.775  25.461  1.00  0.00     0.163 HD
ATOM    103  O   UNL A   1      34.026  28.767  23.149  1.00  0.00    -0.269 OA
BRANCH 101 104
ATOM    104  C   UNL A   1      31.963  27.919  23.862  1.00  0.00     0.041 A 
ATOM    105  C   UNL A   1      30.996  28.877  23.560  1.00  0.00    -0.049 A 
ATOM    106  C   UNL A   1      31.612  26.569  23.998  1.00  0.00    -0.026 A 
ATOM    107  C   UNL A   1      29.682  28.475  23.349  1.00  0.00    -0.059 A 
ATOM    108  H   UNL A   1      31.252  29.874  23.494  1.00  0.00     0.063 H 
ATOM    109  C   UNL A   1      30.293  26.152  23.793  1.00  0.00     0.039 A 
ATOM    110  H   UNL A   1      32.333  25.877  24.252  1.00  0.00     0.065 H 
ATOM    111  C   UNL A   1      29.340  27.123  23.455  1.00  0.00    -0.039 A 
ATOM    112  H   UNL A   1      28.959  29.174  23.114  1.00  0.00     0.062 H 
ATOM    113  H   UNL A   1      28.364  26.834  23.279  1.00  0.00     0.064 H 
BRANCH 109 114
ATOM    114  N   UNL A   1      29.986  24.782  23.905  1.00  0.00    -0.356 N 
ATOM    115  H   UNL A   1      29.033  24.560  23.807  1.00  0.00     0.167 HD
BRANCH 114 116
ATOM    116  C   UNL A   1      30.832  23.684  24.134  1.00  0.00     0.039 A 
ATOM    117  C   UNL A   1      30.883  23.125  25.419  1.00  0.00    -0.032 A 
ATOM    118  C   UNL A   1      31.543  23.060  23.101  1.00  0.00    -0.032 A 
ATOM    119  C   UNL A   1      31.593  21.946  25.658  1.00  0.00     0.018 A 
ATOM    120  H   UNL A   1      30.388  23.589  26.196  1.00  0.00     0.065 H 
ATOM    121  C   UNL A   1      32.265  21.885  23.332  1.00  0.00     0.018 A 
ATOM    122  H   UNL A   1      31.534  23.474  22.157  1.00  0.00     0.065 H 
ATOM    123  C   UNL A   1      32.270  21.319  24.609  1.00  0.00     0.269 A 
ATOM    124  H   UNL A   1      31.617  21.540  26.606  1.00  0.00     0.070 H 
ATOM    125  H   UNL A   1      32.790  21.439  22.564  1.00  0.00     0.070 H 
BRANCH 123 126
ATOM    126  N   UNL A   1      32.948  20.065  24.837  1.00  0.00     0.062 N 
ATOM    127  O   UNL A   1      34.152  19.973  24.716  1.00  0.00    -0.258 OA
ATOM    128  O   UNL A   1      32.255  18.947  25.240  1.00  0.00    -0.258 OA
ENDBRANCH 123 126
ENDBRANCH 114 116
ENDBRANCH 109 114
ENDBRANCH 101 104
ENDBRANCH  97 100
ENDBRANCH  94  97
ENDBRANCH   1  94
TORSDOF 16
ENDMDL
MODEL 10
REMARK VINA RESULT:     -12.1      4.695      9.974
REMARK SMILES O=C(NCCCCCCNC(=O)c1cccc(Nc2ccc([N+](=O)[O-])cc2)c1)c1ccc(-c2c3nc(c(-c4c(F)c(F)c(F)c(F)c4F)c4ccc([nH]4)c(-c4c(F)c(F)c(F)c(F)c4F)c4nc(c(-c5c(F)c(F)c(F)c(F)c5F)c5ccc2[nH]5)C=C4)C=C3)cc1
REMARK SMILES IDX 7 1 6 4 5 7 4 10 3 13 1 14 2 15 29 17 30 18 91 19 31 20
REMARK SMILES IDX 90 22 32 24 33 27 34 28 84 29 35 30 89 31 83 32 85 33 36 34
REMARK SMILES IDX 88 35 82 37 81 39 37 41 69 44 49 45 68 46 50 47 53 48 67 49
REMARK SMILES IDX 86 50 51 51 52 53 66 55 87 56 54 59 38 61 39 62 47 63 40 64
REMARK SMILES IDX 41 65 45 66 48 67 42 68 43 69 46 70 44 71 70 72 71 73 79 74
REMARK SMILES IDX 72 75 73 76 77 77 80 78 74 79 75 80 78 81 76 82 55 83 56 84
REMARK SMILES IDX 64 85 57 86 58 87 62 88 65 89 59 90 60 91 63 92 61 93 8 94
REMARK SMILES IDX 9 97 10 100 11 101 12 103 13 104 14 105 28 106 15 107 17 109
REMARK SMILES IDX 16 111 18 114 19 116 20 117 27 118 21 119 26 121 22 123
REMARK SMILES IDX 23 126 24 127 25 128
REMARK H PARENT 7 2 7 3 6 5 6 6 5 8 5 9 4 11 4 12 3 16 30 21 91 23 31 25 90 26
REMARK H PARENT 89 36 83 38 85 40 88 42 82 43 50 52 53 54 86 57 51 58 87 60
REMARK H PARENT 8 95 8 96 9 98 9 99 10 102 14 108 28 110 15 112 16 113 18 115
REMARK H PARENT 20 120 27 122 21 124 26 125
REMARK Flexibility Score: inf
ROOT
ATOM      1  C   UNL A   1      32.416  27.095  22.711  1.00  0.00    -0.052 C 
ATOM      2  H   UNL A   1      32.829  26.644  23.588  1.00  0.00     0.027 H 
ATOM      3  H   UNL A   1      32.910  26.817  21.803  1.00  0.00     0.027 H 
ENDROOT
BRANCH   1   4
ATOM      4  C   UNL A   1      32.596  28.611  22.834  1.00  0.00    -0.052 C 
ATOM      5  H   UNL A   1      32.766  29.003  21.853  1.00  0.00     0.027 H 
ATOM      6  H   UNL A   1      31.702  28.976  23.296  1.00  0.00     0.027 H 
BRANCH   4   7
ATOM      7  C   UNL A   1      33.747  29.067  23.728  1.00  0.00    -0.036 C 
ATOM      8  H   UNL A   1      34.595  28.448  23.519  1.00  0.00     0.028 H 
ATOM      9  H   UNL A   1      33.909  30.100  23.503  1.00  0.00     0.028 H 
BRANCH   7  10
ATOM     10  C   UNL A   1      33.469  28.996  25.223  1.00  0.00     0.018 C 
ATOM     11  H   UNL A   1      32.828  28.160  25.412  1.00  0.00     0.049 H 
ATOM     12  H   UNL A   1      34.411  28.897  25.720  1.00  0.00     0.049 H 
BRANCH  10  13
ATOM     13  N   UNL A   1      32.829  30.195  25.738  1.00  0.00    -0.352 N 
ATOM     14  O   UNL A   1      32.468  31.892  27.186  1.00  0.00    -0.269 OA
ATOM     15  C   UNL A   1      33.201  30.988  26.798  1.00  0.00     0.251 C 
ATOM     16  H   UNL A   1      32.014  30.479  25.262  1.00  0.00     0.163 HD
BRANCH  15  17
ATOM     17  C   UNL A   1      34.482  30.728  27.490  1.00  0.00     0.039 A 
ATOM     18  C   UNL A   1      34.768  29.461  28.001  1.00  0.00    -0.049 A 
ATOM     19  C   UNL A   1      35.408  31.767  27.631  1.00  0.00    -0.049 A 
ATOM     20  C   UNL A   1      35.903  29.273  28.781  1.00  0.00    -0.053 A 
ATOM     21  H   UNL A   1      34.140  28.667  27.801  1.00  0.00     0.063 H 
ATOM     22  C   UNL A   1      36.595  31.550  28.338  1.00  0.00    -0.053 A 
ATOM     23  H   UNL A   1      35.214  32.692  27.217  1.00  0.00     0.063 H 
ATOM     24  C   UNL A   1      36.838  30.308  28.945  1.00  0.00    -0.014 A 
ATOM     25  H   UNL A   1      36.059  28.364  29.244  1.00  0.00     0.063 H 
ATOM     26  H   UNL A   1      37.294  32.304  28.413  1.00  0.00     0.063 H 
BRANCH  24  27
ATOM     27  C   UNL A   1      38.089  30.033  29.698  1.00  0.00     0.031 A 
ATOM     28  C   UNL A   1      38.295  30.550  31.094  1.00  0.00     0.074 A 
ATOM     29  C   UNL A   1      39.026  29.259  29.117  1.00  0.00     0.049 A 
ATOM     30  N   UNL A   1      39.307  30.356  31.902  1.00  0.00    -0.248 NA
ATOM     31  C   UNL A   1      37.234  31.397  31.657  1.00  0.00    -0.034 C 
ATOM     32  C   UNL A   1      38.943  28.718  27.758  1.00  0.00    -0.036 A 
ATOM     33  N   UNL A   1      40.215  28.773  29.595  1.00  0.00    -0.354 N 
ATOM     34  C   UNL A   1      39.010  31.059  33.062  1.00  0.00     0.074 A 
ATOM     35  C   UNL A   1      37.738  31.714  32.842  1.00  0.00    -0.034 C 
ATOM     36  H   UNL A   1      36.331  31.675  31.240  1.00  0.00     0.065 H 
ATOM     37  C   UNL A   1      40.008  27.936  27.529  1.00  0.00    -0.036 A 
ATOM     38  H   UNL A   1      38.186  28.909  27.083  1.00  0.00     0.065 H 
ATOM     39  C   UNL A   1      40.877  27.969  28.699  1.00  0.00     0.049 A 
ATOM     40  H   UNL A   1      40.561  28.980  30.493  1.00  0.00     0.167 HD
ATOM     41  C   UNL A   1      39.729  31.138  34.208  1.00  0.00     0.037 A 
ATOM     42  H   UNL A   1      37.282  32.345  33.520  1.00  0.00     0.065 H 
ATOM     43  H   UNL A   1      40.182  27.399  26.665  1.00  0.00     0.065 H 
ATOM     44  C   UNL A   1      42.060  27.338  28.800  1.00  0.00     0.037 A 
ATOM     45  C   UNL A   1      40.996  30.482  34.421  1.00  0.00     0.049 A 
ATOM     46  C   UNL A   1      42.841  27.458  30.077  1.00  0.00     0.074 A 
ATOM     47  C   UNL A   1      41.800  30.498  35.549  1.00  0.00    -0.036 A 
ATOM     48  N   UNL A   1      41.644  29.691  33.483  1.00  0.00    -0.354 N 
ATOM     49  N   UNL A   1      42.535  28.105  31.175  1.00  0.00    -0.248 NA
ATOM     50  C   UNL A   1      44.131  26.759  30.130  1.00  0.00    -0.034 C 
ATOM     51  C   UNL A   1      42.950  29.748  35.280  1.00  0.00    -0.036 A 
ATOM     52  H   UNL A   1      41.586  30.980  36.437  1.00  0.00     0.065 H 
ATOM     53  C   UNL A   1      42.843  29.226  34.003  1.00  0.00     0.049 A 
ATOM     54  H   UNL A   1      41.303  29.490  32.582  1.00  0.00     0.167 HD
ATOM     55  C   UNL A   1      43.585  27.884  32.052  1.00  0.00     0.074 A 
ATOM     56  C   UNL A   1      44.522  27.015  31.370  1.00  0.00    -0.034 C 
ATOM     57  H   UNL A   1      44.606  26.213  29.396  1.00  0.00     0.065 H 
ATOM     58  H   UNL A   1      43.744  29.610  35.925  1.00  0.00     0.065 H 
ATOM     59  C   UNL A   1      43.764  28.363  33.307  1.00  0.00     0.037 A 
ATOM     60  H   UNL A   1      45.386  26.643  31.795  1.00  0.00     0.065 H 
BRANCH  41  61
ATOM     61  C   UNL A   1      39.168  31.965  35.330  1.00  0.00     0.064 A 
ATOM     62  C   UNL A   1      38.411  31.386  36.360  1.00  0.00     0.173 A 
ATOM     63  C   UNL A   1      39.440  33.340  35.411  1.00  0.00     0.173 A 
ATOM     64  F   UNL A   1      38.114  30.079  36.325  1.00  0.00    -0.203 F 
ATOM     65  C   UNL A   1      37.934  32.155  37.418  1.00  0.00     0.198 A 
ATOM     66  C   UNL A   1      38.983  34.101  36.484  1.00  0.00     0.198 A 
ATOM     67  F   UNL A   1      40.166  33.943  34.456  1.00  0.00    -0.203 F 
ATOM     68  F   UNL A   1      37.183  31.588  38.372  1.00  0.00    -0.200 F 
ATOM     69  C   UNL A   1      38.227  33.509  37.484  1.00  0.00     0.200 A 
ATOM     70  F   UNL A   1      39.278  35.406  36.553  1.00  0.00    -0.200 F 
ATOM     71  F   UNL A   1      37.776  34.245  38.510  1.00  0.00    -0.200 F 
ENDBRANCH  41  61
BRANCH  44  72
ATOM     72  C   UNL A   1      42.577  26.548  27.653  1.00  0.00     0.064 A 
ATOM     73  C   UNL A   1      42.213  25.207  27.473  1.00  0.00     0.173 A 
ATOM     74  C   UNL A   1      43.444  27.122  26.711  1.00  0.00     0.173 A 
ATOM     75  F   UNL A   1      41.400  24.609  28.356  1.00  0.00    -0.203 F 
ATOM     76  C   UNL A   1      42.715  24.464  26.407  1.00  0.00     0.198 A 
ATOM     77  C   UNL A   1      43.918  26.388  25.628  1.00  0.00     0.198 A 
ATOM     78  F   UNL A   1      43.816  28.405  26.835  1.00  0.00    -0.203 F 
ATOM     79  F   UNL A   1      42.390  23.170  26.284  1.00  0.00    -0.200 F 
ATOM     80  C   UNL A   1      43.561  25.057  25.482  1.00  0.00     0.200 A 
ATOM     81  F   UNL A   1      44.720  26.971  24.726  1.00  0.00    -0.200 F 
ATOM     82  F   UNL A   1      44.038  24.343  24.452  1.00  0.00    -0.200 F 
ENDBRANCH  44  72
BRANCH  59  83
ATOM     83  C   UNL A   1      45.010  27.936  34.024  1.00  0.00     0.064 A 
ATOM     84  C   UNL A   1      45.047  26.767  34.801  1.00  0.00     0.173 A 
ATOM     85  C   UNL A   1      46.183  28.699  33.928  1.00  0.00     0.173 A 
ATOM     86  F   UNL A   1      43.946  26.013  34.938  1.00  0.00    -0.203 F 
ATOM     87  C   UNL A   1      46.203  26.398  35.482  1.00  0.00     0.198 A 
ATOM     88  C   UNL A   1      47.346  28.310  34.587  1.00  0.00     0.198 A 
ATOM     89  F   UNL A   1      46.201  29.821  33.194  1.00  0.00    -0.203 F 
ATOM     90  F   UNL A   1      46.198  25.311  36.265  1.00  0.00    -0.200 F 
ATOM     91  C   UNL A   1      47.352  27.166  35.371  1.00  0.00     0.200 A 
ATOM     92  F   UNL A   1      48.459  29.048  34.470  1.00  0.00    -0.200 F 
ATOM     93  F   UNL A   1      48.464  26.810  36.029  1.00  0.00    -0.200 F 
ENDBRANCH  59  83
ENDBRANCH  24  27
ENDBRANCH  15  17
ENDBRANCH  10  13
ENDBRANCH   7  10
ENDBRANCH   4   7
ENDBRANCH   1   4
BRANCH   1  94
ATOM     94  C   UNL A   1      30.972  26.604  22.565  1.00  0.00    -0.036 C 
ATOM     95  H   UNL A   1      30.935  25.927  21.735  1.00  0.00     0.028 H 
ATOM     96  H   UNL A   1      30.373  27.480  22.430  1.00  0.00     0.028 H 
BRANCH  94  97
ATOM     97  C   UNL A   1      30.401  25.884  23.785  1.00  0.00     0.018 C 
ATOM     98  H   UNL A   1      30.922  24.959  23.916  1.00  0.00     0.049 H 
ATOM     99  H   UNL A   1      29.358  25.719  23.615  1.00  0.00     0.049 H 
BRANCH  97 100
ATOM    100  N   UNL A   1      30.538  26.676  24.993  1.00  0.00    -0.352 N 
ATOM    101  C   UNL A   1      31.215  26.384  26.148  1.00  0.00     0.251 C 
ATOM    102  H   UNL A   1      30.080  27.547  24.981  1.00  0.00     0.163 HD
ATOM    103  O   UNL A   1      31.067  27.084  27.145  1.00  0.00    -0.269 OA
BRANCH 101 104
ATOM    104  C   UNL A   1      32.121  25.219  26.198  1.00  0.00     0.041 A 
ATOM    105  C   UNL A   1      31.671  24.049  26.808  1.00  0.00    -0.049 A 
ATOM    106  C   UNL A   1      33.425  25.306  25.693  1.00  0.00    -0.026 A 
ATOM    107  C   UNL A   1      32.516  22.946  26.871  1.00  0.00    -0.059 A 
ATOM    108  H   UNL A   1      30.722  24.001  27.209  1.00  0.00     0.063 H 
ATOM    109  C   UNL A   1      34.287  24.205  25.753  1.00  0.00     0.039 A 
ATOM    110  H   UNL A   1      33.753  26.188  25.273  1.00  0.00     0.065 H 
ATOM    111  C   UNL A   1      33.807  23.024  26.338  1.00  0.00    -0.039 A 
ATOM    112  H   UNL A   1      32.190  22.070  27.309  1.00  0.00     0.062 H 
ATOM    113  H   UNL A   1      34.419  22.194  26.375  1.00  0.00     0.064 H 
BRANCH 109 114
ATOM    114  N   UNL A   1      35.577  24.320  25.204  1.00  0.00    -0.356 N 
ATOM    115  H   UNL A   1      35.695  25.066  24.573  1.00  0.00     0.167 HD
BRANCH 114 116
ATOM    116  C   UNL A   1      36.722  23.533  25.416  1.00  0.00     0.039 A 
ATOM    117  C   UNL A   1      37.792  24.076  26.140  1.00  0.00    -0.032 A 
ATOM    118  C   UNL A   1      36.788  22.190  25.023  1.00  0.00    -0.032 A 
ATOM    119  C   UNL A   1      38.886  23.285  26.501  1.00  0.00     0.018 A 
ATOM    120  H   UNL A   1      37.771  25.071  26.411  1.00  0.00     0.065 H 
ATOM    121  C   UNL A   1      37.882  21.392  25.371  1.00  0.00     0.018 A 
ATOM    122  H   UNL A   1      36.019  21.784  24.469  1.00  0.00     0.065 H 
ATOM    123  C   UNL A   1      38.920  21.938  26.129  1.00  0.00     0.269 A 
ATOM    124  H   UNL A   1      39.665  23.693  27.040  1.00  0.00     0.070 H 
ATOM    125  H   UNL A   1      37.922  20.406  25.070  1.00  0.00     0.070 H 
BRANCH 123 126
ATOM    126  N   UNL A   1      40.016  21.101  26.559  1.00  0.00     0.062 N 
ATOM    127  O   UNL A   1      40.506  21.228  27.661  1.00  0.00    -0.258 OA
ATOM    128  O   UNL A   1      40.508  20.106  25.746  1.00  0.00    -0.258 OA
ENDBRANCH 123 126
ENDBRANCH 114 116
ENDBRANCH 109 114
ENDBRANCH 101 104
ENDBRANCH  97 100
ENDBRANCH  94  97
ENDBRANCH   1  94
TORSDOF 16
ENDMDL
