MODEL 1
REMARK VINA RESULT:     -11.8      0.000      0.000
REMARK SMILES CCCCCCOC(=O)Nc1cccc(-c2ccc([C@@H](C)C(=O)NCCCCCCNC(=O)c3ccc(-c4c5nc(c(-c6c(F)c(F)c(F)c(F)c6F)c6ccc([nH]6)c(-c6c(F)c(F)c(F)c(F)c6F)c6nc(c(-c7c(F)c(F)c(F)c(F)c7F)c7ccc4[nH]7)C=C6)C=C5)cc3)cc2F)c1
REMARK SMILES IDX 22 1 23 2 24 3 20 5 19 7 16 8 17 9 98 10 18 11 97 13 99 14
REMARK SMILES IDX 15 17 11 18 12 19 100 20 13 21 14 24 10 27 8 28 9 29 7 31
REMARK SMILES IDX 6 32 5 35 4 38 3 41 2 44 1 47 21 51 25 55 26 58 27 61 28 64
REMARK SMILES IDX 29 67 30 70 31 73 32 74 33 76 34 77 35 78 96 79 36 80 95 82
REMARK SMILES IDX 37 84 38 87 39 88 89 89 40 90 94 91 88 92 90 93 41 94 93 95
REMARK SMILES IDX 87 97 86 99 42 101 74 104 54 105 73 106 55 107 58 108 72 109
REMARK SMILES IDX 91 110 56 111 57 113 71 115 92 116 59 119 43 121 44 122
REMARK SMILES IDX 52 123 45 124 46 125 50 126 53 127 47 128 48 129 51 130
REMARK SMILES IDX 49 131 75 132 76 133 84 134 77 135 78 136 82 137 85 138
REMARK SMILES IDX 79 139 80 140 83 141 81 142 60 143 61 144 69 145 62 146
REMARK SMILES IDX 63 147 67 148 70 149 64 150 65 151 68 152 66 153
REMARK H PARENT 24 4 20 6 17 12 18 15 97 16 12 22 100 23 13 25 14 26 10 30
REMARK H PARENT 6 33 6 34 5 36 5 37 4 39 4 40 3 42 3 43 2 45 2 46 1 48 1 49
REMARK H PARENT 1 50 21 52 21 53 21 54 25 56 25 57 26 59 26 60 27 62 27 63
REMARK H PARENT 28 65 28 66 29 68 29 69 30 71 30 72 31 75 35 81 96 83 36 85
REMARK H PARENT 95 86 94 96 88 98 90 100 93 102 87 103 55 112 58 114 91 117
REMARK H PARENT 56 118 92 120
REMARK Flexibility Score: inf
ROOT
ATOM      1  C   UNL A   1      30.221  25.675  26.098  1.00  0.00     0.227 C 
ATOM      2  O   UNL A   1      29.319  25.104  26.724  1.00  0.00    -0.274 OA
ATOM      3  N   UNL A   1      30.884  26.663  26.758  1.00  0.00    -0.356 N 
ATOM      4  H   UNL A   1      30.625  26.761  27.703  1.00  0.00     0.163 HD
ENDROOT
BRANCH   1   5
ATOM      5  C   UNL A   1      30.548  25.242  24.661  1.00  0.00     0.060 C 
ATOM      6  H   UNL A   1      31.387  25.837  24.364  1.00  0.00     0.045 H 
BRANCH   5   7
ATOM      7  C   UNL A   1      31.081  23.822  24.558  1.00  0.00    -0.033 A 
ATOM      8  C   UNL A   1      32.269  21.234  24.295  1.00  0.00     0.018 A 
ATOM      9  C   UNL A   1      31.797  21.699  25.530  1.00  0.00    -0.051 A 
ATOM     10  C   UNL A   1      32.075  22.077  23.188  1.00  0.00     0.131 A 
ATOM     11  C   UNL A   1      31.186  22.955  25.652  1.00  0.00    -0.057 A 
ATOM     12  H   UNL A   1      31.902  21.104  26.367  1.00  0.00     0.063 H 
ATOM     13  C   UNL A   1      31.516  23.349  23.313  1.00  0.00    -0.022 A 
ATOM     14  F   UNL A   1      32.434  21.679  21.956  1.00  0.00    -0.206 F 
ATOM     15  H   UNL A   1      30.808  23.246  26.566  1.00  0.00     0.063 H 
ATOM     16  H   UNL A   1      31.423  23.950  22.479  1.00  0.00     0.066 H 
BRANCH   8  17
ATOM     17  C   UNL A   1      32.963  19.935  24.183  1.00  0.00    -0.013 A 
ATOM     18  C   UNL A   1      34.962  18.576  24.580  1.00  0.00     0.045 A 
ATOM     19  C   UNL A   1      34.385  17.507  23.903  1.00  0.00    -0.038 A 
ATOM     20  C   UNL A   1      34.249  19.771  24.722  1.00  0.00    -0.030 A 
ATOM     21  C   UNL A   1      33.085  17.621  23.415  1.00  0.00    -0.060 A 
ATOM     22  H   UNL A   1      34.917  16.633  23.764  1.00  0.00     0.064 H 
ATOM     23  H   UNL A   1      34.681  20.554  25.237  1.00  0.00     0.065 H 
ATOM     24  C   UNL A   1      32.385  18.825  23.546  1.00  0.00    -0.054 A 
ATOM     25  H   UNL A   1      32.637  16.813  22.954  1.00  0.00     0.062 H 
ATOM     26  H   UNL A   1      31.428  18.899  23.169  1.00  0.00     0.063 H 
BRANCH  18  27
ATOM     27  N   UNL A   1      36.290  18.470  25.014  1.00  0.00    -0.291 N 
ATOM     28  C   UNL A   1      37.247  19.451  24.976  1.00  0.00     0.411 C 
ATOM     29  O   UNL A   1      38.434  19.180  24.928  1.00  0.00    -0.224 OA
ATOM     30  H   UNL A   1      36.565  17.600  25.383  1.00  0.00     0.173 HD
BRANCH  28  31
ATOM     31  O   UNL A   1      36.723  20.697  25.128  1.00  0.00    -0.449 OA
BRANCH  31  32
ATOM     32  C   UNL A   1      37.559  21.830  24.855  1.00  0.00     0.093 C 
ATOM     33  H   UNL A   1      38.104  22.080  25.743  1.00  0.00     0.071 H 
ATOM     34  H   UNL A   1      38.220  21.567  24.056  1.00  0.00     0.071 H 
BRANCH  32  35
ATOM     35  C   UNL A   1      36.749  23.053  24.412  1.00  0.00    -0.019 C 
ATOM     36  H   UNL A   1      37.367  23.642  23.769  1.00  0.00     0.030 H 
ATOM     37  H   UNL A   1      35.873  22.665  23.936  1.00  0.00     0.030 H 
BRANCH  35  38
ATOM     38  C   UNL A   1      36.245  23.959  25.543  1.00  0.00    -0.050 C 
ATOM     39  H   UNL A   1      36.539  23.522  26.474  1.00  0.00     0.027 H 
ATOM     40  H   UNL A   1      36.678  24.922  25.372  1.00  0.00     0.027 H 
BRANCH  38  41
ATOM     41  C   UNL A   1      34.725  24.170  25.573  1.00  0.00    -0.053 C 
ATOM     42  H   UNL A   1      34.281  23.483  24.885  1.00  0.00     0.027 H 
ATOM     43  H   UNL A   1      34.421  24.011  26.587  1.00  0.00     0.027 H 
BRANCH  41  44
ATOM     44  C   UNL A   1      34.264  25.578  25.203  1.00  0.00    -0.056 C 
ATOM     45  H   UNL A   1      33.338  25.777  25.701  1.00  0.00     0.026 H 
ATOM     46  H   UNL A   1      35.030  26.261  25.508  1.00  0.00     0.026 H 
BRANCH  44  47
ATOM     47  C   UNL A   1      34.061  25.753  23.708  1.00  0.00    -0.065 C 
ATOM     48  H   UNL A   1      33.123  25.323  23.422  1.00  0.00     0.023 H 
ATOM     49  H   UNL A   1      34.853  25.262  23.181  1.00  0.00     0.023 H 
ATOM     50  H   UNL A   1      34.065  26.795  23.467  1.00  0.00     0.023 H 
ENDBRANCH  44  47
ENDBRANCH  41  44
ENDBRANCH  38  41
ENDBRANCH  35  38
ENDBRANCH  32  35
ENDBRANCH  31  32
ENDBRANCH  28  31
ENDBRANCH  18  27
ENDBRANCH   8  17
ENDBRANCH   5   7
BRANCH   5  51
ATOM     51  C   UNL A   1      29.482  25.633  23.638  1.00  0.00    -0.049 C 
ATOM     52  H   UNL A   1      29.052  26.573  23.913  1.00  0.00     0.024 H 
ATOM     53  H   UNL A   1      28.718  24.884  23.616  1.00  0.00     0.024 H 
ATOM     54  H   UNL A   1      29.929  25.714  22.670  1.00  0.00     0.024 H 
ENDBRANCH   5  51
ENDBRANCH   1   5
BRANCH   3  55
ATOM     55  C   UNL A   1      31.899  27.593  26.319  1.00  0.00     0.017 C 
ATOM     56  H   UNL A   1      32.718  27.044  25.902  1.00  0.00     0.049 H 
ATOM     57  H   UNL A   1      32.216  28.166  27.165  1.00  0.00     0.049 H 
BRANCH  55  58
ATOM     58  C   UNL A   1      31.361  28.560  25.262  1.00  0.00    -0.036 C 
ATOM     59  H   UNL A   1      30.293  28.570  25.326  1.00  0.00     0.028 H 
ATOM     60  H   UNL A   1      31.709  28.211  24.313  1.00  0.00     0.028 H 
BRANCH  58  61
ATOM     61  C   UNL A   1      31.869  29.996  25.426  1.00  0.00    -0.052 C 
ATOM     62  H   UNL A   1      31.389  30.604  24.686  1.00  0.00     0.027 H 
ATOM     63  H   UNL A   1      32.931  29.953  25.315  1.00  0.00     0.027 H 
BRANCH  61  64
ATOM     64  C   UNL A   1      31.606  30.623  26.802  1.00  0.00    -0.052 C 
ATOM     65  H   UNL A   1      32.415  30.354  27.447  1.00  0.00     0.027 H 
ATOM     66  H   UNL A   1      30.657  30.245  27.121  1.00  0.00     0.027 H 
BRANCH  64  67
ATOM     67  C   UNL A   1      31.477  32.149  26.816  1.00  0.00    -0.036 C 
ATOM     68  H   UNL A   1      30.767  32.417  27.569  1.00  0.00     0.028 H 
ATOM     69  H   UNL A   1      31.174  32.437  25.832  1.00  0.00     0.028 H 
BRANCH  67  70
ATOM     70  C   UNL A   1      32.779  32.895  27.102  1.00  0.00     0.018 C 
ATOM     71  H   UNL A   1      33.359  32.935  26.203  1.00  0.00     0.049 H 
ATOM     72  H   UNL A   1      33.301  32.368  27.873  1.00  0.00     0.049 H 
BRANCH  70  73
ATOM     73  N   UNL A   1      32.533  34.251  27.566  1.00  0.00    -0.352 N 
ATOM     74  C   UNL A   1      33.059  34.921  28.641  1.00  0.00     0.251 C 
ATOM     75  H   UNL A   1      31.892  34.767  27.025  1.00  0.00     0.163 HD
ATOM     76  O   UNL A   1      32.556  35.974  29.018  1.00  0.00    -0.269 OA
BRANCH  74  77
ATOM     77  C   UNL A   1      34.230  34.372  29.358  1.00  0.00     0.039 A 
ATOM     78  C   UNL A   1      34.021  33.593  30.498  1.00  0.00    -0.049 A 
ATOM     79  C   UNL A   1      35.530  34.652  28.926  1.00  0.00    -0.049 A 
ATOM     80  C   UNL A   1      35.115  33.042  31.170  1.00  0.00    -0.053 A 
ATOM     81  H   UNL A   1      33.063  33.424  30.842  1.00  0.00     0.063 H 
ATOM     82  C   UNL A   1      36.615  34.049  29.557  1.00  0.00    -0.053 A 
ATOM     83  H   UNL A   1      35.685  35.305  28.142  1.00  0.00     0.063 H 
ATOM     84  C   UNL A   1      36.418  33.238  30.684  1.00  0.00    -0.014 A 
ATOM     85  H   UNL A   1      34.964  32.489  32.028  1.00  0.00     0.063 H 
ATOM     86  H   UNL A   1      37.569  34.200  29.193  1.00  0.00     0.063 H 
BRANCH  84  87
ATOM     87  C   UNL A   1      37.585  32.588  31.333  1.00  0.00     0.031 A 
ATOM     88  C   UNL A   1      38.258  31.412  30.684  1.00  0.00     0.074 A 
ATOM     89  C   UNL A   1      37.992  33.019  32.542  1.00  0.00     0.049 A 
ATOM     90  N   UNL A   1      39.241  30.670  31.132  1.00  0.00    -0.248 NA
ATOM     91  C   UNL A   1      37.743  30.996  29.371  1.00  0.00    -0.034 C 
ATOM     92  C   UNL A   1      37.390  34.121  33.292  1.00  0.00    -0.036 A 
ATOM     93  N   UNL A   1      39.000  32.574  33.359  1.00  0.00    -0.354 N 
ATOM     94  C   UNL A   1      39.452  29.699  30.163  1.00  0.00     0.074 A 
ATOM     95  C   UNL A   1      38.464  29.912  29.128  1.00  0.00    -0.034 C 
ATOM     96  H   UNL A   1      37.012  31.437  28.790  1.00  0.00     0.065 H 
ATOM     97  C   UNL A   1      38.050  34.279  34.450  1.00  0.00    -0.036 A 
ATOM     98  H   UNL A   1      36.584  34.687  32.981  1.00  0.00     0.065 H 
ATOM     99  C   UNL A   1      39.097  33.266  34.542  1.00  0.00     0.049 A 
ATOM    100  H   UNL A   1      39.599  31.829  33.120  1.00  0.00     0.167 HD
ATOM    101  C   UNL A   1      40.400  28.731  30.130  1.00  0.00     0.037 A 
ATOM    102  H   UNL A   1      38.336  29.298  28.307  1.00  0.00     0.065 H 
ATOM    103  H   UNL A   1      37.851  35.001  35.160  1.00  0.00     0.065 H 
ATOM    104  C   UNL A   1      39.928  33.095  35.587  1.00  0.00     0.037 A 
ATOM    105  C   UNL A   1      41.394  28.537  31.154  1.00  0.00     0.049 A 
ATOM    106  C   UNL A   1      40.961  32.005  35.532  1.00  0.00     0.074 A 
ATOM    107  C   UNL A   1      42.437  27.626  31.183  1.00  0.00    -0.036 A 
ATOM    108  N   UNL A   1      41.466  29.264  32.333  1.00  0.00    -0.354 N 
ATOM    109  N   UNL A   1      41.197  31.135  34.579  1.00  0.00    -0.248 NA
ATOM    110  C   UNL A   1      41.847  31.872  36.696  1.00  0.00    -0.034 C 
ATOM    111  C   UNL A   1      43.108  27.768  32.401  1.00  0.00    -0.036 A 
ATOM    112  H   UNL A   1      42.677  26.958  30.433  1.00  0.00     0.065 H 
ATOM    113  C   UNL A   1      42.518  28.803  33.109  1.00  0.00     0.049 A 
ATOM    114  H   UNL A   1      40.860  29.999  32.582  1.00  0.00     0.167 HD
ATOM    115  C   UNL A   1      42.270  30.372  35.015  1.00  0.00     0.074 A 
ATOM    116  C   UNL A   1      42.652  30.891  36.312  1.00  0.00    -0.034 C 
ATOM    117  H   UNL A   1      41.844  32.403  37.581  1.00  0.00     0.065 H 
ATOM    118  H   UNL A   1      43.907  27.199  32.719  1.00  0.00     0.065 H 
ATOM    119  C   UNL A   1      42.884  29.331  34.399  1.00  0.00     0.037 A 
ATOM    120  H   UNL A   1      43.450  30.543  36.867  1.00  0.00     0.065 H 
BRANCH 101 121
ATOM    121  C   UNL A   1      40.408  27.804  28.948  1.00  0.00     0.064 A 
ATOM    122  C   UNL A   1      39.636  26.632  28.926  1.00  0.00     0.173 A 
ATOM    123  C   UNL A   1      41.164  28.111  27.807  1.00  0.00     0.173 A 
ATOM    124  F   UNL A   1      38.903  26.286  29.996  1.00  0.00    -0.203 F 
ATOM    125  C   UNL A   1      39.644  25.788  27.819  1.00  0.00     0.198 A 
ATOM    126  C   UNL A   1      41.146  27.281  26.689  1.00  0.00     0.198 A 
ATOM    127  F   UNL A   1      41.915  29.223  27.772  1.00  0.00    -0.203 F 
ATOM    128  F   UNL A   1      38.937  24.650  27.841  1.00  0.00    -0.200 F 
ATOM    129  C   UNL A   1      40.393  26.117  26.698  1.00  0.00     0.200 A 
ATOM    130  F   UNL A   1      41.859  27.608  25.603  1.00  0.00    -0.200 F 
ATOM    131  F   UNL A   1      40.393  25.308  25.630  1.00  0.00    -0.200 F 
ENDBRANCH 101 121
BRANCH 104 132
ATOM    132  C   UNL A   1      39.827  33.991  36.769  1.00  0.00     0.064 A 
ATOM    133  C   UNL A   1      38.994  33.666  37.849  1.00  0.00     0.173 A 
ATOM    134  C   UNL A   1      40.553  35.189  36.842  1.00  0.00     0.173 A 
ATOM    135  F   UNL A   1      38.264  32.542  37.816  1.00  0.00    -0.203 F 
ATOM    136  C   UNL A   1      38.878  34.513  38.949  1.00  0.00     0.198 A 
ATOM    137  C   UNL A   1      40.459  36.021  37.955  1.00  0.00     0.198 A 
ATOM    138  F   UNL A   1      41.368  35.544  35.838  1.00  0.00    -0.203 F 
ATOM    139  F   UNL A   1      38.041  34.200  39.946  1.00  0.00    -0.200 F 
ATOM    140  C   UNL A   1      39.614  35.687  39.004  1.00  0.00     0.200 A 
ATOM    141  F   UNL A   1      41.184  37.145  38.012  1.00  0.00    -0.200 F 
ATOM    142  F   UNL A   1      39.507  36.499  40.064  1.00  0.00    -0.200 F 
ENDBRANCH 104 132
BRANCH 119 143
ATOM    143  C   UNL A   1      44.046  28.701  35.111  1.00  0.00     0.064 A 
ATOM    144  C   UNL A   1      45.358  29.161  34.928  1.00  0.00     0.173 A 
ATOM    145  C   UNL A   1      43.840  27.646  36.013  1.00  0.00     0.173 A 
ATOM    146  F   UNL A   1      45.609  30.156  34.064  1.00  0.00    -0.203 F 
ATOM    147  C   UNL A   1      46.424  28.571  35.602  1.00  0.00     0.198 A 
ATOM    148  C   UNL A   1      44.904  27.079  36.708  1.00  0.00     0.198 A 
ATOM    149  F   UNL A   1      42.603  27.172  36.229  1.00  0.00    -0.203 F 
ATOM    150  F   UNL A   1      47.675  28.994  35.372  1.00  0.00    -0.200 F 
ATOM    151  C   UNL A   1      46.196  27.536  36.496  1.00  0.00     0.200 A 
ATOM    152  F   UNL A   1      44.679  26.089  37.582  1.00  0.00    -0.200 F 
ATOM    153  F   UNL A   1      47.222  26.974  37.148  1.00  0.00    -0.200 F 
ENDBRANCH 119 143
ENDBRANCH  84  87
ENDBRANCH  74  77
ENDBRANCH  70  73
ENDBRANCH  67  70
ENDBRANCH  64  67
ENDBRANCH  61  64
ENDBRANCH  58  61
ENDBRANCH  55  58
ENDBRANCH   3  55
TORSDOF 24
ENDMDL
MODEL 2
REMARK VINA RESULT:     -11.7      0.661      7.079
REMARK SMILES CCCCCCOC(=O)Nc1cccc(-c2ccc([C@@H](C)C(=O)NCCCCCCNC(=O)c3ccc(-c4c5nc(c(-c6c(F)c(F)c(F)c(F)c6F)c6ccc([nH]6)c(-c6c(F)c(F)c(F)c(F)c6F)c6nc(c(-c7c(F)c(F)c(F)c(F)c7F)c7ccc4[nH]7)C=C6)C=C5)cc3)cc2F)c1
REMARK SMILES IDX 22 1 23 2 24 3 20 5 19 7 16 8 17 9 98 10 18 11 97 13 99 14
REMARK SMILES IDX 15 17 11 18 12 19 100 20 13 21 14 24 10 27 8 28 9 29 7 31
REMARK SMILES IDX 6 32 5 35 4 38 3 41 2 44 1 47 21 51 25 55 26 58 27 61 28 64
REMARK SMILES IDX 29 67 30 70 31 73 32 74 33 76 34 77 35 78 96 79 36 80 95 82
REMARK SMILES IDX 37 84 38 87 39 88 89 89 40 90 94 91 88 92 90 93 41 94 93 95
REMARK SMILES IDX 87 97 86 99 42 101 74 104 54 105 73 106 55 107 58 108 72 109
REMARK SMILES IDX 91 110 56 111 57 113 71 115 92 116 59 119 43 121 44 122
REMARK SMILES IDX 52 123 45 124 46 125 50 126 53 127 47 128 48 129 51 130
REMARK SMILES IDX 49 131 75 132 76 133 84 134 77 135 78 136 82 137 85 138
REMARK SMILES IDX 79 139 80 140 83 141 81 142 60 143 61 144 69 145 62 146
REMARK SMILES IDX 63 147 67 148 70 149 64 150 65 151 68 152 66 153
REMARK H PARENT 24 4 20 6 17 12 18 15 97 16 12 22 100 23 13 25 14 26 10 30
REMARK H PARENT 6 33 6 34 5 36 5 37 4 39 4 40 3 42 3 43 2 45 2 46 1 48 1 49
REMARK H PARENT 1 50 21 52 21 53 21 54 25 56 25 57 26 59 26 60 27 62 27 63
REMARK H PARENT 28 65 28 66 29 68 29 69 30 71 30 72 31 75 35 81 96 83 36 85
REMARK H PARENT 95 86 94 96 88 98 90 100 93 102 87 103 55 112 58 114 91 117
REMARK H PARENT 56 118 92 120
REMARK Flexibility Score: inf
ROOT
ATOM      1  C   UNL A   1      30.187  25.703  26.107  1.00  0.00     0.227 C 
ATOM      2  O   UNL A   1      29.241  25.132  26.665  1.00  0.00    -0.274 OA
ATOM      3  N   UNL A   1      30.805  26.685  26.817  1.00  0.00    -0.356 N 
ATOM      4  H   UNL A   1      30.481  26.779  27.742  1.00  0.00     0.163 HD
ENDROOT
BRANCH   1   5
ATOM      5  C   UNL A   1      30.612  25.276  24.694  1.00  0.00     0.060 C 
ATOM      6  H   UNL A   1      31.472  25.869  24.460  1.00  0.00     0.045 H 
BRANCH   5   7
ATOM      7  C   UNL A   1      31.146  23.854  24.621  1.00  0.00    -0.033 A 
ATOM      8  C   UNL A   1      32.312  21.256  24.368  1.00  0.00     0.018 A 
ATOM      9  C   UNL A   1      32.109  21.846  25.622  1.00  0.00    -0.051 A 
ATOM     10  C   UNL A   1      31.860  21.978  23.250  1.00  0.00     0.131 A 
ATOM     11  C   UNL A   1      31.509  23.106  25.747  1.00  0.00    -0.057 A 
ATOM     12  H   UNL A   1      32.409  21.342  26.471  1.00  0.00     0.063 H 
ATOM     13  C   UNL A   1      31.311  23.255  23.365  1.00  0.00    -0.022 A 
ATOM     14  F   UNL A   1      31.952  21.455  22.017  1.00  0.00    -0.206 F 
ATOM     15  H   UNL A   1      31.332  23.490  26.688  1.00  0.00     0.063 H 
ATOM     16  H   UNL A   1      31.023  23.766  22.516  1.00  0.00     0.066 H 
BRANCH   8  17
ATOM     17  C   UNL A   1      32.998  19.954  24.237  1.00  0.00    -0.013 A 
ATOM     18  C   UNL A   1      34.997  18.583  24.593  1.00  0.00     0.045 A 
ATOM     19  C   UNL A   1      34.403  17.520  23.923  1.00  0.00    -0.038 A 
ATOM     20  C   UNL A   1      34.292  19.782  24.753  1.00  0.00    -0.030 A 
ATOM     21  C   UNL A   1      33.094  17.643  23.458  1.00  0.00    -0.060 A 
ATOM     22  H   UNL A   1      34.927  16.644  23.770  1.00  0.00     0.064 H 
ATOM     23  H   UNL A   1      34.737  20.560  25.264  1.00  0.00     0.065 H 
ATOM     24  C   UNL A   1      32.403  18.850  23.607  1.00  0.00    -0.054 A 
ATOM     25  H   UNL A   1      32.634  16.839  23.003  1.00  0.00     0.062 H 
ATOM     26  H   UNL A   1      31.439  18.930  23.247  1.00  0.00     0.063 H 
BRANCH  18  27
ATOM     27  N   UNL A   1      36.332  18.469  25.003  1.00  0.00    -0.291 N 
ATOM     28  C   UNL A   1      37.282  19.458  24.992  1.00  0.00     0.411 C 
ATOM     29  O   UNL A   1      38.470  19.198  24.915  1.00  0.00    -0.224 OA
ATOM     30  H   UNL A   1      36.618  17.586  25.331  1.00  0.00     0.173 HD
BRANCH  28  31
ATOM     31  O   UNL A   1      36.751  20.692  25.204  1.00  0.00    -0.449 OA
BRANCH  31  32
ATOM     32  C   UNL A   1      37.644  21.787  25.458  1.00  0.00     0.093 C 
ATOM     33  H   UNL A   1      37.811  21.859  26.512  1.00  0.00     0.071 H 
ATOM     34  H   UNL A   1      38.556  21.597  24.932  1.00  0.00     0.071 H 
BRANCH  32  35
ATOM     35  C   UNL A   1      37.080  23.120  24.954  1.00  0.00    -0.019 C 
ATOM     36  H   UNL A   1      37.466  23.897  25.578  1.00  0.00     0.030 H 
ATOM     37  H   UNL A   1      37.380  23.196  23.931  1.00  0.00     0.030 H 
BRANCH  35  38
ATOM     38  C   UNL A   1      35.550  23.234  24.953  1.00  0.00    -0.050 C 
ATOM     39  H   UNL A   1      35.144  22.248  25.044  1.00  0.00     0.027 H 
ATOM     40  H   UNL A   1      35.296  23.874  25.771  1.00  0.00     0.027 H 
BRANCH  38  41
ATOM     41  C   UNL A   1      34.951  23.882  23.697  1.00  0.00    -0.053 C 
ATOM     42  H   UNL A   1      35.733  23.990  22.975  1.00  0.00     0.027 H 
ATOM     43  H   UNL A   1      34.162  23.236  23.374  1.00  0.00     0.027 H 
BRANCH  41  44
ATOM     44  C   UNL A   1      34.319  25.254  23.921  1.00  0.00    -0.056 C 
ATOM     45  H   UNL A   1      34.875  25.982  23.368  1.00  0.00     0.026 H 
ATOM     46  H   UNL A   1      33.302  25.201  23.591  1.00  0.00     0.026 H 
BRANCH  44  47
ATOM     47  C   UNL A   1      34.306  25.660  25.385  1.00  0.00    -0.065 C 
ATOM     48  H   UNL A   1      35.283  25.527  25.801  1.00  0.00     0.023 H 
ATOM     49  H   UNL A   1      33.606  25.050  25.918  1.00  0.00     0.023 H 
ATOM     50  H   UNL A   1      34.019  26.687  25.468  1.00  0.00     0.023 H 
ENDBRANCH  44  47
ENDBRANCH  41  44
ENDBRANCH  38  41
ENDBRANCH  35  38
ENDBRANCH  32  35
ENDBRANCH  31  32
ENDBRANCH  28  31
ENDBRANCH  18  27
ENDBRANCH   8  17
ENDBRANCH   5   7
BRANCH   5  51
ATOM     51  C   UNL A   1      29.622  25.676  23.602  1.00  0.00    -0.049 C 
ATOM     52  H   UNL A   1      30.147  26.165  22.806  1.00  0.00     0.024 H 
ATOM     53  H   UNL A   1      28.892  26.344  24.009  1.00  0.00     0.024 H 
ATOM     54  H   UNL A   1      29.135  24.803  23.224  1.00  0.00     0.024 H 
ENDBRANCH   5  51
ENDBRANCH   1   5
BRANCH   3  55
ATOM     55  C   UNL A   1      31.852  27.614  26.455  1.00  0.00     0.017 C 
ATOM     56  H   UNL A   1      32.703  27.062  26.114  1.00  0.00     0.049 H 
ATOM     57  H   UNL A   1      32.095  28.196  27.319  1.00  0.00     0.049 H 
BRANCH  55  58
ATOM     58  C   UNL A   1      31.402  28.569  25.347  1.00  0.00    -0.036 C 
ATOM     59  H   UNL A   1      30.332  28.579  25.324  1.00  0.00     0.028 H 
ATOM     60  H   UNL A   1      31.826  28.209  24.433  1.00  0.00     0.028 H 
BRANCH  58  61
ATOM     61  C   UNL A   1      31.896  30.007  25.535  1.00  0.00    -0.052 C 
ATOM     62  H   UNL A   1      31.535  30.592  24.715  1.00  0.00     0.027 H 
ATOM     63  H   UNL A   1      32.963  29.954  25.582  1.00  0.00     0.027 H 
BRANCH  61  64
ATOM     64  C   UNL A   1      31.442  30.682  26.837  1.00  0.00    -0.052 C 
ATOM     65  H   UNL A   1      32.112  30.382  27.615  1.00  0.00     0.027 H 
ATOM     66  H   UNL A   1      30.431  30.367  26.995  1.00  0.00     0.027 H 
BRANCH  64  67
ATOM     67  C   UNL A   1      31.407  32.212  26.807  1.00  0.00    -0.036 C 
ATOM     68  H   UNL A   1      30.708  32.544  27.546  1.00  0.00     0.028 H 
ATOM     69  H   UNL A   1      31.128  32.489  25.812  1.00  0.00     0.028 H 
BRANCH  67  70
ATOM     70  C   UNL A   1      32.749  32.885  27.083  1.00  0.00     0.018 C 
ATOM     71  H   UNL A   1      33.298  32.950  26.167  1.00  0.00     0.049 H 
ATOM     72  H   UNL A   1      33.274  32.296  27.805  1.00  0.00     0.049 H 
BRANCH  70  73
ATOM     73  N   UNL A   1      32.580  34.223  27.628  1.00  0.00    -0.352 N 
ATOM     74  C   UNL A   1      33.145  34.798  28.738  1.00  0.00     0.251 C 
ATOM     75  H   UNL A   1      31.967  34.805  27.122  1.00  0.00     0.163 HD
ATOM     76  O   UNL A   1      32.701  35.854  29.179  1.00  0.00    -0.269 OA
BRANCH  74  77
ATOM     77  C   UNL A   1      34.285  34.145  29.414  1.00  0.00     0.039 A 
ATOM     78  C   UNL A   1      34.031  33.248  30.455  1.00  0.00    -0.049 A 
ATOM     79  C   UNL A   1      35.601  34.439  29.046  1.00  0.00    -0.049 A 
ATOM     80  C   UNL A   1      35.095  32.599  31.085  1.00  0.00    -0.053 A 
ATOM     81  H   UNL A   1      33.061  33.066  30.756  1.00  0.00     0.063 H 
ATOM     82  C   UNL A   1      36.657  33.742  29.629  1.00  0.00    -0.053 A 
ATOM     83  H   UNL A   1      35.790  35.171  28.343  1.00  0.00     0.063 H 
ATOM     84  C   UNL A   1      36.413  32.815  30.654  1.00  0.00    -0.014 A 
ATOM     85  H   UNL A   1      34.910  31.957  31.873  1.00  0.00     0.063 H 
ATOM     86  H   UNL A   1      37.623  33.909  29.306  1.00  0.00     0.063 H 
BRANCH  84  87
ATOM     87  C   UNL A   1      37.549  32.069  31.251  1.00  0.00     0.031 A 
ATOM     88  C   UNL A   1      38.051  32.418  32.624  1.00  0.00     0.074 A 
ATOM     89  C   UNL A   1      38.172  31.122  30.524  1.00  0.00     0.049 A 
ATOM     90  N   UNL A   1      39.074  31.929  33.280  1.00  0.00    -0.248 NA
ATOM     91  C   UNL A   1      37.323  33.472  33.345  1.00  0.00    -0.034 C 
ATOM     92  C   UNL A   1      37.807  30.727  29.163  1.00  0.00    -0.036 A 
ATOM     93  N   UNL A   1      39.252  30.329  30.820  1.00  0.00    -0.354 N 
ATOM     94  C   UNL A   1      39.117  32.623  34.481  1.00  0.00     0.074 A 
ATOM     95  C   UNL A   1      38.052  33.601  34.444  1.00  0.00    -0.034 C 
ATOM     96  H   UNL A   1      36.467  33.979  33.068  1.00  0.00     0.065 H 
ATOM     97  C   UNL A   1      38.634  29.754  28.749  1.00  0.00    -0.036 A 
ATOM     98  H   UNL A   1      37.035  31.132  28.608  1.00  0.00     0.065 H 
ATOM     99  C   UNL A   1      39.612  29.484  29.798  1.00  0.00     0.049 A 
ATOM    100  H   UNL A   1      39.723  30.361  31.685  1.00  0.00     0.167 HD
ATOM    101  C   UNL A   1      39.957  32.445  35.530  1.00  0.00     0.037 A 
ATOM    102  H   UNL A   1      37.882  34.307  35.178  1.00  0.00     0.065 H 
ATOM    103  H   UNL A   1      38.586  29.274  27.837  1.00  0.00     0.065 H 
ATOM    104  C   UNL A   1      40.624  28.600  29.714  1.00  0.00     0.037 A 
ATOM    105  C   UNL A   1      41.003  31.455  35.569  1.00  0.00     0.049 A 
ATOM    106  C   UNL A   1      41.550  28.431  30.886  1.00  0.00     0.074 A 
ATOM    107  C   UNL A   1      41.865  31.152  36.610  1.00  0.00    -0.036 A 
ATOM    108  N   UNL A   1      41.332  30.611  34.520  1.00  0.00    -0.354 N 
ATOM    109  N   UNL A   1      41.539  29.044  32.045  1.00  0.00    -0.248 NA
ATOM    110  C   UNL A   1      42.629  27.444  30.741  1.00  0.00    -0.034 C 
ATOM    111  C   UNL A   1      42.748  30.160  36.171  1.00  0.00    -0.036 A 
ATOM    112  H   UNL A   1      41.857  31.584  37.547  1.00  0.00     0.065 H 
ATOM    113  C   UNL A   1      42.403  29.806  34.877  1.00  0.00     0.049 A 
ATOM    114  H   UNL A   1      40.873  30.586  33.649  1.00  0.00     0.167 HD
ATOM    115  C   UNL A   1      42.588  28.502  32.774  1.00  0.00     0.074 A 
ATOM    116  C   UNL A   1      43.205  27.497  31.933  1.00  0.00    -0.034 C 
ATOM    117  H   UNL A   1      42.873  26.862  29.925  1.00  0.00     0.065 H 
ATOM    118  H   UNL A   1      43.525  29.759  36.719  1.00  0.00     0.065 H 
ATOM    119  C   UNL A   1      43.006  28.811  34.027  1.00  0.00     0.037 A 
ATOM    120  H   UNL A   1      43.993  26.898  32.226  1.00  0.00     0.065 H 
BRANCH 101 121
ATOM    121  C   UNL A   1      39.781  33.339  36.723  1.00  0.00     0.064 A 
ATOM    122  C   UNL A   1      40.490  34.543  36.853  1.00  0.00     0.173 A 
ATOM    123  C   UNL A   1      38.862  33.010  37.731  1.00  0.00     0.173 A 
ATOM    124  F   UNL A   1      41.389  34.900  35.922  1.00  0.00    -0.203 F 
ATOM    125  C   UNL A   1      40.308  35.369  37.959  1.00  0.00     0.198 A 
ATOM    126  C   UNL A   1      38.659  33.852  38.821  1.00  0.00     0.198 A 
ATOM    127  F   UNL A   1      38.153  31.873  37.655  1.00  0.00    -0.203 F 
ATOM    128  F   UNL A   1      41.033  36.489  38.084  1.00  0.00    -0.200 F 
ATOM    129  C   UNL A   1      39.388  35.027  38.939  1.00  0.00     0.200 A 
ATOM    130  F   UNL A   1      37.759  33.527  39.759  1.00  0.00    -0.200 F 
ATOM    131  F   UNL A   1      39.207  35.826  39.998  1.00  0.00    -0.200 F 
ENDBRANCH 101 121
BRANCH 104 132
ATOM    132  C   UNL A   1      40.802  27.794  28.478  1.00  0.00     0.064 A 
ATOM    133  C   UNL A   1      41.645  28.233  27.448  1.00  0.00     0.173 A 
ATOM    134  C   UNL A   1      40.133  26.574  28.299  1.00  0.00     0.173 A 
ATOM    135  F   UNL A   1      42.290  29.404  27.565  1.00  0.00    -0.203 F 
ATOM    136  C   UNL A   1      41.798  27.493  26.278  1.00  0.00     0.198 A 
ATOM    137  C   UNL A   1      40.310  25.820  27.141  1.00  0.00     0.198 A 
ATOM    138  F   UNL A   1      39.319  26.106  29.256  1.00  0.00    -0.203 F 
ATOM    139  F   UNL A   1      42.575  27.959  25.291  1.00  0.00    -0.200 F 
ATOM    140  C   UNL A   1      41.136  26.284  26.127  1.00  0.00     0.200 A 
ATOM    141  F   UNL A   1      39.681  24.645  27.006  1.00  0.00    -0.200 F 
ATOM    142  F   UNL A   1      41.287  25.570  25.004  1.00  0.00    -0.200 F 
ENDBRANCH 104 132
BRANCH 119 143
ATOM    143  C   UNL A   1      44.171  28.037  34.571  1.00  0.00     0.064 A 
ATOM    144  C   UNL A   1      43.997  26.813  35.234  1.00  0.00     0.173 A 
ATOM    145  C   UNL A   1      45.481  28.509  34.397  1.00  0.00     0.173 A 
ATOM    146  F   UNL A   1      42.763  26.328  35.440  1.00  0.00    -0.203 F 
ATOM    147  C   UNL A   1      45.089  26.104  35.726  1.00  0.00     0.198 A 
ATOM    148  C   UNL A   1      46.573  27.782  34.863  1.00  0.00     0.198 A 
ATOM    149  F   UNL A   1      45.704  29.671  33.765  1.00  0.00    -0.203 F 
ATOM    150  F   UNL A   1      44.894  24.962  36.401  1.00  0.00    -0.200 F 
ATOM    151  C   UNL A   1      46.376  26.585  35.534  1.00  0.00     0.200 A 
ATOM    152  F   UNL A   1      47.816  28.241  34.664  1.00  0.00    -0.200 F 
ATOM    153  F   UNL A   1      47.425  25.897  36.003  1.00  0.00    -0.200 F 
ENDBRANCH 119 143
ENDBRANCH  84  87
ENDBRANCH  74  77
ENDBRANCH  70  73
ENDBRANCH  67  70
ENDBRANCH  64  67
ENDBRANCH  61  64
ENDBRANCH  58  61
ENDBRANCH  55  58
ENDBRANCH   3  55
TORSDOF 24
ENDMDL
MODEL 3
REMARK VINA RESULT:     -11.5      5.774     10.986
REMARK SMILES CCCCCCOC(=O)Nc1cccc(-c2ccc([C@@H](C)C(=O)NCCCCCCNC(=O)c3ccc(-c4c5nc(c(-c6c(F)c(F)c(F)c(F)c6F)c6ccc([nH]6)c(-c6c(F)c(F)c(F)c(F)c6F)c6nc(c(-c7c(F)c(F)c(F)c(F)c7F)c7ccc4[nH]7)C=C6)C=C5)cc3)cc2F)c1
REMARK SMILES IDX 22 1 23 2 24 3 20 5 19 7 16 8 17 9 98 10 18 11 97 13 99 14
REMARK SMILES IDX 15 17 11 18 12 19 100 20 13 21 14 24 10 27 8 28 9 29 7 31
REMARK SMILES IDX 6 32 5 35 4 38 3 41 2 44 1 47 21 51 25 55 26 58 27 61 28 64
REMARK SMILES IDX 29 67 30 70 31 73 32 74 33 76 34 77 35 78 96 79 36 80 95 82
REMARK SMILES IDX 37 84 38 87 39 88 89 89 40 90 94 91 88 92 90 93 41 94 93 95
REMARK SMILES IDX 87 97 86 99 42 101 74 104 54 105 73 106 55 107 58 108 72 109
REMARK SMILES IDX 91 110 56 111 57 113 71 115 92 116 59 119 43 121 44 122
REMARK SMILES IDX 52 123 45 124 46 125 50 126 53 127 47 128 48 129 51 130
REMARK SMILES IDX 49 131 75 132 76 133 84 134 77 135 78 136 82 137 85 138
REMARK SMILES IDX 79 139 80 140 83 141 81 142 60 143 61 144 69 145 62 146
REMARK SMILES IDX 63 147 67 148 70 149 64 150 65 151 68 152 66 153
REMARK H PARENT 24 4 20 6 17 12 18 15 97 16 12 22 100 23 13 25 14 26 10 30
REMARK H PARENT 6 33 6 34 5 36 5 37 4 39 4 40 3 42 3 43 2 45 2 46 1 48 1 49
REMARK H PARENT 1 50 21 52 21 53 21 54 25 56 25 57 26 59 26 60 27 62 27 63
REMARK H PARENT 28 65 28 66 29 68 29 69 30 71 30 72 31 75 35 81 96 83 36 85
REMARK H PARENT 95 86 94 96 88 98 90 100 93 102 87 103 55 112 58 114 91 117
REMARK H PARENT 56 118 92 120
REMARK Flexibility Score: inf
ROOT
ATOM      1  C   UNL A   1      36.423  22.814  23.712  1.00  0.00     0.227 C 
ATOM      2  O   UNL A   1      36.500  22.916  22.482  1.00  0.00    -0.274 OA
ATOM      3  N   UNL A   1      37.600  22.709  24.385  1.00  0.00    -0.356 N 
ATOM      4  H   UNL A   1      38.400  22.810  23.820  1.00  0.00     0.163 HD
ENDROOT
BRANCH   1   5
ATOM      5  C   UNL A   1      35.048  22.829  24.397  1.00  0.00     0.060 C 
ATOM      6  H   UNL A   1      35.209  22.429  25.377  1.00  0.00     0.045 H 
BRANCH   5   7
ATOM      7  C   UNL A   1      34.521  24.227  24.679  1.00  0.00    -0.033 A 
ATOM      8  C   UNL A   1      33.357  26.805  25.096  1.00  0.00     0.018 A 
ATOM      9  C   UNL A   1      33.663  25.960  26.171  1.00  0.00    -0.051 A 
ATOM     10  C   UNL A   1      33.705  26.346  23.814  1.00  0.00     0.131 A 
ATOM     11  C   UNL A   1      34.263  24.709  25.968  1.00  0.00    -0.057 A 
ATOM     12  H   UNL A   1      33.443  26.265  27.131  1.00  0.00     0.063 H 
ATOM     13  C   UNL A   1      34.253  25.081  23.602  1.00  0.00    -0.022 A 
ATOM     14  F   UNL A   1      33.511  27.123  22.736  1.00  0.00    -0.206 F 
ATOM     15  H   UNL A   1      34.518  24.133  26.785  1.00  0.00     0.063 H 
ATOM     16  H   UNL A   1      34.462  24.769  22.641  1.00  0.00     0.066 H 
BRANCH   8  17
ATOM     17  C   UNL A   1      32.673  28.096  25.310  1.00  0.00    -0.013 A 
ATOM     18  C   UNL A   1      31.066  29.780  24.544  1.00  0.00     0.045 A 
ATOM     19  C   UNL A   1      31.407  30.607  25.609  1.00  0.00    -0.038 A 
ATOM     20  C   UNL A   1      31.691  28.535  24.408  1.00  0.00    -0.030 A 
ATOM     21  C   UNL A   1      32.331  30.168  26.555  1.00  0.00    -0.060 A 
ATOM     22  H   UNL A   1      30.977  31.541  25.698  1.00  0.00     0.064 H 
ATOM     23  H   UNL A   1      31.421  27.922  23.622  1.00  0.00     0.065 H 
ATOM     24  C   UNL A   1      32.964  28.930  26.402  1.00  0.00    -0.054 A 
ATOM     25  H   UNL A   1      32.550  30.760  27.372  1.00  0.00     0.062 H 
ATOM     26  H   UNL A   1      33.654  28.623  27.104  1.00  0.00     0.063 H 
BRANCH  18  27
ATOM     27  N   UNL A   1      30.181  30.255  23.569  1.00  0.00    -0.291 N 
ATOM     28  C   UNL A   1      29.673  29.551  22.507  1.00  0.00     0.411 C 
ATOM     29  O   UNL A   1      29.308  30.112  21.489  1.00  0.00    -0.224 OA
ATOM     30  H   UNL A   1      29.895  31.194  23.653  1.00  0.00     0.173 HD
BRANCH  28  31
ATOM     31  O   UNL A   1      29.516  28.230  22.787  1.00  0.00    -0.449 OA
BRANCH  31  32
ATOM     32  C   UNL A   1      28.238  27.776  23.257  1.00  0.00     0.093 C 
ATOM     33  H   UNL A   1      27.827  28.517  23.911  1.00  0.00     0.071 H 
ATOM     34  H   UNL A   1      27.610  27.621  22.405  1.00  0.00     0.071 H 
BRANCH  32  35
ATOM     35  C   UNL A   1      28.340  26.449  24.015  1.00  0.00    -0.019 C 
ATOM     36  H   UNL A   1      27.805  26.553  24.935  1.00  0.00     0.030 H 
ATOM     37  H   UNL A   1      27.934  25.706  23.360  1.00  0.00     0.030 H 
BRANCH  35  38
ATOM     38  C   UNL A   1      29.763  25.982  24.347  1.00  0.00    -0.050 C 
ATOM     39  H   UNL A   1      30.414  26.828  24.276  1.00  0.00     0.027 H 
ATOM     40  H   UNL A   1      29.720  25.562  25.329  1.00  0.00     0.027 H 
BRANCH  38  41
ATOM     41  C   UNL A   1      30.312  24.880  23.431  1.00  0.00    -0.053 C 
ATOM     42  H   UNL A   1      29.517  24.550  22.795  1.00  0.00     0.027 H 
ATOM     43  H   UNL A   1      31.130  25.315  22.896  1.00  0.00     0.027 H 
BRANCH  41  44
ATOM     44  C   UNL A   1      30.874  23.661  24.159  1.00  0.00    -0.056 C 
ATOM     45  H   UNL A   1      30.351  22.790  23.822  1.00  0.00     0.026 H 
ATOM     46  H   UNL A   1      31.920  23.603  23.937  1.00  0.00     0.026 H 
BRANCH  44  47
ATOM     47  C   UNL A   1      30.731  23.762  25.668  1.00  0.00    -0.065 C 
ATOM     48  H   UNL A   1      30.675  24.793  25.953  1.00  0.00     0.023 H 
ATOM     49  H   UNL A   1      31.578  23.309  26.138  1.00  0.00     0.023 H 
ATOM     50  H   UNL A   1      29.839  23.258  25.976  1.00  0.00     0.023 H 
ENDBRANCH  44  47
ENDBRANCH  41  44
ENDBRANCH  38  41
ENDBRANCH  35  38
ENDBRANCH  32  35
ENDBRANCH  31  32
ENDBRANCH  28  31
ENDBRANCH  18  27
ENDBRANCH   8  17
ENDBRANCH   5   7
BRANCH   5  51
ATOM     51  C   UNL A   1      34.045  21.845  23.795  1.00  0.00    -0.049 C 
ATOM     52  H   UNL A   1      33.707  21.171  24.555  1.00  0.00     0.024 H 
ATOM     53  H   UNL A   1      34.517  21.290  23.011  1.00  0.00     0.024 H 
ATOM     54  H   UNL A   1      33.211  22.384  23.399  1.00  0.00     0.024 H 
ENDBRANCH   5  51
ENDBRANCH   1   5
BRANCH   3  55
ATOM     55  C   UNL A   1      37.886  22.475  25.783  1.00  0.00     0.017 C 
ATOM     56  H   UNL A   1      37.038  22.008  26.238  1.00  0.00     0.049 H 
ATOM     57  H   UNL A   1      38.096  23.418  26.244  1.00  0.00     0.049 H 
BRANCH  55  58
ATOM     58  C   UNL A   1      39.108  21.571  25.967  1.00  0.00    -0.036 C 
ATOM     59  H   UNL A   1      39.366  21.156  25.015  1.00  0.00     0.028 H 
ATOM     60  H   UNL A   1      38.838  20.821  26.679  1.00  0.00     0.028 H 
BRANCH  58  61
ATOM     61  C   UNL A   1      40.334  22.300  26.526  1.00  0.00    -0.052 C 
ATOM     62  H   UNL A   1      40.049  22.778  27.439  1.00  0.00     0.027 H 
ATOM     63  H   UNL A   1      40.647  22.985  25.767  1.00  0.00     0.027 H 
BRANCH  61  64
ATOM     64  C   UNL A   1      41.544  21.401  26.816  1.00  0.00    -0.052 C 
ATOM     65  H   UNL A   1      41.543  21.174  27.862  1.00  0.00     0.027 H 
ATOM     66  H   UNL A   1      42.404  21.953  26.497  1.00  0.00     0.027 H 
BRANCH  64  67
ATOM     67  C   UNL A   1      41.581  20.078  26.046  1.00  0.00    -0.036 C 
ATOM     68  H   UNL A   1      41.619  20.303  25.000  1.00  0.00     0.028 H 
ATOM     69  H   UNL A   1      40.702  19.539  26.327  1.00  0.00     0.028 H 
BRANCH  67  70
ATOM     70  C   UNL A   1      42.767  19.178  26.383  1.00  0.00     0.018 C 
ATOM     71  H   UNL A   1      42.400  18.268  26.812  1.00  0.00     0.049 H 
ATOM     72  H   UNL A   1      43.396  19.701  27.073  1.00  0.00     0.049 H 
BRANCH  70  73
ATOM     73  N   UNL A   1      43.556  18.860  25.204  1.00  0.00    -0.352 N 
ATOM     74  C   UNL A   1      44.285  19.684  24.385  1.00  0.00     0.251 C 
ATOM     75  H   UNL A   1      43.570  17.907  24.956  1.00  0.00     0.163 HD
ATOM     76  O   UNL A   1      44.688  19.276  23.300  1.00  0.00    -0.269 OA
BRANCH  74  77
ATOM     77  C   UNL A   1      44.580  21.072  24.800  1.00  0.00     0.039 A 
ATOM     78  C   UNL A   1      44.193  22.124  23.968  1.00  0.00    -0.049 A 
ATOM     79  C   UNL A   1      45.266  21.333  25.990  1.00  0.00    -0.049 A 
ATOM     80  C   UNL A   1      44.437  23.443  24.359  1.00  0.00    -0.053 A 
ATOM     81  H   UNL A   1      43.727  21.929  23.068  1.00  0.00     0.063 H 
ATOM     82  C   UNL A   1      45.450  22.648  26.410  1.00  0.00    -0.053 A 
ATOM     83  H   UNL A   1      45.636  20.553  26.556  1.00  0.00     0.063 H 
ATOM     84  C   UNL A   1      45.037  23.715  25.599  1.00  0.00    -0.014 A 
ATOM     85  H   UNL A   1      44.176  24.220  23.732  1.00  0.00     0.063 H 
ATOM     86  H   UNL A   1      45.894  22.838  27.323  1.00  0.00     0.063 H 
BRANCH  84  87
ATOM     87  C   UNL A   1      45.225  25.110  26.072  1.00  0.00     0.031 A 
ATOM     88  C   UNL A   1      46.583  25.751  26.028  1.00  0.00     0.074 A 
ATOM     89  C   UNL A   1      44.181  25.772  26.605  1.00  0.00     0.049 A 
ATOM     90  N   UNL A   1      46.957  26.929  26.462  1.00  0.00    -0.248 NA
ATOM     91  C   UNL A   1      47.672  24.955  25.442  1.00  0.00    -0.034 C 
ATOM     92  C   UNL A   1      42.825  25.239  26.745  1.00  0.00    -0.036 A 
ATOM     93  N   UNL A   1      44.098  27.032  27.142  1.00  0.00    -0.354 N 
ATOM     94  C   UNL A   1      48.320  27.009  26.212  1.00  0.00     0.074 A 
ATOM     95  C   UNL A   1      48.719  25.743  25.636  1.00  0.00    -0.034 C 
ATOM     96  H   UNL A   1      47.630  24.025  24.995  1.00  0.00     0.065 H 
ATOM     97  C   UNL A   1      42.042  26.170  27.311  1.00  0.00    -0.036 A 
ATOM     98  H   UNL A   1      42.520  24.296  26.454  1.00  0.00     0.065 H 
ATOM     99  C   UNL A   1      42.846  27.351  27.610  1.00  0.00     0.049 A 
ATOM    100  H   UNL A   1      44.864  27.651  27.187  1.00  0.00     0.167 HD
ATOM    101  C   UNL A   1      49.158  28.052  26.424  1.00  0.00     0.037 A 
ATOM    102  H   UNL A   1      49.692  25.487  25.407  1.00  0.00     0.065 H 
ATOM    103  H   UNL A   1      41.033  26.068  27.503  1.00  0.00     0.065 H 
ATOM    104  C   UNL A   1      42.402  28.464  28.222  1.00  0.00     0.037 A 
ATOM    105  C   UNL A   1      48.750  29.318  26.978  1.00  0.00     0.049 A 
ATOM    106  C   UNL A   1      43.355  29.602  28.458  1.00  0.00     0.074 A 
ATOM    107  C   UNL A   1      49.509  30.459  27.173  1.00  0.00    -0.036 A 
ATOM    108  N   UNL A   1      47.472  29.606  27.432  1.00  0.00    -0.354 N 
ATOM    109  N   UNL A   1      44.627  29.693  28.154  1.00  0.00    -0.248 NA
ATOM    110  C   UNL A   1      42.811  30.796  29.119  1.00  0.00    -0.034 C 
ATOM    111  C   UNL A   1      48.703  31.421  27.791  1.00  0.00    -0.036 A 
ATOM    112  H   UNL A   1      50.500  30.579  26.908  1.00  0.00     0.065 H 
ATOM    113  C   UNL A   1      47.428  30.898  27.933  1.00  0.00     0.049 A 
ATOM    114  H   UNL A   1      46.708  28.986  27.403  1.00  0.00     0.167 HD
ATOM    115  C   UNL A   1      45.029  30.957  28.563  1.00  0.00     0.074 A 
ATOM    116  C   UNL A   1      43.860  31.606  29.121  1.00  0.00    -0.034 C 
ATOM    117  H   UNL A   1      41.861  30.961  29.486  1.00  0.00     0.065 H 
ATOM    118  H   UNL A   1      49.007  32.360  28.090  1.00  0.00     0.065 H 
ATOM    119  C   UNL A   1      46.256  31.529  28.486  1.00  0.00     0.037 A 
ATOM    120  H   UNL A   1      43.846  32.575  29.474  1.00  0.00     0.065 H 
BRANCH 101 121
ATOM    121  C   UNL A   1      50.602  27.872  26.055  1.00  0.00     0.064 A 
ATOM    122  C   UNL A   1      51.573  27.546  27.016  1.00  0.00     0.173 A 
ATOM    123  C   UNL A   1      51.017  27.985  24.720  1.00  0.00     0.173 A 
ATOM    124  F   UNL A   1      51.231  27.436  28.309  1.00  0.00    -0.203 F 
ATOM    125  C   UNL A   1      52.906  27.369  26.658  1.00  0.00     0.198 A 
ATOM    126  C   UNL A   1      52.346  27.777  24.360  1.00  0.00     0.198 A 
ATOM    127  F   UNL A   1      50.129  28.288  23.760  1.00  0.00    -0.203 F 
ATOM    128  F   UNL A   1      53.822  27.107  27.600  1.00  0.00    -0.200 F 
ATOM    129  C   UNL A   1      53.291  27.478  25.329  1.00  0.00     0.200 A 
ATOM    130  F   UNL A   1      52.712  27.868  23.074  1.00  0.00    -0.200 F 
ATOM    131  F   UNL A   1      54.573  27.299  24.985  1.00  0.00    -0.200 F 
ENDBRANCH 101 121
BRANCH 104 132
ATOM    132  C   UNL A   1      40.978  28.562  28.638  1.00  0.00     0.064 A 
ATOM    133  C   UNL A   1      40.581  28.201  29.933  1.00  0.00     0.173 A 
ATOM    134  C   UNL A   1      39.987  29.013  27.754  1.00  0.00     0.173 A 
ATOM    135  F   UNL A   1      41.489  27.745  30.809  1.00  0.00    -0.203 F 
ATOM    136  C   UNL A   1      39.245  28.269  30.323  1.00  0.00     0.198 A 
ATOM    137  C   UNL A   1      38.656  29.109  28.153  1.00  0.00     0.198 A 
ATOM    138  F   UNL A   1      40.315  29.375  26.505  1.00  0.00    -0.203 F 
ATOM    139  F   UNL A   1      38.888  27.875  31.552  1.00  0.00    -0.200 F 
ATOM    140  C   UNL A   1      38.284  28.729  29.434  1.00  0.00     0.200 A 
ATOM    141  F   UNL A   1      37.733  29.568  27.297  1.00  0.00    -0.200 F 
ATOM    142  F   UNL A   1      37.001  28.800  29.810  1.00  0.00    -0.200 F 
ENDBRANCH 104 132
BRANCH 119 143
ATOM    143  C   UNL A   1      46.391  32.934  28.997  1.00  0.00     0.064 A 
ATOM    144  C   UNL A   1      46.163  34.043  28.169  1.00  0.00     0.173 A 
ATOM    145  C   UNL A   1      46.718  33.173  30.340  1.00  0.00     0.173 A 
ATOM    146  F   UNL A   1      45.864  33.867  26.873  1.00  0.00    -0.203 F 
ATOM    147  C   UNL A   1      46.285  35.340  28.661  1.00  0.00     0.198 A 
ATOM    148  C   UNL A   1      46.808  34.471  30.836  1.00  0.00     0.198 A 
ATOM    149  F   UNL A   1      46.940  32.147  31.176  1.00  0.00    -0.203 F 
ATOM    150  F   UNL A   1      46.113  36.384  27.838  1.00  0.00    -0.200 F 
ATOM    151  C   UNL A   1      46.600  35.553  29.995  1.00  0.00     0.200 A 
ATOM    152  F   UNL A   1      47.099  34.674  32.128  1.00  0.00    -0.200 F 
ATOM    153  F   UNL A   1      46.710  36.801  30.467  1.00  0.00    -0.200 F 
ENDBRANCH 119 143
ENDBRANCH  84  87
ENDBRANCH  74  77
ENDBRANCH  70  73
ENDBRANCH  67  70
ENDBRANCH  64  67
ENDBRANCH  61  64
ENDBRANCH  58  61
ENDBRANCH  55  58
ENDBRANCH   3  55
TORSDOF 24
ENDMDL
MODEL 4
REMARK VINA RESULT:     -11.4      2.832      9.519
REMARK SMILES CCCCCCOC(=O)Nc1cccc(-c2ccc([C@@H](C)C(=O)NCCCCCCNC(=O)c3ccc(-c4c5nc(c(-c6c(F)c(F)c(F)c(F)c6F)c6ccc([nH]6)c(-c6c(F)c(F)c(F)c(F)c6F)c6nc(c(-c7c(F)c(F)c(F)c(F)c7F)c7ccc4[nH]7)C=C6)C=C5)cc3)cc2F)c1
REMARK SMILES IDX 22 1 23 2 24 3 20 5 19 7 16 8 17 9 98 10 18 11 97 13 99 14
REMARK SMILES IDX 15 17 11 18 12 19 100 20 13 21 14 24 10 27 8 28 9 29 7 31
REMARK SMILES IDX 6 32 5 35 4 38 3 41 2 44 1 47 21 51 25 55 26 58 27 61 28 64
REMARK SMILES IDX 29 67 30 70 31 73 32 74 33 76 34 77 35 78 96 79 36 80 95 82
REMARK SMILES IDX 37 84 38 87 39 88 89 89 40 90 94 91 88 92 90 93 41 94 93 95
REMARK SMILES IDX 87 97 86 99 42 101 74 104 54 105 73 106 55 107 58 108 72 109
REMARK SMILES IDX 91 110 56 111 57 113 71 115 92 116 59 119 43 121 44 122
REMARK SMILES IDX 52 123 45 124 46 125 50 126 53 127 47 128 48 129 51 130
REMARK SMILES IDX 49 131 75 132 76 133 84 134 77 135 78 136 82 137 85 138
REMARK SMILES IDX 79 139 80 140 83 141 81 142 60 143 61 144 69 145 62 146
REMARK SMILES IDX 63 147 67 148 70 149 64 150 65 151 68 152 66 153
REMARK H PARENT 24 4 20 6 17 12 18 15 97 16 12 22 100 23 13 25 14 26 10 30
REMARK H PARENT 6 33 6 34 5 36 5 37 4 39 4 40 3 42 3 43 2 45 2 46 1 48 1 49
REMARK H PARENT 1 50 21 52 21 53 21 54 25 56 25 57 26 59 26 60 27 62 27 63
REMARK H PARENT 28 65 28 66 29 68 29 69 30 71 30 72 31 75 35 81 96 83 36 85
REMARK H PARENT 95 86 94 96 88 98 90 100 93 102 87 103 55 112 58 114 91 117
REMARK H PARENT 56 118 92 120
REMARK Flexibility Score: inf
ROOT
ATOM      1  C   UNL A   1      36.483  22.988  23.876  1.00  0.00     0.227 C 
ATOM      2  O   UNL A   1      36.622  22.952  22.647  1.00  0.00    -0.274 OA
ATOM      3  N   UNL A   1      37.626  23.039  24.613  1.00  0.00    -0.356 N 
ATOM      4  H   UNL A   1      38.448  23.128  24.078  1.00  0.00     0.163 HD
ENDROOT
BRANCH   1   5
ATOM      5  C   UNL A   1      35.074  22.989  24.487  1.00  0.00     0.060 C 
ATOM      6  H   UNL A   1      35.190  22.610  25.481  1.00  0.00     0.045 H 
BRANCH   5   7
ATOM      7  C   UNL A   1      34.509  24.382  24.715  1.00  0.00    -0.033 A 
ATOM      8  C   UNL A   1      33.269  26.937  25.045  1.00  0.00     0.018 A 
ATOM      9  C   UNL A   1      33.677  26.176  26.148  1.00  0.00    -0.051 A 
ATOM     10  C   UNL A   1      33.553  26.409  23.774  1.00  0.00     0.131 A 
ATOM     11  C   UNL A   1      34.313  24.938  25.986  1.00  0.00    -0.057 A 
ATOM     12  H   UNL A   1      33.505  26.534  27.100  1.00  0.00     0.063 H 
ATOM     13  C   UNL A   1      34.138  25.154  23.607  1.00  0.00    -0.022 A 
ATOM     14  F   UNL A   1      33.259  27.106  22.665  1.00  0.00    -0.206 F 
ATOM     15  H   UNL A   1      34.643  24.426  26.818  1.00  0.00     0.063 H 
ATOM     16  H   UNL A   1      34.299  24.788  22.655  1.00  0.00     0.066 H 
BRANCH   8  17
ATOM     17  C   UNL A   1      32.546  28.213  25.223  1.00  0.00    -0.013 A 
ATOM     18  C   UNL A   1      30.941  29.859  24.377  1.00  0.00     0.045 A 
ATOM     19  C   UNL A   1      31.212  30.696  25.454  1.00  0.00    -0.038 A 
ATOM     20  C   UNL A   1      31.599  28.628  24.274  1.00  0.00    -0.030 A 
ATOM     21  C   UNL A   1      32.100  30.280  26.444  1.00  0.00    -0.060 A 
ATOM     22  H   UNL A   1      30.758  31.620  25.520  1.00  0.00     0.064 H 
ATOM     23  H   UNL A   1      31.380  28.008  23.478  1.00  0.00     0.065 H 
ATOM     24  C   UNL A   1      32.766  29.055  26.325  1.00  0.00    -0.054 A 
ATOM     25  H   UNL A   1      32.267  30.878  27.268  1.00  0.00     0.062 H 
ATOM     26  H   UNL A   1      33.430  28.766  27.059  1.00  0.00     0.063 H 
BRANCH  18  27
ATOM     27  N   UNL A   1      30.093  30.313  23.359  1.00  0.00    -0.291 N 
ATOM     28  C   UNL A   1      29.634  29.589  22.288  1.00  0.00     0.411 C 
ATOM     29  O   UNL A   1      29.307  30.132  21.247  1.00  0.00    -0.224 OA
ATOM     30  H   UNL A   1      29.796  31.250  23.417  1.00  0.00     0.173 HD
BRANCH  28  31
ATOM     31  O   UNL A   1      29.477  28.270  22.580  1.00  0.00    -0.449 OA
BRANCH  31  32
ATOM     32  C   UNL A   1      28.224  27.834  23.126  1.00  0.00     0.093 C 
ATOM     33  H   UNL A   1      27.793  28.638  23.686  1.00  0.00     0.071 H 
ATOM     34  H   UNL A   1      27.592  27.547  22.312  1.00  0.00     0.071 H 
BRANCH  32  35
ATOM     35  C   UNL A   1      28.386  26.621  24.048  1.00  0.00    -0.019 C 
ATOM     36  H   UNL A   1      28.495  26.980  25.049  1.00  0.00     0.030 H 
ATOM     37  H   UNL A   1      27.515  26.020  23.895  1.00  0.00     0.030 H 
BRANCH  35  38
ATOM     38  C   UNL A   1      29.583  25.712  23.741  1.00  0.00    -0.050 C 
ATOM     39  H   UNL A   1      29.235  24.898  23.139  1.00  0.00     0.027 H 
ATOM     40  H   UNL A   1      30.307  26.325  23.247  1.00  0.00     0.027 H 
BRANCH  38  41
ATOM     41  C   UNL A   1      30.284  25.127  24.975  1.00  0.00    -0.053 C 
ATOM     42  H   UNL A   1      31.039  25.818  25.286  1.00  0.00     0.027 H 
ATOM     43  H   UNL A   1      29.520  24.975  25.709  1.00  0.00     0.027 H 
BRANCH  41  44
ATOM     44  C   UNL A   1      30.946  23.769  24.755  1.00  0.00    -0.056 C 
ATOM     45  H   UNL A   1      30.380  23.226  24.026  1.00  0.00     0.026 H 
ATOM     46  H   UNL A   1      31.949  23.945  24.425  1.00  0.00     0.026 H 
BRANCH  44  47
ATOM     47  C   UNL A   1      31.020  22.942  26.028  1.00  0.00    -0.065 C 
ATOM     48  H   UNL A   1      30.654  23.520  26.851  1.00  0.00     0.023 H 
ATOM     49  H   UNL A   1      32.036  22.662  26.212  1.00  0.00     0.023 H 
ATOM     50  H   UNL A   1      30.422  22.062  25.916  1.00  0.00     0.023 H 
ENDBRANCH  44  47
ENDBRANCH  41  44
ENDBRANCH  38  41
ENDBRANCH  35  38
ENDBRANCH  32  35
ENDBRANCH  31  32
ENDBRANCH  28  31
ENDBRANCH  18  27
ENDBRANCH   8  17
ENDBRANCH   5   7
BRANCH   5  51
ATOM     51  C   UNL A   1      34.122  21.977  23.852  1.00  0.00    -0.049 C 
ATOM     52  H   UNL A   1      33.811  21.267  24.591  1.00  0.00     0.024 H 
ATOM     53  H   UNL A   1      34.623  21.466  23.057  1.00  0.00     0.024 H 
ATOM     54  H   UNL A   1      33.265  22.487  23.465  1.00  0.00     0.024 H 
ENDBRANCH   5  51
ENDBRANCH   1   5
BRANCH   3  55
ATOM     55  C   UNL A   1      37.848  22.987  26.040  1.00  0.00     0.017 C 
ATOM     56  H   UNL A   1      38.340  22.068  26.283  1.00  0.00     0.049 H 
ATOM     57  H   UNL A   1      36.898  23.052  26.528  1.00  0.00     0.049 H 
BRANCH  55  58
ATOM     58  C   UNL A   1      38.713  24.154  26.521  1.00  0.00    -0.036 C 
ATOM     59  H   UNL A   1      38.330  24.494  27.461  1.00  0.00     0.028 H 
ATOM     60  H   UNL A   1      38.667  24.910  25.765  1.00  0.00     0.028 H 
BRANCH  58  61
ATOM     61  C   UNL A   1      40.190  23.791  26.704  1.00  0.00    -0.052 C 
ATOM     62  H   UNL A   1      40.569  24.350  27.535  1.00  0.00     0.027 H 
ATOM     63  H   UNL A   1      40.673  24.026  25.779  1.00  0.00     0.027 H 
BRANCH  61  64
ATOM     64  C   UNL A   1      40.464  22.304  26.964  1.00  0.00    -0.052 C 
ATOM     65  H   UNL A   1      39.564  21.762  26.758  1.00  0.00     0.027 H 
ATOM     66  H   UNL A   1      40.782  22.238  27.984  1.00  0.00     0.027 H 
BRANCH  64  67
ATOM     67  C   UNL A   1      41.590  21.686  26.131  1.00  0.00    -0.036 C 
ATOM     68  H   UNL A   1      41.146  21.070  25.377  1.00  0.00     0.028 H 
ATOM     69  H   UNL A   1      42.205  21.138  26.812  1.00  0.00     0.028 H 
BRANCH  67  70
ATOM     70  C   UNL A   1      42.502  22.699  25.443  1.00  0.00     0.018 C 
ATOM     71  H   UNL A   1      42.225  23.683  25.758  1.00  0.00     0.049 H 
ATOM     72  H   UNL A   1      42.384  22.587  24.385  1.00  0.00     0.049 H 
BRANCH  70  73
ATOM     73  N   UNL A   1      43.901  22.474  25.769  1.00  0.00    -0.352 N 
ATOM     74  C   UNL A   1      44.736  23.184  26.594  1.00  0.00     0.251 C 
ATOM     75  H   UNL A   1      44.311  21.693  25.332  1.00  0.00     0.163 HD
ATOM     76  O   UNL A   1      45.947  22.989  26.561  1.00  0.00    -0.269 OA
BRANCH  74  77
ATOM     77  C   UNL A   1      44.182  24.193  27.521  1.00  0.00     0.039 A 
ATOM     78  C   UNL A   1      43.409  23.766  28.603  1.00  0.00    -0.049 A 
ATOM     79  C   UNL A   1      44.398  25.558  27.307  1.00  0.00    -0.049 A 
ATOM     80  C   UNL A   1      42.903  24.704  29.506  1.00  0.00    -0.053 A 
ATOM     81  H   UNL A   1      43.213  22.761  28.735  1.00  0.00     0.063 H 
ATOM     82  C   UNL A   1      43.949  26.486  28.243  1.00  0.00    -0.053 A 
ATOM     83  H   UNL A   1      44.888  25.877  26.457  1.00  0.00     0.063 H 
ATOM     84  C   UNL A   1      43.198  26.068  29.352  1.00  0.00    -0.014 A 
ATOM     85  H   UNL A   1      42.308  24.392  30.290  1.00  0.00     0.063 H 
ATOM     86  H   UNL A   1      44.170  27.487  28.121  1.00  0.00     0.063 H 
BRANCH  84  87
ATOM     87  C   UNL A   1      42.744  27.069  30.349  1.00  0.00     0.031 A 
ATOM     88  C   UNL A   1      43.433  27.185  31.679  1.00  0.00     0.074 A 
ATOM     89  C   UNL A   1      41.664  27.827  30.079  1.00  0.00     0.049 A 
ATOM     90  N   UNL A   1      43.135  27.946  32.703  1.00  0.00    -0.248 NA
ATOM     91  C   UNL A   1      44.596  26.313  31.899  1.00  0.00    -0.034 C 
ATOM     92  C   UNL A   1      40.883  27.773  28.842  1.00  0.00    -0.036 A 
ATOM     93  N   UNL A   1      41.026  28.781  30.831  1.00  0.00    -0.354 N 
ATOM     94  C   UNL A   1      44.064  27.636  33.687  1.00  0.00     0.074 A 
ATOM     95  C   UNL A   1      44.903  26.583  33.159  1.00  0.00    -0.034 C 
ATOM     96  H   UNL A   1      45.054  25.660  31.243  1.00  0.00     0.065 H 
ATOM     97  C   UNL A   1      39.884  28.667  28.912  1.00  0.00    -0.036 A 
ATOM     98  H   UNL A   1      41.071  27.146  28.043  1.00  0.00     0.065 H 
ATOM     99  C   UNL A   1      39.929  29.329  30.212  1.00  0.00     0.049 A 
ATOM    100  H   UNL A   1      41.328  29.048  31.731  1.00  0.00     0.167 HD
ATOM    101  C   UNL A   1      44.215  28.196  34.911  1.00  0.00     0.037 A 
ATOM    102  H   UNL A   1      45.644  26.104  33.695  1.00  0.00     0.065 H 
ATOM    103  H   UNL A   1      39.196  28.856  28.167  1.00  0.00     0.065 H 
ATOM    104  C   UNL A   1      39.053  30.253  30.649  1.00  0.00     0.037 A 
ATOM    105  C   UNL A   1      43.389  29.260  35.423  1.00  0.00     0.049 A 
ATOM    106  C   UNL A   1      39.235  30.848  32.017  1.00  0.00     0.074 A 
ATOM    107  C   UNL A   1      43.502  29.938  36.625  1.00  0.00    -0.036 A 
ATOM    108  N   UNL A   1      42.293  29.796  34.763  1.00  0.00    -0.354 N 
ATOM    109  N   UNL A   1      40.159  30.597  32.913  1.00  0.00    -0.248 NA
ATOM    110  C   UNL A   1      38.254  31.859  32.435  1.00  0.00    -0.034 C 
ATOM    111  C   UNL A   1      42.445  30.849  36.713  1.00  0.00    -0.036 A 
ATOM    112  H   UNL A   1      44.240  29.796  37.332  1.00  0.00     0.065 H 
ATOM    113  C   UNL A   1      41.704  30.777  35.545  1.00  0.00     0.049 A 
ATOM    114  H   UNL A   1      41.980  29.520  33.871  1.00  0.00     0.167 HD
ATOM    115  C   UNL A   1      39.887  31.432  33.987  1.00  0.00     0.074 A 
ATOM    116  C   UNL A   1      38.722  32.213  33.624  1.00  0.00    -0.034 C 
ATOM    117  H   UNL A   1      37.421  32.204  31.935  1.00  0.00     0.065 H 
ATOM    118  H   UNL A   1      42.249  31.470  37.514  1.00  0.00     0.065 H 
ATOM    119  C   UNL A   1      40.542  31.543  35.169  1.00  0.00     0.037 A 
ATOM    120  H   UNL A   1      38.308  32.950  34.216  1.00  0.00     0.065 H 
BRANCH 101 121
ATOM    121  C   UNL A   1      45.316  27.670  35.786  1.00  0.00     0.064 A 
ATOM    122  C   UNL A   1      45.098  26.623  36.696  1.00  0.00     0.173 A 
ATOM    123  C   UNL A   1      46.616  28.190  35.687  1.00  0.00     0.173 A 
ATOM    124  F   UNL A   1      43.872  26.097  36.837  1.00  0.00    -0.203 F 
ATOM    125  C   UNL A   1      46.132  26.137  37.492  1.00  0.00     0.198 A 
ATOM    126  C   UNL A   1      47.654  27.680  36.462  1.00  0.00     0.198 A 
ATOM    127  F   UNL A   1      46.882  29.187  34.830  1.00  0.00    -0.203 F 
ATOM    128  F   UNL A   1      45.887  25.170  38.387  1.00  0.00    -0.200 F 
ATOM    129  C   UNL A   1      47.410  26.661  37.370  1.00  0.00     0.200 A 
ATOM    130  F   UNL A   1      48.891  28.178  36.332  1.00  0.00    -0.200 F 
ATOM    131  F   UNL A   1      48.405  26.186  38.131  1.00  0.00    -0.200 F 
ENDBRANCH 101 121
BRANCH 104 132
ATOM    132  C   UNL A   1      37.932  30.683  29.772  1.00  0.00     0.064 A 
ATOM    133  C   UNL A   1      36.864  29.819  29.494  1.00  0.00     0.173 A 
ATOM    134  C   UNL A   1      37.907  31.960  29.193  1.00  0.00     0.173 A 
ATOM    135  F   UNL A   1      36.854  28.580  30.009  1.00  0.00    -0.203 F 
ATOM    136  C   UNL A   1      35.822  30.208  28.656  1.00  0.00     0.198 A 
ATOM    137  C   UNL A   1      36.850  32.359  28.378  1.00  0.00     0.198 A 
ATOM    138  F   UNL A   1      38.902  32.827  29.431  1.00  0.00    -0.203 F 
ATOM    139  F   UNL A   1      34.837  29.346  28.371  1.00  0.00    -0.200 F 
ATOM    140  C   UNL A   1      35.812  31.480  28.102  1.00  0.00     0.200 A 
ATOM    141  F   UNL A   1      36.836  33.594  27.858  1.00  0.00    -0.200 F 
ATOM    142  F   UNL A   1      34.808  31.857  27.300  1.00  0.00    -0.200 F 
ENDBRANCH 104 132
BRANCH 119 143
ATOM    143  C   UNL A   1      40.026  32.559  36.146  1.00  0.00     0.064 A 
ATOM    144  C   UNL A   1      40.606  33.832  36.260  1.00  0.00     0.173 A 
ATOM    145  C   UNL A   1      38.917  32.268  36.955  1.00  0.00     0.173 A 
ATOM    146  F   UNL A   1      41.678  34.152  35.521  1.00  0.00    -0.203 F 
ATOM    147  C   UNL A   1      40.110  34.766  37.166  1.00  0.00     0.198 A 
ATOM    148  C   UNL A   1      38.405  33.215  37.838  1.00  0.00     0.198 A 
ATOM    149  F   UNL A   1      38.322  31.068  36.882  1.00  0.00    -0.203 F 
ATOM    150  F   UNL A   1      40.712  35.956  37.293  1.00  0.00    -0.200 F 
ATOM    151  C   UNL A   1      39.007  34.459  37.949  1.00  0.00     0.200 A 
ATOM    152  F   UNL A   1      37.331  32.922  38.583  1.00  0.00    -0.200 F 
ATOM    153  F   UNL A   1      38.528  35.362  38.815  1.00  0.00    -0.200 F 
ENDBRANCH 119 143
ENDBRANCH  84  87
ENDBRANCH  74  77
ENDBRANCH  70  73
ENDBRANCH  67  70
ENDBRANCH  64  67
ENDBRANCH  61  64
ENDBRANCH  58  61
ENDBRANCH  55  58
ENDBRANCH   3  55
TORSDOF 24
ENDMDL
MODEL 5
REMARK VINA RESULT:     -11.2      1.120      2.182
REMARK SMILES CCCCCCOC(=O)Nc1cccc(-c2ccc([C@@H](C)C(=O)NCCCCCCNC(=O)c3ccc(-c4c5nc(c(-c6c(F)c(F)c(F)c(F)c6F)c6ccc([nH]6)c(-c6c(F)c(F)c(F)c(F)c6F)c6nc(c(-c7c(F)c(F)c(F)c(F)c7F)c7ccc4[nH]7)C=C6)C=C5)cc3)cc2F)c1
REMARK SMILES IDX 22 1 23 2 24 3 20 5 19 7 16 8 17 9 98 10 18 11 97 13 99 14
REMARK SMILES IDX 15 17 11 18 12 19 100 20 13 21 14 24 10 27 8 28 9 29 7 31
REMARK SMILES IDX 6 32 5 35 4 38 3 41 2 44 1 47 21 51 25 55 26 58 27 61 28 64
REMARK SMILES IDX 29 67 30 70 31 73 32 74 33 76 34 77 35 78 96 79 36 80 95 82
REMARK SMILES IDX 37 84 38 87 39 88 89 89 40 90 94 91 88 92 90 93 41 94 93 95
REMARK SMILES IDX 87 97 86 99 42 101 74 104 54 105 73 106 55 107 58 108 72 109
REMARK SMILES IDX 91 110 56 111 57 113 71 115 92 116 59 119 43 121 44 122
REMARK SMILES IDX 52 123 45 124 46 125 50 126 53 127 47 128 48 129 51 130
REMARK SMILES IDX 49 131 75 132 76 133 84 134 77 135 78 136 82 137 85 138
REMARK SMILES IDX 79 139 80 140 83 141 81 142 60 143 61 144 69 145 62 146
REMARK SMILES IDX 63 147 67 148 70 149 64 150 65 151 68 152 66 153
REMARK H PARENT 24 4 20 6 17 12 18 15 97 16 12 22 100 23 13 25 14 26 10 30
REMARK H PARENT 6 33 6 34 5 36 5 37 4 39 4 40 3 42 3 43 2 45 2 46 1 48 1 49
REMARK H PARENT 1 50 21 52 21 53 21 54 25 56 25 57 26 59 26 60 27 62 27 63
REMARK H PARENT 28 65 28 66 29 68 29 69 30 71 30 72 31 75 35 81 96 83 36 85
REMARK H PARENT 95 86 94 96 88 98 90 100 93 102 87 103 55 112 58 114 91 117
REMARK H PARENT 56 118 92 120
REMARK Flexibility Score: inf
ROOT
ATOM      1  C   UNL A   1      31.047  26.851  26.524  1.00  0.00     0.227 C 
ATOM      2  O   UNL A   1      30.168  26.057  26.882  1.00  0.00    -0.274 OA
ATOM      3  N   UNL A   1      31.325  27.871  27.380  1.00  0.00    -0.356 N 
ATOM      4  H   UNL A   1      30.849  27.819  28.240  1.00  0.00     0.163 HD
ENDROOT
BRANCH   1   5
ATOM      5  C   UNL A   1      31.767  26.643  25.183  1.00  0.00     0.060 C 
ATOM      6  H   UNL A   1      32.240  27.577  24.962  1.00  0.00     0.045 H 
BRANCH   5   7
ATOM      7  C   UNL A   1      32.938  25.676  25.264  1.00  0.00    -0.033 A 
ATOM      8  C   UNL A   1      35.007  23.705  25.347  1.00  0.00     0.018 A 
ATOM      9  C   UNL A   1      35.113  24.840  24.533  1.00  0.00    -0.051 A 
ATOM     10  C   UNL A   1      33.865  23.616  26.160  1.00  0.00     0.131 A 
ATOM     11  C   UNL A   1      34.113  25.822  24.516  1.00  0.00    -0.057 A 
ATOM     12  H   UNL A   1      35.945  24.956  23.933  1.00  0.00     0.063 H 
ATOM     13  C   UNL A   1      32.841  24.562  26.108  1.00  0.00    -0.022 A 
ATOM     14  F   UNL A   1      33.718  22.595  27.021  1.00  0.00    -0.206 F 
ATOM     15  H   UNL A   1      34.245  26.668  23.941  1.00  0.00     0.063 H 
ATOM     16  H   UNL A   1      32.003  24.441  26.698  1.00  0.00     0.066 H 
BRANCH   8  17
ATOM     17  C   UNL A   1      36.036  22.645  25.317  1.00  0.00    -0.013 A 
ATOM     18  C   UNL A   1      36.623  20.290  24.983  1.00  0.00     0.045 A 
ATOM     19  C   UNL A   1      37.939  20.553  25.347  1.00  0.00    -0.038 A 
ATOM     20  C   UNL A   1      35.689  21.332  24.961  1.00  0.00    -0.030 A 
ATOM     21  C   UNL A   1      38.324  21.860  25.642  1.00  0.00    -0.060 A 
ATOM     22  H   UNL A   1      38.627  19.785  25.399  1.00  0.00     0.064 H 
ATOM     23  H   UNL A   1      34.718  21.129  24.676  1.00  0.00     0.065 H 
ATOM     24  C   UNL A   1      37.381  22.893  25.635  1.00  0.00    -0.054 A 
ATOM     25  H   UNL A   1      39.311  22.066  25.866  1.00  0.00     0.062 H 
ATOM     26  H   UNL A   1      37.678  23.853  25.867  1.00  0.00     0.063 H 
BRANCH  18  27
ATOM     27  N   UNL A   1      36.234  18.965  24.747  1.00  0.00    -0.291 N 
ATOM     28  C   UNL A   1      34.954  18.475  24.732  1.00  0.00     0.411 C 
ATOM     29  O   UNL A   1      34.717  17.305  24.977  1.00  0.00    -0.224 OA
ATOM     30  H   UNL A   1      36.956  18.318  24.575  1.00  0.00     0.173 HD
BRANCH  28  31
ATOM     31  O   UNL A   1      34.050  19.393  24.296  1.00  0.00    -0.449 OA
BRANCH  31  32
ATOM     32  C   UNL A   1      32.861  19.606  25.072  1.00  0.00     0.093 C 
ATOM     33  H   UNL A   1      32.248  18.730  25.012  1.00  0.00     0.071 H 
ATOM     34  H   UNL A   1      33.157  19.804  26.080  1.00  0.00     0.071 H 
BRANCH  32  35
ATOM     35  C   UNL A   1      32.054  20.809  24.573  1.00  0.00    -0.019 C 
ATOM     36  H   UNL A   1      31.027  20.643  24.822  1.00  0.00     0.030 H 
ATOM     37  H   UNL A   1      32.482  21.665  25.049  1.00  0.00     0.030 H 
BRANCH  35  38
ATOM     38  C   UNL A   1      32.135  21.083  23.066  1.00  0.00    -0.050 C 
ATOM     39  H   UNL A   1      32.563  20.223  22.595  1.00  0.00     0.027 H 
ATOM     40  H   UNL A   1      31.136  21.288  22.744  1.00  0.00     0.027 H 
BRANCH  38  41
ATOM     41  C   UNL A   1      32.973  22.308  22.675  1.00  0.00    -0.053 C 
ATOM     42  H   UNL A   1      33.667  22.501  23.466  1.00  0.00     0.027 H 
ATOM     43  H   UNL A   1      33.445  22.064  21.747  1.00  0.00     0.027 H 
BRANCH  41  44
ATOM     44  C   UNL A   1      32.170  23.583  22.427  1.00  0.00    -0.056 C 
ATOM     45  H   UNL A   1      31.246  23.320  21.956  1.00  0.00     0.026 H 
ATOM     46  H   UNL A   1      32.010  24.056  23.373  1.00  0.00     0.026 H 
BRANCH  44  47
ATOM     47  C   UNL A   1      32.905  24.572  21.538  1.00  0.00    -0.065 C 
ATOM     48  H   UNL A   1      33.756  24.959  22.060  1.00  0.00     0.023 H 
ATOM     49  H   UNL A   1      32.249  25.378  21.282  1.00  0.00     0.023 H 
ATOM     50  H   UNL A   1      33.228  24.078  20.646  1.00  0.00     0.023 H 
ENDBRANCH  44  47
ENDBRANCH  41  44
ENDBRANCH  38  41
ENDBRANCH  35  38
ENDBRANCH  32  35
ENDBRANCH  31  32
ENDBRANCH  28  31
ENDBRANCH  18  27
ENDBRANCH   8  17
ENDBRANCH   5   7
BRANCH   5  51
ATOM     51  C   UNL A   1      30.825  26.455  23.996  1.00  0.00    -0.049 C 
ATOM     52  H   UNL A   1      29.852  26.182  24.351  1.00  0.00     0.024 H 
ATOM     53  H   UNL A   1      31.201  25.681  23.360  1.00  0.00     0.024 H 
ATOM     54  H   UNL A   1      30.760  27.369  23.444  1.00  0.00     0.024 H 
ENDBRANCH   5  51
ENDBRANCH   1   5
BRANCH   3  55
ATOM     55  C   UNL A   1      32.196  29.019  27.252  1.00  0.00     0.017 C 
ATOM     56  H   UNL A   1      31.968  29.717  28.030  1.00  0.00     0.049 H 
ATOM     57  H   UNL A   1      32.034  29.454  26.288  1.00  0.00     0.049 H 
BRANCH  55  58
ATOM     58  C   UNL A   1      33.670  28.624  27.356  1.00  0.00    -0.036 C 
ATOM     59  H   UNL A   1      33.897  27.951  26.555  1.00  0.00     0.028 H 
ATOM     60  H   UNL A   1      33.807  28.174  28.317  1.00  0.00     0.028 H 
BRANCH  58  61
ATOM     61  C   UNL A   1      34.633  29.813  27.276  1.00  0.00    -0.052 C 
ATOM     62  H   UNL A   1      34.719  30.102  26.249  1.00  0.00     0.027 H 
ATOM     63  H   UNL A   1      35.556  29.480  27.702  1.00  0.00     0.027 H 
BRANCH  61  64
ATOM     64  C   UNL A   1      34.208  31.046  28.085  1.00  0.00    -0.052 C 
ATOM     65  H   UNL A   1      35.039  31.349  28.687  1.00  0.00     0.027 H 
ATOM     66  H   UNL A   1      33.352  30.744  28.654  1.00  0.00     0.027 H 
BRANCH  64  67
ATOM     67  C   UNL A   1      33.758  32.253  27.257  1.00  0.00    -0.036 C 
ATOM     68  H   UNL A   1      33.781  31.975  26.224  1.00  0.00     0.028 H 
ATOM     69  H   UNL A   1      34.432  33.049  27.493  1.00  0.00     0.028 H 
BRANCH  67  70
ATOM     70  C   UNL A   1      32.356  32.762  27.583  1.00  0.00     0.018 C 
ATOM     71  H   UNL A   1      32.021  32.297  28.486  1.00  0.00     0.049 H 
ATOM     72  H   UNL A   1      31.714  32.515  26.763  1.00  0.00     0.049 H 
BRANCH  70  73
ATOM     73  N   UNL A   1      32.333  34.205  27.757  1.00  0.00    -0.352 N 
ATOM     74  C   UNL A   1      33.046  34.998  28.621  1.00  0.00     0.251 C 
ATOM     75  H   UNL A   1      31.712  34.687  27.164  1.00  0.00     0.163 HD
ATOM     76  O   UNL A   1      32.721  36.169  28.794  1.00  0.00    -0.269 OA
BRANCH  74  77
ATOM     77  C   UNL A   1      34.203  34.444  29.355  1.00  0.00     0.039 A 
ATOM     78  C   UNL A   1      33.984  33.793  30.571  1.00  0.00    -0.049 A 
ATOM     79  C   UNL A   1      35.503  34.594  28.861  1.00  0.00    -0.049 A 
ATOM     80  C   UNL A   1      35.063  33.237  31.263  1.00  0.00    -0.053 A 
ATOM     81  H   UNL A   1      33.030  33.723  30.957  1.00  0.00     0.063 H 
ATOM     82  C   UNL A   1      36.568  33.982  29.518  1.00  0.00    -0.053 A 
ATOM     83  H   UNL A   1      35.672  35.156  28.013  1.00  0.00     0.063 H 
ATOM     84  C   UNL A   1      36.358  33.298  30.724  1.00  0.00    -0.014 A 
ATOM     85  H   UNL A   1      34.907  32.781  32.176  1.00  0.00     0.063 H 
ATOM     86  H   UNL A   1      37.517  34.034  29.114  1.00  0.00     0.063 H 
BRANCH  84  87
ATOM     87  C   UNL A   1      37.503  32.637  31.400  1.00  0.00     0.031 A 
ATOM     88  C   UNL A   1      38.189  31.463  30.761  1.00  0.00     0.074 A 
ATOM     89  C   UNL A   1      37.878  33.056  32.624  1.00  0.00     0.049 A 
ATOM     90  N   UNL A   1      39.155  30.713  31.230  1.00  0.00    -0.248 NA
ATOM     91  C   UNL A   1      37.709  31.061  29.430  1.00  0.00    -0.034 C 
ATOM     92  C   UNL A   1      37.260  34.155  33.366  1.00  0.00    -0.036 A 
ATOM     93  N   UNL A   1      38.860  32.599  33.466  1.00  0.00    -0.354 N 
ATOM     94  C   UNL A   1      39.388  29.748  30.260  1.00  0.00     0.074 A 
ATOM     95  C   UNL A   1      38.431  29.975  29.199  1.00  0.00    -0.034 C 
ATOM     96  H   UNL A   1      36.997  31.510  28.833  1.00  0.00     0.065 H 
ATOM     97  C   UNL A   1      37.888  34.300  34.543  1.00  0.00    -0.036 A 
ATOM     98  H   UNL A   1      36.466  34.728  33.036  1.00  0.00     0.065 H 
ATOM     99  C   UNL A   1      38.927  33.281  34.657  1.00  0.00     0.049 A 
ATOM    100  H   UNL A   1      39.462  31.853  33.238  1.00  0.00     0.167 HD
ATOM    101  C   UNL A   1      40.332  28.775  30.246  1.00  0.00     0.037 A 
ATOM    102  H   UNL A   1      38.324  29.369  28.370  1.00  0.00     0.065 H 
ATOM    103  H   UNL A   1      37.672  35.018  35.253  1.00  0.00     0.065 H 
ATOM    104  C   UNL A   1      39.727  33.097  35.724  1.00  0.00     0.037 A 
ATOM    105  C   UNL A   1      41.296  28.568  31.296  1.00  0.00     0.049 A 
ATOM    106  C   UNL A   1      40.756  32.002  35.688  1.00  0.00     0.074 A 
ATOM    107  C   UNL A   1      42.333  27.651  31.347  1.00  0.00    -0.036 A 
ATOM    108  N   UNL A   1      41.338  29.285  32.482  1.00  0.00    -0.354 N 
ATOM    109  N   UNL A   1      41.015  31.139  34.735  1.00  0.00    -0.248 NA
ATOM    110  C   UNL A   1      41.608  31.855  36.876  1.00  0.00    -0.034 C 
ATOM    111  C   UNL A   1      42.970  27.780  32.585  1.00  0.00    -0.036 A 
ATOM    112  H   UNL A   1      42.590  26.988  30.599  1.00  0.00     0.065 H 
ATOM    113  C   UNL A   1      42.365  28.812  33.284  1.00  0.00     0.049 A 
ATOM    114  H   UNL A   1      40.729  30.021  32.720  1.00  0.00     0.167 HD
ATOM    115  C   UNL A   1      42.071  30.366  35.196  1.00  0.00     0.074 A 
ATOM    116  C   UNL A   1      42.418  30.873  36.507  1.00  0.00    -0.034 C 
ATOM    117  H   UNL A   1      41.582  32.379  37.765  1.00  0.00     0.065 H 
ATOM    118  H   UNL A   1      43.757  27.204  32.921  1.00  0.00     0.065 H 
ATOM    119  C   UNL A   1      42.697  29.328  34.589  1.00  0.00     0.037 A 
ATOM    120  H   UNL A   1      43.198  30.516  37.081  1.00  0.00     0.065 H 
BRANCH 101 121
ATOM    121  C   UNL A   1      40.369  27.858  29.057  1.00  0.00     0.064 A 
ATOM    122  C   UNL A   1      39.622  26.670  29.019  1.00  0.00     0.173 A 
ATOM    123  C   UNL A   1      41.128  28.190  27.925  1.00  0.00     0.173 A 
ATOM    124  F   UNL A   1      38.888  26.301  30.080  1.00  0.00    -0.203 F 
ATOM    125  C   UNL A   1      39.657  25.836  27.906  1.00  0.00     0.198 A 
ATOM    126  C   UNL A   1      41.136  27.369  26.800  1.00  0.00     0.198 A 
ATOM    127  F   UNL A   1      41.855  29.317  27.904  1.00  0.00    -0.203 F 
ATOM    128  F   UNL A   1      38.974  24.683  27.913  1.00  0.00    -0.200 F 
ATOM    129  C   UNL A   1      40.408  26.189  26.794  1.00  0.00     0.200 A 
ATOM    130  F   UNL A   1      41.850  27.719  25.722  1.00  0.00    -0.200 F 
ATOM    131  F   UNL A   1      40.433  25.389  25.720  1.00  0.00    -0.200 F 
ENDBRANCH 101 121
BRANCH 104 132
ATOM    132  C   UNL A   1      39.596  33.984  36.909  1.00  0.00     0.064 A 
ATOM    133  C   UNL A   1      38.823  33.600  38.013  1.00  0.00     0.173 A 
ATOM    134  C   UNL A   1      40.235  35.231  36.962  1.00  0.00     0.173 A 
ATOM    135  F   UNL A   1      38.176  32.425  38.001  1.00  0.00    -0.203 F 
ATOM    136  C   UNL A   1      38.679  34.436  39.118  1.00  0.00     0.198 A 
ATOM    137  C   UNL A   1      40.114  36.055  38.079  1.00  0.00     0.198 A 
ATOM    138  F   UNL A   1      40.991  35.645  35.934  1.00  0.00    -0.203 F 
ATOM    139  F   UNL A   1      37.898  34.063  40.140  1.00  0.00    -0.200 F 
ATOM    140  C   UNL A   1      39.329  35.661  39.153  1.00  0.00     0.200 A 
ATOM    141  F   UNL A   1      40.757  37.230  38.116  1.00  0.00    -0.200 F 
ATOM    142  F   UNL A   1      39.195  36.463  40.217  1.00  0.00    -0.200 F 
ENDBRANCH 104 132
BRANCH 119 143
ATOM    143  C   UNL A   1      43.834  28.686  35.328  1.00  0.00     0.064 A 
ATOM    144  C   UNL A   1      45.162  29.097  35.137  1.00  0.00     0.173 A 
ATOM    145  C   UNL A   1      43.591  27.669  36.264  1.00  0.00     0.173 A 
ATOM    146  F   UNL A   1      45.448  30.054  34.240  1.00  0.00    -0.203 F 
ATOM    147  C   UNL A   1      46.206  28.497  35.836  1.00  0.00     0.198 A 
ATOM    148  C   UNL A   1      44.634  27.093  36.985  1.00  0.00     0.198 A 
ATOM    149  F   UNL A   1      42.339  27.242  36.490  1.00  0.00    -0.203 F 
ATOM    150  F   UNL A   1      47.470  28.872  35.599  1.00  0.00    -0.200 F 
ATOM    151  C   UNL A   1      45.940  27.501  36.764  1.00  0.00     0.200 A 
ATOM    152  F   UNL A   1      44.373  26.141  37.891  1.00  0.00    -0.200 F 
ATOM    153  F   UNL A   1      46.945  26.930  37.440  1.00  0.00    -0.200 F 
ENDBRANCH 119 143
ENDBRANCH  84  87
ENDBRANCH  74  77
ENDBRANCH  70  73
ENDBRANCH  67  70
ENDBRANCH  64  67
ENDBRANCH  61  64
ENDBRANCH  58  61
ENDBRANCH  55  58
ENDBRANCH   3  55
TORSDOF 24
ENDMDL
MODEL 6
REMARK VINA RESULT:     -11.0      4.481      9.707
REMARK SMILES CCCCCCOC(=O)Nc1cccc(-c2ccc([C@@H](C)C(=O)NCCCCCCNC(=O)c3ccc(-c4c5nc(c(-c6c(F)c(F)c(F)c(F)c6F)c6ccc([nH]6)c(-c6c(F)c(F)c(F)c(F)c6F)c6nc(c(-c7c(F)c(F)c(F)c(F)c7F)c7ccc4[nH]7)C=C6)C=C5)cc3)cc2F)c1
REMARK SMILES IDX 22 1 23 2 24 3 20 5 19 7 16 8 17 9 98 10 18 11 97 13 99 14
REMARK SMILES IDX 15 17 11 18 12 19 100 20 13 21 14 24 10 27 8 28 9 29 7 31
REMARK SMILES IDX 6 32 5 35 4 38 3 41 2 44 1 47 21 51 25 55 26 58 27 61 28 64
REMARK SMILES IDX 29 67 30 70 31 73 32 74 33 76 34 77 35 78 96 79 36 80 95 82
REMARK SMILES IDX 37 84 38 87 39 88 89 89 40 90 94 91 88 92 90 93 41 94 93 95
REMARK SMILES IDX 87 97 86 99 42 101 74 104 54 105 73 106 55 107 58 108 72 109
REMARK SMILES IDX 91 110 56 111 57 113 71 115 92 116 59 119 43 121 44 122
REMARK SMILES IDX 52 123 45 124 46 125 50 126 53 127 47 128 48 129 51 130
REMARK SMILES IDX 49 131 75 132 76 133 84 134 77 135 78 136 82 137 85 138
REMARK SMILES IDX 79 139 80 140 83 141 81 142 60 143 61 144 69 145 62 146
REMARK SMILES IDX 63 147 67 148 70 149 64 150 65 151 68 152 66 153
REMARK H PARENT 24 4 20 6 17 12 18 15 97 16 12 22 100 23 13 25 14 26 10 30
REMARK H PARENT 6 33 6 34 5 36 5 37 4 39 4 40 3 42 3 43 2 45 2 46 1 48 1 49
REMARK H PARENT 1 50 21 52 21 53 21 54 25 56 25 57 26 59 26 60 27 62 27 63
REMARK H PARENT 28 65 28 66 29 68 29 69 30 71 30 72 31 75 35 81 96 83 36 85
REMARK H PARENT 95 86 94 96 88 98 90 100 93 102 87 103 55 112 58 114 91 117
REMARK H PARENT 56 118 92 120
REMARK Flexibility Score: inf
ROOT
ATOM      1  C   UNL A   1      30.641  24.548  25.797  1.00  0.00     0.227 C 
ATOM      2  O   UNL A   1      30.165  24.025  26.812  1.00  0.00    -0.274 OA
ATOM      3  N   UNL A   1      31.428  23.756  25.021  1.00  0.00    -0.356 N 
ATOM      4  H   UNL A   1      31.467  22.816  25.311  1.00  0.00     0.163 HD
ENDROOT
BRANCH   1   5
ATOM      5  C   UNL A   1      30.315  26.013  25.466  1.00  0.00     0.060 C 
ATOM      6  H   UNL A   1      29.428  26.243  26.019  1.00  0.00     0.045 H 
BRANCH   5   7
ATOM      7  C   UNL A   1      31.329  27.003  26.016  1.00  0.00    -0.033 A 
ATOM      8  C   UNL A   1      33.181  28.997  26.892  1.00  0.00     0.018 A 
ATOM      9  C   UNL A   1      32.145  28.548  27.722  1.00  0.00    -0.051 A 
ATOM     10  C   UNL A   1      33.298  28.377  25.637  1.00  0.00     0.131 A 
ATOM     11  C   UNL A   1      31.257  27.547  27.304  1.00  0.00    -0.057 A 
ATOM     12  H   UNL A   1      32.034  28.962  28.660  1.00  0.00     0.063 H 
ATOM     13  C   UNL A   1      32.385  27.420  25.194  1.00  0.00    -0.022 A 
ATOM     14  F   UNL A   1      34.305  28.699  24.809  1.00  0.00    -0.206 F 
ATOM     15  H   UNL A   1      30.535  27.207  27.958  1.00  0.00     0.063 H 
ATOM     16  H   UNL A   1      32.487  27.014  24.252  1.00  0.00     0.066 H 
BRANCH   8  17
ATOM     17  C   UNL A   1      34.078  30.092  27.315  1.00  0.00    -0.013 A 
ATOM     18  C   UNL A   1      34.411  32.468  27.810  1.00  0.00     0.045 A 
ATOM     19  C   UNL A   1      35.768  32.248  28.017  1.00  0.00    -0.038 A 
ATOM     20  C   UNL A   1      33.579  31.395  27.472  1.00  0.00    -0.030 A 
ATOM     21  C   UNL A   1      36.277  30.953  27.932  1.00  0.00    -0.060 A 
ATOM     22  H   UNL A   1      36.395  33.039  28.233  1.00  0.00     0.064 H 
ATOM     23  H   UNL A   1      32.571  31.567  27.333  1.00  0.00     0.065 H 
ATOM     24  C   UNL A   1      35.443  29.888  27.577  1.00  0.00    -0.054 A 
ATOM     25  H   UNL A   1      37.275  30.780  28.132  1.00  0.00     0.062 H 
ATOM     26  H   UNL A   1      35.835  28.937  27.506  1.00  0.00     0.063 H 
BRANCH  18  27
ATOM     27  N   UNL A   1      33.922  33.780  27.840  1.00  0.00    -0.291 N 
ATOM     28  C   UNL A   1      33.323  34.410  28.900  1.00  0.00     0.411 C 
ATOM     29  O   UNL A   1      32.540  35.329  28.735  1.00  0.00    -0.224 OA
ATOM     30  H   UNL A   1      34.018  34.306  27.012  1.00  0.00     0.173 HD
BRANCH  28  31
ATOM     31  O   UNL A   1      33.800  33.980  30.098  1.00  0.00    -0.449 OA
BRANCH  31  32
ATOM     32  C   UNL A   1      34.008  34.946  31.139  1.00  0.00     0.093 C 
ATOM     33  H   UNL A   1      34.879  35.524  30.906  1.00  0.00     0.071 H 
ATOM     34  H   UNL A   1      33.136  35.563  31.195  1.00  0.00     0.071 H 
BRANCH  32  35
ATOM     35  C   UNL A   1      34.206  34.286  32.508  1.00  0.00    -0.019 C 
ATOM     36  H   UNL A   1      33.327  34.465  33.090  1.00  0.00     0.030 H 
ATOM     37  H   UNL A   1      34.390  33.251  32.309  1.00  0.00     0.030 H 
BRANCH  35  38
ATOM     38  C   UNL A   1      35.414  34.780  33.314  1.00  0.00    -0.050 C 
ATOM     39  H   UNL A   1      36.294  34.333  32.900  1.00  0.00     0.027 H 
ATOM     40  H   UNL A   1      35.408  35.847  33.241  1.00  0.00     0.027 H 
BRANCH  38  41
ATOM     41  C   UNL A   1      35.371  34.451  34.812  1.00  0.00    -0.053 C 
ATOM     42  H   UNL A   1      35.206  35.362  35.347  1.00  0.00     0.027 H 
ATOM     43  H   UNL A   1      34.584  33.737  34.939  1.00  0.00     0.027 H 
BRANCH  41  44
ATOM     44  C   UNL A   1      36.636  33.798  35.364  1.00  0.00    -0.056 C 
ATOM     45  H   UNL A   1      36.674  33.962  36.421  1.00  0.00     0.026 H 
ATOM     46  H   UNL A   1      36.593  32.754  35.129  1.00  0.00     0.026 H 
BRANCH  44  47
ATOM     47  C   UNL A   1      37.903  34.356  34.738  1.00  0.00    -0.065 C 
ATOM     48  H   UNL A   1      37.644  35.060  33.974  1.00  0.00     0.023 H 
ATOM     49  H   UNL A   1      38.471  33.558  34.310  1.00  0.00     0.023 H 
ATOM     50  H   UNL A   1      38.486  34.846  35.490  1.00  0.00     0.023 H 
ENDBRANCH  44  47
ENDBRANCH  41  44
ENDBRANCH  38  41
ENDBRANCH  35  38
ENDBRANCH  32  35
ENDBRANCH  31  32
ENDBRANCH  28  31
ENDBRANCH  18  27
ENDBRANCH   8  17
ENDBRANCH   5   7
BRANCH   5  51
ATOM     51  C   UNL A   1      29.876  26.238  24.020  1.00  0.00    -0.049 C 
ATOM     52  H   UNL A   1      28.807  26.209  23.962  1.00  0.00     0.024 H 
ATOM     53  H   UNL A   1      30.287  25.471  23.398  1.00  0.00     0.024 H 
ATOM     54  H   UNL A   1      30.225  27.192  23.685  1.00  0.00     0.024 H 
ENDBRANCH   5  51
ENDBRANCH   1   5
BRANCH   3  55
ATOM     55  C   UNL A   1      32.218  24.049  23.845  1.00  0.00     0.017 C 
ATOM     56  H   UNL A   1      31.897  24.983  23.434  1.00  0.00     0.049 H 
ATOM     57  H   UNL A   1      32.079  23.254  23.143  1.00  0.00     0.049 H 
BRANCH  55  58
ATOM     58  C   UNL A   1      33.710  24.139  24.175  1.00  0.00    -0.036 C 
ATOM     59  H   UNL A   1      33.835  23.969  25.224  1.00  0.00     0.028 H 
ATOM     60  H   UNL A   1      34.038  25.113  23.878  1.00  0.00     0.028 H 
BRANCH  58  61
ATOM     61  C   UNL A   1      34.571  23.125  23.415  1.00  0.00    -0.052 C 
ATOM     62  H   UNL A   1      34.388  23.252  22.368  1.00  0.00     0.027 H 
ATOM     63  H   UNL A   1      34.290  22.160  23.780  1.00  0.00     0.027 H 
BRANCH  61  64
ATOM     64  C   UNL A   1      36.082  23.250  23.654  1.00  0.00    -0.052 C 
ATOM     65  H   UNL A   1      36.238  24.017  24.383  1.00  0.00     0.027 H 
ATOM     66  H   UNL A   1      36.513  23.470  22.699  1.00  0.00     0.027 H 
BRANCH  64  67
ATOM     67  C   UNL A   1      36.778  21.979  24.148  1.00  0.00    -0.036 C 
ATOM     68  H   UNL A   1      37.631  21.803  23.527  1.00  0.00     0.028 H 
ATOM     69  H   UNL A   1      36.051  21.196  24.094  1.00  0.00     0.028 H 
BRANCH  67  70
ATOM     70  C   UNL A   1      37.248  22.034  25.599  1.00  0.00     0.018 C 
ATOM     71  H   UNL A   1      36.404  21.890  26.242  1.00  0.00     0.049 H 
ATOM     72  H   UNL A   1      37.700  22.989  25.766  1.00  0.00     0.049 H 
BRANCH  70  73
ATOM     73  N   UNL A   1      38.239  21.008  25.884  1.00  0.00    -0.352 N 
ATOM     74  C   UNL A   1      39.564  21.135  26.218  1.00  0.00     0.251 C 
ATOM     75  H   UNL A   1      37.908  20.083  25.831  1.00  0.00     0.163 HD
ATOM     76  O   UNL A   1      40.303  20.156  26.187  1.00  0.00    -0.269 OA
BRANCH  74  77
ATOM     77  C   UNL A   1      40.109  22.452  26.609  1.00  0.00     0.039 A 
ATOM     78  C   UNL A   1      41.084  22.511  27.607  1.00  0.00    -0.049 A 
ATOM     79  C   UNL A   1      39.637  23.627  26.017  1.00  0.00    -0.049 A 
ATOM     80  C   UNL A   1      41.633  23.744  27.968  1.00  0.00    -0.053 A 
ATOM     81  H   UNL A   1      41.400  21.647  28.075  1.00  0.00     0.063 H 
ATOM     82  C   UNL A   1      40.230  24.848  26.330  1.00  0.00    -0.053 A 
ATOM     83  H   UNL A   1      38.850  23.591  25.350  1.00  0.00     0.063 H 
ATOM     84  C   UNL A   1      41.234  24.917  27.308  1.00  0.00    -0.014 A 
ATOM     85  H   UNL A   1      42.333  23.792  28.724  1.00  0.00     0.063 H 
ATOM     86  H   UNL A   1      39.930  25.705  25.841  1.00  0.00     0.063 H 
BRANCH  84  87
ATOM     87  C   UNL A   1      41.868  26.224  27.615  1.00  0.00     0.031 A 
ATOM     88  C   UNL A   1      43.253  26.532  27.123  1.00  0.00     0.074 A 
ATOM     89  C   UNL A   1      41.216  27.105  28.398  1.00  0.00     0.049 A 
ATOM     90  N   UNL A   1      43.998  27.586  27.351  1.00  0.00    -0.248 NA
ATOM     91  C   UNL A   1      43.900  25.511  26.286  1.00  0.00    -0.034 C 
ATOM     92  C   UNL A   1      39.886  26.901  28.974  1.00  0.00    -0.036 A 
ATOM     93  N   UNL A   1      41.589  28.344  28.857  1.00  0.00    -0.354 N 
ATOM     94  C   UNL A   1      45.198  27.348  26.696  1.00  0.00     0.074 A 
ATOM     95  C   UNL A   1      45.105  26.031  26.105  1.00  0.00    -0.034 C 
ATOM     96  H   UNL A   1      43.514  24.621  25.930  1.00  0.00     0.065 H 
ATOM     97  C   UNL A   1      39.546  27.983  29.692  1.00  0.00    -0.036 A 
ATOM     98  H   UNL A   1      39.303  26.059  28.847  1.00  0.00     0.065 H 
ATOM     99  C   UNL A   1      40.648  28.940  29.661  1.00  0.00     0.049 A 
ATOM    100  H   UNL A   1      42.450  28.766  28.630  1.00  0.00     0.167 HD
ATOM    101  C   UNL A   1      46.273  28.166  26.581  1.00  0.00     0.037 A 
ATOM    102  H   UNL A   1      45.876  25.558  25.609  1.00  0.00     0.065 H 
ATOM    103  H   UNL A   1      38.650  28.117  30.186  1.00  0.00     0.065 H 
ATOM    104  C   UNL A   1      40.676  30.119  30.309  1.00  0.00     0.037 A 
ATOM    105  C   UNL A   1      46.352  29.485  27.154  1.00  0.00     0.049 A 
ATOM    106  C   UNL A   1      41.886  31.001  30.175  1.00  0.00     0.074 A 
ATOM    107  C   UNL A   1      47.371  30.416  27.039  1.00  0.00    -0.036 A 
ATOM    108  N   UNL A   1      45.375  30.058  27.954  1.00  0.00    -0.354 N 
ATOM    109  N   UNL A   1      42.989  30.797  29.496  1.00  0.00    -0.248 NA
ATOM    110  C   UNL A   1      41.856  32.281  30.896  1.00  0.00    -0.034 C 
ATOM    111  C   UNL A   1      47.033  31.531  27.811  1.00  0.00    -0.036 A 
ATOM    112  H   UNL A   1      48.231  30.305  26.480  1.00  0.00     0.065 H 
ATOM    113  C   UNL A   1      45.780  31.319  28.364  1.00  0.00     0.049 A 
ATOM    114  H   UNL A   1      44.521  29.633  28.195  1.00  0.00     0.167 HD
ATOM    115  C   UNL A   1      43.770  31.927  29.686  1.00  0.00     0.074 A 
ATOM    116  C   UNL A   1      43.008  32.824  30.530  1.00  0.00    -0.034 C 
ATOM    117  H   UNL A   1      41.128  32.659  31.523  1.00  0.00     0.065 H 
ATOM    118  H   UNL A   1      47.617  32.371  27.947  1.00  0.00     0.065 H 
ATOM    119  C   UNL A   1      45.009  32.199  29.206  1.00  0.00     0.037 A 
ATOM    120  H   UNL A   1      43.322  33.766  30.811  1.00  0.00     0.065 H 
BRANCH 101 121
ATOM    121  C   UNL A   1      47.454  27.658  25.804  1.00  0.00     0.064 A 
ATOM    122  C   UNL A   1      47.516  27.764  24.405  1.00  0.00     0.173 A 
ATOM    123  C   UNL A   1      48.555  27.095  26.466  1.00  0.00     0.173 A 
ATOM    124  F   UNL A   1      46.485  28.285  23.722  1.00  0.00    -0.203 F 
ATOM    125  C   UNL A   1      48.622  27.300  23.699  1.00  0.00     0.198 A 
ATOM    126  C   UNL A   1      49.673  26.660  25.760  1.00  0.00     0.198 A 
ATOM    127  F   UNL A   1      48.551  26.975  27.803  1.00  0.00    -0.203 F 
ATOM    128  F   UNL A   1      48.637  27.368  22.361  1.00  0.00    -0.200 F 
ATOM    129  C   UNL A   1      49.703  26.755  24.377  1.00  0.00     0.200 A 
ATOM    130  F   UNL A   1      50.722  26.148  26.418  1.00  0.00    -0.200 F 
ATOM    131  F   UNL A   1      50.770  26.317  23.696  1.00  0.00    -0.200 F 
ENDBRANCH 101 121
BRANCH 104 132
ATOM    132  C   UNL A   1      39.511  30.541  31.130  1.00  0.00     0.064 A 
ATOM    133  C   UNL A   1      39.285  29.987  32.397  1.00  0.00     0.173 A 
ATOM    134  C   UNL A   1      38.599  31.501  30.666  1.00  0.00     0.173 A 
ATOM    135  F   UNL A   1      40.118  29.050  32.876  1.00  0.00    -0.203 F 
ATOM    136  C   UNL A   1      38.183  30.361  33.162  1.00  0.00     0.198 A 
ATOM    137  C   UNL A   1      37.513  31.897  31.443  1.00  0.00     0.198 A 
ATOM    138  F   UNL A   1      38.772  32.067  29.462  1.00  0.00    -0.203 F 
ATOM    139  F   UNL A   1      37.967  29.782  34.350  1.00  0.00    -0.200 F 
ATOM    140  C   UNL A   1      37.300  31.321  32.687  1.00  0.00     0.200 A 
ATOM    141  F   UNL A   1      36.673  32.836  30.989  1.00  0.00    -0.200 F 
ATOM    142  F   UNL A   1      36.243  31.685  33.424  1.00  0.00    -0.200 F 
ENDBRANCH 104 132
BRANCH 119 143
ATOM    143  C   UNL A   1      45.608  33.527  29.566  1.00  0.00     0.064 A 
ATOM    144  C   UNL A   1      45.388  34.670  28.782  1.00  0.00     0.173 A 
ATOM    145  C   UNL A   1      46.383  33.667  30.727  1.00  0.00     0.173 A 
ATOM    146  F   UNL A   1      44.669  34.584  27.653  1.00  0.00    -0.203 F 
ATOM    147  C   UNL A   1      45.944  35.897  29.133  1.00  0.00     0.198 A 
ATOM    148  C   UNL A   1      46.911  34.903  31.092  1.00  0.00     0.198 A 
ATOM    149  F   UNL A   1      46.618  32.608  31.516  1.00  0.00    -0.203 F 
ATOM    150  F   UNL A   1      45.763  36.963  28.341  1.00  0.00    -0.200 F 
ATOM    151  C   UNL A   1      46.698  36.014  30.291  1.00  0.00     0.200 A 
ATOM    152  F   UNL A   1      47.627  35.016  32.219  1.00  0.00    -0.200 F 
ATOM    153  F   UNL A   1      47.227  37.197  30.631  1.00  0.00    -0.200 F 
ENDBRANCH 119 143
ENDBRANCH  84  87
ENDBRANCH  74  77
ENDBRANCH  70  73
ENDBRANCH  67  70
ENDBRANCH  64  67
ENDBRANCH  61  64
ENDBRANCH  58  61
ENDBRANCH  55  58
ENDBRANCH   3  55
TORSDOF 24
ENDMDL
MODEL 7
REMARK VINA RESULT:     -11.0      5.219     10.811
REMARK SMILES CCCCCCOC(=O)Nc1cccc(-c2ccc([C@@H](C)C(=O)NCCCCCCNC(=O)c3ccc(-c4c5nc(c(-c6c(F)c(F)c(F)c(F)c6F)c6ccc([nH]6)c(-c6c(F)c(F)c(F)c(F)c6F)c6nc(c(-c7c(F)c(F)c(F)c(F)c7F)c7ccc4[nH]7)C=C6)C=C5)cc3)cc2F)c1
REMARK SMILES IDX 22 1 23 2 24 3 20 5 19 7 16 8 17 9 98 10 18 11 97 13 99 14
REMARK SMILES IDX 15 17 11 18 12 19 100 20 13 21 14 24 10 27 8 28 9 29 7 31
REMARK SMILES IDX 6 32 5 35 4 38 3 41 2 44 1 47 21 51 25 55 26 58 27 61 28 64
REMARK SMILES IDX 29 67 30 70 31 73 32 74 33 76 34 77 35 78 96 79 36 80 95 82
REMARK SMILES IDX 37 84 38 87 39 88 89 89 40 90 94 91 88 92 90 93 41 94 93 95
REMARK SMILES IDX 87 97 86 99 42 101 74 104 54 105 73 106 55 107 58 108 72 109
REMARK SMILES IDX 91 110 56 111 57 113 71 115 92 116 59 119 43 121 44 122
REMARK SMILES IDX 52 123 45 124 46 125 50 126 53 127 47 128 48 129 51 130
REMARK SMILES IDX 49 131 75 132 76 133 84 134 77 135 78 136 82 137 85 138
REMARK SMILES IDX 79 139 80 140 83 141 81 142 60 143 61 144 69 145 62 146
REMARK SMILES IDX 63 147 67 148 70 149 64 150 65 151 68 152 66 153
REMARK H PARENT 24 4 20 6 17 12 18 15 97 16 12 22 100 23 13 25 14 26 10 30
REMARK H PARENT 6 33 6 34 5 36 5 37 4 39 4 40 3 42 3 43 2 45 2 46 1 48 1 49
REMARK H PARENT 1 50 21 52 21 53 21 54 25 56 25 57 26 59 26 60 27 62 27 63
REMARK H PARENT 28 65 28 66 29 68 29 69 30 71 30 72 31 75 35 81 96 83 36 85
REMARK H PARENT 95 86 94 96 88 98 90 100 93 102 87 103 55 112 58 114 91 117
REMARK H PARENT 56 118 92 120
REMARK Flexibility Score: inf
ROOT
ATOM      1  C   UNL A   1      34.564  18.153  24.547  1.00  0.00     0.227 C 
ATOM      2  O   UNL A   1      34.842  17.080  23.998  1.00  0.00    -0.274 OA
ATOM      3  N   UNL A   1      35.587  19.037  24.700  1.00  0.00    -0.356 N 
ATOM      4  H   UNL A   1      36.430  18.756  24.277  1.00  0.00     0.163 HD
ENDROOT
BRANCH   1   5
ATOM      5  C   UNL A   1      33.122  18.432  24.998  1.00  0.00     0.060 C 
ATOM      6  H   UNL A   1      33.168  18.538  26.062  1.00  0.00     0.045 H 
BRANCH   5   7
ATOM      7  C   UNL A   1      32.590  19.782  24.542  1.00  0.00    -0.033 A 
ATOM      8  C   UNL A   1      31.745  22.410  23.799  1.00  0.00     0.018 A 
ATOM      9  C   UNL A   1      32.150  21.474  22.838  1.00  0.00    -0.051 A 
ATOM     10  C   UNL A   1      31.719  21.972  25.134  1.00  0.00     0.131 A 
ATOM     11  C   UNL A   1      32.534  20.176  23.199  1.00  0.00    -0.057 A 
ATOM     12  H   UNL A   1      32.166  21.748  21.843  1.00  0.00     0.063 H 
ATOM     13  C   UNL A   1      32.151  20.699  25.505  1.00  0.00    -0.022 A 
ATOM     14  F   UNL A   1      31.277  22.783  26.109  1.00  0.00    -0.206 F 
ATOM     15  H   UNL A   1      32.781  19.498  22.462  1.00  0.00     0.063 H 
ATOM     16  H   UNL A   1      32.148  20.429  26.501  1.00  0.00     0.066 H 
BRANCH   8  17
ATOM     17  C   UNL A   1      31.398  23.795  23.418  1.00  0.00    -0.013 A 
ATOM     18  C   UNL A   1      32.024  25.900  22.334  1.00  0.00     0.045 A 
ATOM     19  C   UNL A   1      30.834  26.485  22.753  1.00  0.00    -0.038 A 
ATOM     20  C   UNL A   1      32.291  24.566  22.659  1.00  0.00    -0.030 A 
ATOM     21  C   UNL A   1      29.900  25.722  23.452  1.00  0.00    -0.060 A 
ATOM     22  H   UNL A   1      30.643  27.478  22.547  1.00  0.00     0.064 H 
ATOM     23  H   UNL A   1      33.171  24.137  22.331  1.00  0.00     0.065 H 
ATOM     24  C   UNL A   1      30.183  24.394  23.789  1.00  0.00    -0.054 A 
ATOM     25  H   UNL A   1      28.996  26.140  23.724  1.00  0.00     0.062 H 
ATOM     26  H   UNL A   1      29.488  23.846  24.317  1.00  0.00     0.063 H 
BRANCH  18  27
ATOM     27  N   UNL A   1      32.979  26.691  21.684  1.00  0.00    -0.291 N 
ATOM     28  C   UNL A   1      33.770  27.657  22.252  1.00  0.00     0.411 C 
ATOM     29  O   UNL A   1      34.214  28.583  21.596  1.00  0.00    -0.224 OA
ATOM     30  H   UNL A   1      33.095  26.539  20.718  1.00  0.00     0.173 HD
BRANCH  28  31
ATOM     31  O   UNL A   1      34.083  27.380  23.546  1.00  0.00    -0.449 OA
BRANCH  31  32
ATOM     32  C   UNL A   1      34.044  28.447  24.504  1.00  0.00     0.093 C 
ATOM     33  H   UNL A   1      35.003  28.922  24.531  1.00  0.00     0.071 H 
ATOM     34  H   UNL A   1      33.281  29.133  24.203  1.00  0.00     0.071 H 
BRANCH  32  35
ATOM     35  C   UNL A   1      33.700  27.948  25.911  1.00  0.00    -0.019 C 
ATOM     36  H   UNL A   1      34.507  27.334  26.250  1.00  0.00     0.030 H 
ATOM     37  H   UNL A   1      33.545  28.826  26.503  1.00  0.00     0.030 H 
BRANCH  35  38
ATOM     38  C   UNL A   1      32.406  27.131  26.026  1.00  0.00    -0.050 C 
ATOM     39  H   UNL A   1      31.814  27.557  26.809  1.00  0.00     0.027 H 
ATOM     40  H   UNL A   1      31.936  27.177  25.067  1.00  0.00     0.027 H 
BRANCH  38  41
ATOM     41  C   UNL A   1      32.607  25.642  26.337  1.00  0.00    -0.053 C 
ATOM     42  H   UNL A   1      32.732  25.537  27.394  1.00  0.00     0.027 H 
ATOM     43  H   UNL A   1      31.742  25.138  25.960  1.00  0.00     0.027 H 
BRANCH  41  44
ATOM     44  C   UNL A   1      33.811  24.999  25.651  1.00  0.00    -0.056 C 
ATOM     45  H   UNL A   1      33.483  24.542  24.741  1.00  0.00     0.026 H 
ATOM     46  H   UNL A   1      34.531  25.770  25.468  1.00  0.00     0.026 H 
BRANCH  44  47
ATOM     47  C   UNL A   1      34.480  23.942  26.514  1.00  0.00    -0.065 C 
ATOM     48  H   UNL A   1      35.415  24.317  26.877  1.00  0.00     0.023 H 
ATOM     49  H   UNL A   1      34.652  23.062  25.930  1.00  0.00     0.023 H 
ATOM     50  H   UNL A   1      33.846  23.703  27.341  1.00  0.00     0.023 H 
ENDBRANCH  44  47
ENDBRANCH  41  44
ENDBRANCH  38  41
ENDBRANCH  35  38
ENDBRANCH  32  35
ENDBRANCH  31  32
ENDBRANCH  28  31
ENDBRANCH  18  27
ENDBRANCH   8  17
ENDBRANCH   5   7
BRANCH   5  51
ATOM     51  C   UNL A   1      32.176  17.245  24.820  1.00  0.00    -0.049 C 
ATOM     52  H   UNL A   1      32.599  16.554  24.120  1.00  0.00     0.024 H 
ATOM     53  H   UNL A   1      31.233  17.592  24.452  1.00  0.00     0.024 H 
ATOM     54  H   UNL A   1      32.034  16.758  25.761  1.00  0.00     0.024 H 
ENDBRANCH   5  51
ENDBRANCH   1   5
BRANCH   3  55
ATOM     55  C   UNL A   1      35.656  20.315  25.373  1.00  0.00     0.017 C 
ATOM     56  H   UNL A   1      36.458  20.291  26.082  1.00  0.00     0.049 H 
ATOM     57  H   UNL A   1      34.719  20.486  25.861  1.00  0.00     0.049 H 
BRANCH  55  58
ATOM     58  C   UNL A   1      35.898  21.461  24.388  1.00  0.00    -0.036 C 
ATOM     59  H   UNL A   1      35.355  22.318  24.727  1.00  0.00     0.028 H 
ATOM     60  H   UNL A   1      35.569  21.123  23.428  1.00  0.00     0.028 H 
BRANCH  58  61
ATOM     61  C   UNL A   1      37.374  21.849  24.247  1.00  0.00    -0.052 C 
ATOM     62  H   UNL A   1      37.430  22.914  24.166  1.00  0.00     0.027 H 
ATOM     63  H   UNL A   1      37.736  21.338  23.380  1.00  0.00     0.027 H 
BRANCH  61  64
ATOM     64  C   UNL A   1      38.273  21.410  25.411  1.00  0.00    -0.052 C 
ATOM     65  H   UNL A   1      37.651  21.245  26.265  1.00  0.00     0.027 H 
ATOM     66  H   UNL A   1      38.987  22.196  25.543  1.00  0.00     0.027 H 
BRANCH  64  67
ATOM     67  C   UNL A   1      39.089  20.137  25.168  1.00  0.00    -0.036 C 
ATOM     68  H   UNL A   1      39.875  20.371  24.481  1.00  0.00     0.028 H 
ATOM     69  H   UNL A   1      38.405  19.407  24.790  1.00  0.00     0.028 H 
BRANCH  67  70
ATOM     70  C   UNL A   1      39.716  19.534  26.422  1.00  0.00     0.018 C 
ATOM     71  H   UNL A   1      39.027  18.835  26.852  1.00  0.00     0.049 H 
ATOM     72  H   UNL A   1      39.929  20.331  27.104  1.00  0.00     0.049 H 
BRANCH  70  73
ATOM     73  N   UNL A   1      40.962  18.846  26.126  1.00  0.00    -0.352 N 
ATOM     74  C   UNL A   1      42.216  19.356  25.901  1.00  0.00     0.251 C 
ATOM     75  H   UNL A   1      40.897  17.865  26.081  1.00  0.00     0.163 HD
ATOM     76  O   UNL A   1      43.096  18.643  25.429  1.00  0.00    -0.269 OA
BRANCH  74  77
ATOM     77  C   UNL A   1      42.510  20.770  26.218  1.00  0.00     0.039 A 
ATOM     78  C   UNL A   1      42.710  21.136  27.551  1.00  0.00    -0.049 A 
ATOM     79  C   UNL A   1      42.556  21.736  25.208  1.00  0.00    -0.049 A 
ATOM     80  C   UNL A   1      43.019  22.462  27.866  1.00  0.00    -0.053 A 
ATOM     81  H   UNL A   1      42.631  20.431  28.300  1.00  0.00     0.063 H 
ATOM     82  C   UNL A   1      42.929  23.042  25.515  1.00  0.00    -0.053 A 
ATOM     83  H   UNL A   1      42.315  21.482  24.238  1.00  0.00     0.063 H 
ATOM     84  C   UNL A   1      43.165  23.417  26.847  1.00  0.00    -0.014 A 
ATOM     85  H   UNL A   1      43.140  22.740  28.852  1.00  0.00     0.063 H 
ATOM     86  H   UNL A   1      43.032  23.738  24.760  1.00  0.00     0.063 H 
BRANCH  84  87
ATOM     87  C   UNL A   1      43.579  24.810  27.153  1.00  0.00     0.031 A 
ATOM     88  C   UNL A   1      42.592  25.790  27.720  1.00  0.00     0.074 A 
ATOM     89  C   UNL A   1      44.830  25.207  26.853  1.00  0.00     0.049 A 
ATOM     90  N   UNL A   1      42.747  27.063  27.983  1.00  0.00    -0.248 NA
ATOM     91  C   UNL A   1      41.243  25.278  28.007  1.00  0.00    -0.034 C 
ATOM     92  C   UNL A   1      45.864  24.361  26.256  1.00  0.00    -0.036 A 
ATOM     93  N   UNL A   1      45.442  26.427  26.995  1.00  0.00    -0.354 N 
ATOM     94  C   UNL A   1      41.518  27.504  28.454  1.00  0.00     0.074 A 
ATOM     95  C   UNL A   1      40.612  26.378  28.393  1.00  0.00    -0.034 C 
ATOM     96  H   UNL A   1      40.883  24.314  27.929  1.00  0.00     0.065 H 
ATOM     97  C   UNL A   1      46.987  25.080  26.101  1.00  0.00    -0.036 A 
ATOM     98  H   UNL A   1      45.749  23.368  25.996  1.00  0.00     0.065 H 
ATOM     99  C   UNL A   1      46.742  26.447  26.549  1.00  0.00     0.049 A 
ATOM    100  H   UNL A   1      44.992  27.214  27.380  1.00  0.00     0.167 HD
ATOM    101  C   UNL A   1      41.182  28.733  28.915  1.00  0.00     0.037 A 
ATOM    102  H   UNL A   1      39.607  26.425  28.619  1.00  0.00     0.065 H 
ATOM    103  H   UNL A   1      47.880  24.724  25.725  1.00  0.00     0.065 H 
ATOM    104  C   UNL A   1      47.630  27.457  26.498  1.00  0.00     0.037 A 
ATOM    105  C   UNL A   1      42.094  29.845  28.993  1.00  0.00     0.049 A 
ATOM    106  C   UNL A   1      47.228  28.814  27.004  1.00  0.00     0.074 A 
ATOM    107  C   UNL A   1      41.868  31.112  29.505  1.00  0.00    -0.036 A 
ATOM    108  N   UNL A   1      43.405  29.825  28.542  1.00  0.00    -0.354 N 
ATOM    109  N   UNL A   1      46.083  29.203  27.512  1.00  0.00    -0.248 NA
ATOM    110  C   UNL A   1      48.242  29.875  26.933  1.00  0.00    -0.034 C 
ATOM    111  C   UNL A   1      43.027  31.873  29.317  1.00  0.00    -0.036 A 
ATOM    112  H   UNL A   1      40.995  31.438  29.949  1.00  0.00     0.065 H 
ATOM    113  C   UNL A   1      43.992  31.066  28.737  1.00  0.00     0.049 A 
ATOM    114  H   UNL A   1      43.853  29.045  28.141  1.00  0.00     0.167 HD
ATOM    115  C   UNL A   1      46.246  30.540  27.842  1.00  0.00     0.074 A 
ATOM    116  C   UNL A   1      47.607  30.893  27.495  1.00  0.00    -0.034 C 
ATOM    117  H   UNL A   1      49.198  29.837  26.547  1.00  0.00     0.065 H 
ATOM    118  H   UNL A   1      43.143  32.867  29.568  1.00  0.00     0.065 H 
ATOM    119  C   UNL A   1      45.348  31.401  28.384  1.00  0.00     0.037 A 
ATOM    120  H   UNL A   1      48.029  31.820  27.663  1.00  0.00     0.065 H 
BRANCH 101 121
ATOM    121  C   UNL A   1      39.767  28.942  29.374  1.00  0.00     0.064 A 
ATOM    122  C   UNL A   1      39.378  28.693  30.700  1.00  0.00     0.173 A 
ATOM    123  C   UNL A   1      38.797  29.437  28.490  1.00  0.00     0.173 A 
ATOM    124  F   UNL A   1      40.265  28.209  31.583  1.00  0.00    -0.203 F 
ATOM    125  C   UNL A   1      38.066  28.903  31.114  1.00  0.00     0.198 A 
ATOM    126  C   UNL A   1      37.493  29.676  28.915  1.00  0.00     0.198 A 
ATOM    127  F   UNL A   1      39.116  29.699  27.213  1.00  0.00    -0.203 F 
ATOM    128  F   UNL A   1      37.707  28.611  32.371  1.00  0.00    -0.200 F 
ATOM    129  C   UNL A   1      37.126  29.401  30.224  1.00  0.00     0.200 A 
ATOM    130  F   UNL A   1      36.590  30.170  28.057  1.00  0.00    -0.200 F 
ATOM    131  F   UNL A   1      35.865  29.610  30.626  1.00  0.00    -0.200 F 
ENDBRANCH 101 121
BRANCH 104 132
ATOM    132  C   UNL A   1      48.995  27.216  25.962  1.00  0.00     0.064 A 
ATOM    133  C   UNL A   1      49.261  27.335  24.590  1.00  0.00     0.173 A 
ATOM    134  C   UNL A   1      50.058  26.859  26.803  1.00  0.00     0.173 A 
ATOM    135  F   UNL A   1      48.271  27.655  23.742  1.00  0.00    -0.203 F 
ATOM    136  C   UNL A   1      50.533  27.089  24.079  1.00  0.00     0.198 A 
ATOM    137  C   UNL A   1      51.337  26.641  26.295  1.00  0.00     0.198 A 
ATOM    138  F   UNL A   1      49.859  26.736  28.124  1.00  0.00    -0.203 F 
ATOM    139  F   UNL A   1      50.747  27.166  22.759  1.00  0.00    -0.200 F 
ATOM    140  C   UNL A   1      51.572  26.747  24.932  1.00  0.00     0.200 A 
ATOM    141  F   UNL A   1      52.341  26.328  27.124  1.00  0.00    -0.200 F 
ATOM    142  F   UNL A   1      52.796  26.516  24.441  1.00  0.00    -0.200 F 
ENDBRANCH 104 132
BRANCH 119 143
ATOM    143  C   UNL A   1      45.818  32.801  28.653  1.00  0.00     0.064 A 
ATOM    144  C   UNL A   1      46.450  33.147  29.857  1.00  0.00     0.173 A 
ATOM    145  C   UNL A   1      45.663  33.802  27.682  1.00  0.00     0.173 A 
ATOM    146  F   UNL A   1      46.606  32.230  30.823  1.00  0.00    -0.203 F 
ATOM    147  C   UNL A   1      46.887  34.448  30.088  1.00  0.00     0.198 A 
ATOM    148  C   UNL A   1      46.129  35.095  27.904  1.00  0.00     0.198 A 
ATOM    149  F   UNL A   1      45.070  33.524  26.511  1.00  0.00    -0.203 F 
ATOM    150  F   UNL A   1      47.442  34.767  31.266  1.00  0.00    -0.200 F 
ATOM    151  C   UNL A   1      46.732  35.419  29.110  1.00  0.00     0.200 A 
ATOM    152  F   UNL A   1      45.992  36.028  26.952  1.00  0.00    -0.200 F 
ATOM    153  F   UNL A   1      47.159  36.669  29.332  1.00  0.00    -0.200 F 
ENDBRANCH 119 143
ENDBRANCH  84  87
ENDBRANCH  74  77
ENDBRANCH  70  73
ENDBRANCH  67  70
ENDBRANCH  64  67
ENDBRANCH  61  64
ENDBRANCH  58  61
ENDBRANCH  55  58
ENDBRANCH   3  55
TORSDOF 24
ENDMDL
MODEL 8
REMARK VINA RESULT:     -11.0      3.922      8.768
REMARK SMILES CCCCCCOC(=O)Nc1cccc(-c2ccc([C@@H](C)C(=O)NCCCCCCNC(=O)c3ccc(-c4c5nc(c(-c6c(F)c(F)c(F)c(F)c6F)c6ccc([nH]6)c(-c6c(F)c(F)c(F)c(F)c6F)c6nc(c(-c7c(F)c(F)c(F)c(F)c7F)c7ccc4[nH]7)C=C6)C=C5)cc3)cc2F)c1
REMARK SMILES IDX 22 1 23 2 24 3 20 5 19 7 16 8 17 9 98 10 18 11 97 13 99 14
REMARK SMILES IDX 15 17 11 18 12 19 100 20 13 21 14 24 10 27 8 28 9 29 7 31
REMARK SMILES IDX 6 32 5 35 4 38 3 41 2 44 1 47 21 51 25 55 26 58 27 61 28 64
REMARK SMILES IDX 29 67 30 70 31 73 32 74 33 76 34 77 35 78 96 79 36 80 95 82
REMARK SMILES IDX 37 84 38 87 39 88 89 89 40 90 94 91 88 92 90 93 41 94 93 95
REMARK SMILES IDX 87 97 86 99 42 101 74 104 54 105 73 106 55 107 58 108 72 109
REMARK SMILES IDX 91 110 56 111 57 113 71 115 92 116 59 119 43 121 44 122
REMARK SMILES IDX 52 123 45 124 46 125 50 126 53 127 47 128 48 129 51 130
REMARK SMILES IDX 49 131 75 132 76 133 84 134 77 135 78 136 82 137 85 138
REMARK SMILES IDX 79 139 80 140 83 141 81 142 60 143 61 144 69 145 62 146
REMARK SMILES IDX 63 147 67 148 70 149 64 150 65 151 68 152 66 153
REMARK H PARENT 24 4 20 6 17 12 18 15 97 16 12 22 100 23 13 25 14 26 10 30
REMARK H PARENT 6 33 6 34 5 36 5 37 4 39 4 40 3 42 3 43 2 45 2 46 1 48 1 49
REMARK H PARENT 1 50 21 52 21 53 21 54 25 56 25 57 26 59 26 60 27 62 27 63
REMARK H PARENT 28 65 28 66 29 68 29 69 30 71 30 72 31 75 35 81 96 83 36 85
REMARK H PARENT 95 86 94 96 88 98 90 100 93 102 87 103 55 112 58 114 91 117
REMARK H PARENT 56 118 92 120
REMARK Flexibility Score: inf
ROOT
ATOM      1  C   UNL A   1      28.345  31.320  23.544  1.00  0.00     0.227 C 
ATOM      2  O   UNL A   1      27.133  31.546  23.646  1.00  0.00    -0.274 OA
ATOM      3  N   UNL A   1      29.129  31.752  24.568  1.00  0.00    -0.356 N 
ATOM      4  H   UNL A   1      28.630  32.129  25.328  1.00  0.00     0.163 HD
ENDROOT
BRANCH   1   5
ATOM      5  C   UNL A   1      28.884  30.573  22.315  1.00  0.00     0.060 C 
ATOM      6  H   UNL A   1      29.819  31.038  22.081  1.00  0.00     0.045 H 
BRANCH   5   7
ATOM      7  C   UNL A   1      29.278  29.132  22.600  1.00  0.00    -0.033 A 
ATOM      8  C   UNL A   1      30.179  26.500  23.257  1.00  0.00     0.018 A 
ATOM      9  C   UNL A   1      28.891  26.936  23.594  1.00  0.00    -0.051 A 
ATOM     10  C   UNL A   1      30.980  27.398  22.531  1.00  0.00     0.131 A 
ATOM     11  C   UNL A   1      28.439  28.215  23.244  1.00  0.00    -0.057 A 
ATOM     12  H   UNL A   1      28.263  26.301  24.111  1.00  0.00     0.063 H 
ATOM     13  C   UNL A   1      30.554  28.692  22.227  1.00  0.00    -0.022 A 
ATOM     14  F   UNL A   1      32.201  27.035  22.108  1.00  0.00    -0.206 F 
ATOM     15  H   UNL A   1      27.469  28.486  23.466  1.00  0.00     0.063 H 
ATOM     16  H   UNL A   1      31.186  29.331  21.721  1.00  0.00     0.066 H 
BRANCH   8  17
ATOM     17  C   UNL A   1      30.672  25.173  23.679  1.00  0.00    -0.013 A 
ATOM     18  C   UNL A   1      31.343  23.651  25.477  1.00  0.00     0.045 A 
ATOM     19  C   UNL A   1      31.712  22.689  24.543  1.00  0.00    -0.038 A 
ATOM     20  C   UNL A   1      30.821  24.874  25.042  1.00  0.00    -0.030 A 
ATOM     21  C   UNL A   1      31.513  22.935  23.186  1.00  0.00    -0.060 A 
ATOM     22  H   UNL A   1      32.129  21.797  24.853  1.00  0.00     0.064 H 
ATOM     23  H   UNL A   1      30.538  25.576  25.744  1.00  0.00     0.065 H 
ATOM     24  C   UNL A   1      31.006  24.167  22.758  1.00  0.00    -0.054 A 
ATOM     25  H   UNL A   1      31.741  22.204  22.493  1.00  0.00     0.062 H 
ATOM     26  H   UNL A   1      30.876  24.339  21.750  1.00  0.00     0.063 H 
BRANCH  18  27
ATOM     27  N   UNL A   1      31.602  23.416  26.834  1.00  0.00    -0.291 N 
ATOM     28  C   UNL A   1      32.827  23.196  27.410  1.00  0.00     0.411 C 
ATOM     29  O   UNL A   1      32.937  22.567  28.448  1.00  0.00    -0.224 OA
ATOM     30  H   UNL A   1      30.823  23.407  27.436  1.00  0.00     0.173 HD
BRANCH  28  31
ATOM     31  O   UNL A   1      33.829  23.856  26.771  1.00  0.00    -0.449 OA
BRANCH  31  32
ATOM     32  C   UNL A   1      34.952  23.100  26.294  1.00  0.00     0.093 C 
ATOM     33  H   UNL A   1      35.735  23.148  27.021  1.00  0.00     0.071 H 
ATOM     34  H   UNL A   1      34.628  22.092  26.139  1.00  0.00     0.071 H 
BRANCH  32  35
ATOM     35  C   UNL A   1      35.482  23.634  24.959  1.00  0.00    -0.019 C 
ATOM     36  H   UNL A   1      34.679  23.615  24.254  1.00  0.00     0.030 H 
ATOM     37  H   UNL A   1      35.854  24.616  25.165  1.00  0.00     0.030 H 
BRANCH  35  38
ATOM     38  C   UNL A   1      36.659  22.858  24.355  1.00  0.00    -0.050 C 
ATOM     39  H   UNL A   1      36.392  22.574  23.359  1.00  0.00     0.027 H 
ATOM     40  H   UNL A   1      37.504  23.512  24.397  1.00  0.00     0.027 H 
BRANCH  38  41
ATOM     41  C   UNL A   1      37.059  21.590  25.122  1.00  0.00    -0.053 C 
ATOM     42  H   UNL A   1      36.426  21.507  25.980  1.00  0.00     0.027 H 
ATOM     43  H   UNL A   1      36.949  20.777  24.434  1.00  0.00     0.027 H 
BRANCH  41  44
ATOM     44  C   UNL A   1      38.510  21.557  25.597  1.00  0.00    -0.056 C 
ATOM     45  H   UNL A   1      38.632  20.731  26.267  1.00  0.00     0.026 H 
ATOM     46  H   UNL A   1      39.133  21.460  24.733  1.00  0.00     0.026 H 
BRANCH  44  47
ATOM     47  C   UNL A   1      38.918  22.831  26.317  1.00  0.00    -0.065 C 
ATOM     48  H   UNL A   1      38.051  23.433  26.497  1.00  0.00     0.023 H 
ATOM     49  H   UNL A   1      39.610  23.377  25.710  1.00  0.00     0.023 H 
ATOM     50  H   UNL A   1      39.380  22.582  27.249  1.00  0.00     0.023 H 
ENDBRANCH  44  47
ENDBRANCH  41  44
ENDBRANCH  38  41
ENDBRANCH  35  38
ENDBRANCH  32  35
ENDBRANCH  31  32
ENDBRANCH  28  31
ENDBRANCH  18  27
ENDBRANCH   8  17
ENDBRANCH   5   7
BRANCH   5  51
ATOM     51  C   UNL A   1      28.069  30.804  21.043  1.00  0.00    -0.049 C 
ATOM     52  H   UNL A   1      28.166  31.826  20.737  1.00  0.00     0.024 H 
ATOM     53  H   UNL A   1      27.040  30.585  21.234  1.00  0.00     0.024 H 
ATOM     54  H   UNL A   1      28.431  30.164  20.266  1.00  0.00     0.024 H 
ENDBRANCH   5  51
ENDBRANCH   1   5
BRANCH   3  55
ATOM     55  C   UNL A   1      30.565  31.756  24.739  1.00  0.00     0.017 C 
ATOM     56  H   UNL A   1      30.897  32.766  24.863  1.00  0.00     0.049 H 
ATOM     57  H   UNL A   1      31.006  31.312  23.871  1.00  0.00     0.049 H 
BRANCH  55  58
ATOM     58  C   UNL A   1      30.991  30.941  25.962  1.00  0.00    -0.036 C 
ATOM     59  H   UNL A   1      30.174  30.916  26.653  1.00  0.00     0.028 H 
ATOM     60  H   UNL A   1      31.856  31.419  26.372  1.00  0.00     0.028 H 
BRANCH  58  61
ATOM     61  C   UNL A   1      31.390  29.499  25.632  1.00  0.00    -0.052 C 
ATOM     62  H   UNL A   1      32.260  29.529  25.010  1.00  0.00     0.027 H 
ATOM     63  H   UNL A   1      30.542  29.055  25.155  1.00  0.00     0.027 H 
BRANCH  61  64
ATOM     64  C   UNL A   1      31.706  28.620  26.850  1.00  0.00    -0.052 C 
ATOM     65  H   UNL A   1      30.909  27.916  26.965  1.00  0.00     0.027 H 
ATOM     66  H   UNL A   1      31.810  29.290  27.678  1.00  0.00     0.027 H 
BRANCH  64  67
ATOM     67  C   UNL A   1      33.020  27.838  26.774  1.00  0.00    -0.036 C 
ATOM     68  H   UNL A   1      32.966  27.176  25.935  1.00  0.00     0.028 H 
ATOM     69  H   UNL A   1      33.122  27.325  27.707  1.00  0.00     0.028 H 
BRANCH  67  70
ATOM     70  C   UNL A   1      34.268  28.704  26.619  1.00  0.00     0.018 C 
ATOM     71  H   UNL A   1      34.448  28.868  25.576  1.00  0.00     0.049 H 
ATOM     72  H   UNL A   1      35.089  28.189  27.073  1.00  0.00     0.049 H 
BRANCH  70  73
ATOM     73  N   UNL A   1      34.117  29.990  27.280  1.00  0.00    -0.352 N 
ATOM     74  C   UNL A   1      34.923  30.602  28.207  1.00  0.00     0.251 C 
ATOM     75  H   UNL A   1      33.316  30.500  27.022  1.00  0.00     0.163 HD
ATOM     76  O   UNL A   1      34.515  31.576  28.832  1.00  0.00    -0.269 OA
BRANCH  74  77
ATOM     77  C   UNL A   1      36.284  30.086  28.464  1.00  0.00     0.039 A 
ATOM     78  C   UNL A   1      37.256  30.217  27.469  1.00  0.00    -0.049 A 
ATOM     79  C   UNL A   1      36.592  29.445  29.668  1.00  0.00    -0.049 A 
ATOM     80  C   UNL A   1      38.555  29.762  27.706  1.00  0.00    -0.053 A 
ATOM     81  H   UNL A   1      37.016  30.649  26.563  1.00  0.00     0.063 H 
ATOM     82  C   UNL A   1      37.903  29.052  29.928  1.00  0.00    -0.053 A 
ATOM     83  H   UNL A   1      35.851  29.264  30.362  1.00  0.00     0.063 H 
ATOM     84  C   UNL A   1      38.897  29.208  28.950  1.00  0.00    -0.014 A 
ATOM     85  H   UNL A   1      39.267  29.834  26.962  1.00  0.00     0.063 H 
ATOM     86  H   UNL A   1      38.144  28.645  30.845  1.00  0.00     0.063 H 
BRANCH  84  87
ATOM     87  C   UNL A   1      40.292  28.800  29.252  1.00  0.00     0.031 A 
ATOM     88  C   UNL A   1      41.208  29.723  30.004  1.00  0.00     0.074 A 
ATOM     89  C   UNL A   1      40.750  27.622  28.786  1.00  0.00     0.049 A 
ATOM     90  N   UNL A   1      42.476  29.573  30.298  1.00  0.00    -0.248 NA
ATOM     91  C   UNL A   1      40.632  30.994  30.467  1.00  0.00    -0.034 C 
ATOM     92  C   UNL A   1      39.971  26.662  28.004  1.00  0.00    -0.036 A 
ATOM     93  N   UNL A   1      41.988  27.038  28.889  1.00  0.00    -0.354 N 
ATOM     94  C   UNL A   1      42.849  30.731  30.966  1.00  0.00     0.074 A 
ATOM     95  C   UNL A   1      41.689  31.596  30.991  1.00  0.00    -0.034 C 
ATOM     96  H   UNL A   1      39.658  31.329  30.401  1.00  0.00     0.065 H 
ATOM     97  C   UNL A   1      40.740  25.601  27.715  1.00  0.00    -0.036 A 
ATOM     98  H   UNL A   1      38.985  26.782  27.720  1.00  0.00     0.065 H 
ATOM     99  C   UNL A   1      42.078  25.822  28.255  1.00  0.00     0.049 A 
ATOM    100  H   UNL A   1      42.741  27.451  29.372  1.00  0.00     0.167 HD
ATOM    101  C   UNL A   1      44.044  31.034  31.527  1.00  0.00     0.037 A 
ATOM    102  H   UNL A   1      41.687  32.557  31.368  1.00  0.00     0.065 H 
ATOM    103  H   UNL A   1      40.435  24.764  27.195  1.00  0.00     0.065 H 
ATOM    104  C   UNL A   1      43.124  24.987  28.117  1.00  0.00     0.037 A 
ATOM    105  C   UNL A   1      45.188  30.160  31.517  1.00  0.00     0.049 A 
ATOM    106  C   UNL A   1      44.443  25.354  28.737  1.00  0.00     0.074 A 
ATOM    107  C   UNL A   1      46.424  30.348  32.112  1.00  0.00    -0.036 A 
ATOM    108  N   UNL A   1      45.239  28.932  30.873  1.00  0.00    -0.354 N 
ATOM    109  N   UNL A   1      44.765  26.422  29.427  1.00  0.00    -0.248 NA
ATOM    110  C   UNL A   1      45.546  24.399  28.562  1.00  0.00    -0.034 C 
ATOM    111  C   UNL A   1      47.238  29.259  31.787  1.00  0.00    -0.036 A 
ATOM    112  H   UNL A   1      46.697  31.155  32.697  1.00  0.00     0.065 H 
ATOM    113  C   UNL A   1      46.493  28.365  31.033  1.00  0.00     0.049 A 
ATOM    114  H   UNL A   1      44.493  28.524  30.376  1.00  0.00     0.167 HD
ATOM    115  C   UNL A   1      46.094  26.256  29.789  1.00  0.00     0.074 A 
ATOM    116  C   UNL A   1      46.515  24.976  29.258  1.00  0.00    -0.034 C 
ATOM    117  H   UNL A   1      45.561  23.511  28.036  1.00  0.00     0.065 H 
ATOM    118  H   UNL A   1      48.225  29.140  32.062  1.00  0.00     0.065 H 
ATOM    119  C   UNL A   1      46.897  27.090  30.496  1.00  0.00     0.037 A 
ATOM    120  H   UNL A   1      47.451  24.566  29.402  1.00  0.00     0.065 H 
BRANCH 101 121
ATOM    121  C   UNL A   1      44.178  32.370  32.201  1.00  0.00     0.064 A 
ATOM    122  C   UNL A   1      43.829  32.553  33.548  1.00  0.00     0.173 A 
ATOM    123  C   UNL A   1      44.699  33.471  31.505  1.00  0.00     0.173 A 
ATOM    124  F   UNL A   1      43.317  31.535  34.257  1.00  0.00    -0.203 F 
ATOM    125  C   UNL A   1      43.970  33.794  34.164  1.00  0.00     0.198 A 
ATOM    126  C   UNL A   1      44.868  34.703  32.132  1.00  0.00     0.198 A 
ATOM    127  F   UNL A   1      45.054  33.350  30.216  1.00  0.00    -0.203 F 
ATOM    128  F   UNL A   1      43.585  33.956  35.437  1.00  0.00    -0.200 F 
ATOM    129  C   UNL A   1      44.496  34.866  33.458  1.00  0.00     0.200 A 
ATOM    130  F   UNL A   1      45.389  35.733  31.452  1.00  0.00    -0.200 F 
ATOM    131  F   UNL A   1      44.639  36.057  34.054  1.00  0.00    -0.200 F 
ENDBRANCH 101 121
BRANCH 104 132
ATOM    132  C   UNL A   1      42.959  23.711  27.372  1.00  0.00     0.064 A 
ATOM    133  C   UNL A   1      42.401  22.584  27.990  1.00  0.00     0.173 A 
ATOM    134  C   UNL A   1      43.357  23.591  26.032  1.00  0.00     0.173 A 
ATOM    135  F   UNL A   1      42.025  22.644  29.277  1.00  0.00    -0.203 F 
ATOM    136  C   UNL A   1      42.265  21.380  27.304  1.00  0.00     0.198 A 
ATOM    137  C   UNL A   1      43.193  22.394  25.338  1.00  0.00     0.198 A 
ATOM    138  F   UNL A   1      43.891  24.641  25.392  1.00  0.00    -0.203 F 
ATOM    139  F   UNL A   1      41.770  20.305  27.934  1.00  0.00    -0.200 F 
ATOM    140  C   UNL A   1      42.655  21.286  25.977  1.00  0.00     0.200 A 
ATOM    141  F   UNL A   1      43.556  22.313  24.051  1.00  0.00    -0.200 F 
ATOM    142  F   UNL A   1      42.518  20.130  25.315  1.00  0.00    -0.200 F 
ENDBRANCH 104 132
BRANCH 119 143
ATOM    143  C   UNL A   1      48.303  26.633  30.755  1.00  0.00     0.064 A 
ATOM    144  C   UNL A   1      48.623  25.822  31.853  1.00  0.00     0.173 A 
ATOM    145  C   UNL A   1      49.337  26.984  29.873  1.00  0.00     0.173 A 
ATOM    146  F   UNL A   1      47.673  25.474  32.734  1.00  0.00    -0.203 F 
ATOM    147  C   UNL A   1      49.932  25.401  32.075  1.00  0.00     0.198 A 
ATOM    148  C   UNL A   1      50.639  26.534  30.080  1.00  0.00     0.198 A 
ATOM    149  F   UNL A   1      49.084  27.753  28.803  1.00  0.00    -0.203 F 
ATOM    150  F   UNL A   1      50.223  24.668  33.159  1.00  0.00    -0.200 F 
ATOM    151  C   UNL A   1      50.936  25.751  31.185  1.00  0.00     0.200 A 
ATOM    152  F   UNL A   1      51.605  26.862  29.212  1.00  0.00    -0.200 F 
ATOM    153  F   UNL A   1      52.193  25.338  31.396  1.00  0.00    -0.200 F 
ENDBRANCH 119 143
ENDBRANCH  84  87
ENDBRANCH  74  77
ENDBRANCH  70  73
ENDBRANCH  67  70
ENDBRANCH  64  67
ENDBRANCH  61  64
ENDBRANCH  58  61
ENDBRANCH  55  58
ENDBRANCH   3  55
TORSDOF 24
ENDMDL
MODEL 9
REMARK VINA RESULT:     -11.0      2.081      3.652
REMARK SMILES CCCCCCOC(=O)Nc1cccc(-c2ccc([C@@H](C)C(=O)NCCCCCCNC(=O)c3ccc(-c4c5nc(c(-c6c(F)c(F)c(F)c(F)c6F)c6ccc([nH]6)c(-c6c(F)c(F)c(F)c(F)c6F)c6nc(c(-c7c(F)c(F)c(F)c(F)c7F)c7ccc4[nH]7)C=C6)C=C5)cc3)cc2F)c1
REMARK SMILES IDX 22 1 23 2 24 3 20 5 19 7 16 8 17 9 98 10 18 11 97 13 99 14
REMARK SMILES IDX 15 17 11 18 12 19 100 20 13 21 14 24 10 27 8 28 9 29 7 31
REMARK SMILES IDX 6 32 5 35 4 38 3 41 2 44 1 47 21 51 25 55 26 58 27 61 28 64
REMARK SMILES IDX 29 67 30 70 31 73 32 74 33 76 34 77 35 78 96 79 36 80 95 82
REMARK SMILES IDX 37 84 38 87 39 88 89 89 40 90 94 91 88 92 90 93 41 94 93 95
REMARK SMILES IDX 87 97 86 99 42 101 74 104 54 105 73 106 55 107 58 108 72 109
REMARK SMILES IDX 91 110 56 111 57 113 71 115 92 116 59 119 43 121 44 122
REMARK SMILES IDX 52 123 45 124 46 125 50 126 53 127 47 128 48 129 51 130
REMARK SMILES IDX 49 131 75 132 76 133 84 134 77 135 78 136 82 137 85 138
REMARK SMILES IDX 79 139 80 140 83 141 81 142 60 143 61 144 69 145 62 146
REMARK SMILES IDX 63 147 67 148 70 149 64 150 65 151 68 152 66 153
REMARK H PARENT 24 4 20 6 17 12 18 15 97 16 12 22 100 23 13 25 14 26 10 30
REMARK H PARENT 6 33 6 34 5 36 5 37 4 39 4 40 3 42 3 43 2 45 2 46 1 48 1 49
REMARK H PARENT 1 50 21 52 21 53 21 54 25 56 25 57 26 59 26 60 27 62 27 63
REMARK H PARENT 28 65 28 66 29 68 29 69 30 71 30 72 31 75 35 81 96 83 36 85
REMARK H PARENT 95 86 94 96 88 98 90 100 93 102 87 103 55 112 58 114 91 117
REMARK H PARENT 56 118 92 120
REMARK Flexibility Score: inf
ROOT
ATOM      1  C   UNL A   1      31.272  25.408  26.167  1.00  0.00     0.227 C 
ATOM      2  O   UNL A   1      30.651  24.579  26.844  1.00  0.00    -0.274 OA
ATOM      3  N   UNL A   1      31.494  26.618  26.748  1.00  0.00    -0.356 N 
ATOM      4  H   UNL A   1      31.205  26.675  27.687  1.00  0.00     0.163 HD
ENDROOT
BRANCH   1   5
ATOM      5  C   UNL A   1      31.759  25.036  24.759  1.00  0.00     0.060 C 
ATOM      6  H   UNL A   1      32.091  25.952  24.317  1.00  0.00     0.045 H 
BRANCH   5   7
ATOM      7  C   UNL A   1      33.016  24.179  24.755  1.00  0.00    -0.033 A 
ATOM      8  C   UNL A   1      35.374  22.576  24.960  1.00  0.00     0.018 A 
ATOM      9  C   UNL A   1      34.217  22.095  24.333  1.00  0.00    -0.051 A 
ATOM     10  C   UNL A   1      35.335  23.901  25.427  1.00  0.00     0.131 A 
ATOM     11  C   UNL A   1      33.072  22.893  24.205  1.00  0.00    -0.057 A 
ATOM     12  H   UNL A   1      34.208  21.134  23.959  1.00  0.00     0.063 H 
ATOM     13  C   UNL A   1      34.181  24.681  25.350  1.00  0.00    -0.022 A 
ATOM     14  F   UNL A   1      36.424  24.463  25.977  1.00  0.00    -0.206 F 
ATOM     15  H   UNL A   1      32.254  22.524  23.696  1.00  0.00     0.063 H 
ATOM     16  H   UNL A   1      34.184  25.637  25.735  1.00  0.00     0.066 H 
BRANCH   8  17
ATOM     17  C   UNL A   1      36.558  21.712  25.145  1.00  0.00    -0.013 A 
ATOM     18  C   UNL A   1      38.919  21.478  25.753  1.00  0.00     0.045 A 
ATOM     19  C   UNL A   1      38.887  20.130  25.415  1.00  0.00    -0.038 A 
ATOM     20  C   UNL A   1      37.761  22.252  25.625  1.00  0.00    -0.030 A 
ATOM     21  C   UNL A   1      37.688  19.553  24.997  1.00  0.00    -0.060 A 
ATOM     22  H   UNL A   1      39.744  19.559  25.474  1.00  0.00     0.064 H 
ATOM     23  H   UNL A   1      37.792  23.249  25.892  1.00  0.00     0.065 H 
ATOM     24  C   UNL A   1      36.539  20.338  24.855  1.00  0.00    -0.054 A 
ATOM     25  H   UNL A   1      37.650  18.542  24.791  1.00  0.00     0.062 H 
ATOM     26  H   UNL A   1      35.662  19.900  24.533  1.00  0.00     0.063 H 
BRANCH  18  27
ATOM     27  N   UNL A   1      40.141  22.060  26.115  1.00  0.00    -0.291 N 
ATOM     28  C   UNL A   1      40.898  21.761  27.219  1.00  0.00     0.411 C 
ATOM     29  O   UNL A   1      41.663  22.576  27.705  1.00  0.00    -0.224 OA
ATOM     30  H   UNL A   1      40.493  22.757  25.515  1.00  0.00     0.173 HD
BRANCH  28  31
ATOM     31  O   UNL A   1      40.784  20.458  27.591  1.00  0.00    -0.449 OA
BRANCH  31  32
ATOM     32  C   UNL A   1      41.933  19.607  27.466  1.00  0.00     0.093 C 
ATOM     33  H   UNL A   1      42.710  19.979  28.101  1.00  0.00     0.071 H 
ATOM     34  H   UNL A   1      41.641  18.617  27.749  1.00  0.00     0.071 H 
BRANCH  32  35
ATOM     35  C   UNL A   1      42.455  19.550  26.027  1.00  0.00    -0.019 C 
ATOM     36  H   UNL A   1      41.618  19.408  25.378  1.00  0.00     0.030 H 
ATOM     37  H   UNL A   1      42.974  20.472  25.868  1.00  0.00     0.030 H 
BRANCH  35  38
ATOM     38  C   UNL A   1      43.473  18.441  25.734  1.00  0.00    -0.050 C 
ATOM     39  H   UNL A   1      43.918  18.147  26.661  1.00  0.00     0.027 H 
ATOM     40  H   UNL A   1      42.929  17.653  25.257  1.00  0.00     0.027 H 
BRANCH  38  41
ATOM     41  C   UNL A   1      44.598  18.834  24.768  1.00  0.00    -0.053 C 
ATOM     42  H   UNL A   1      45.052  17.937  24.404  1.00  0.00     0.027 H 
ATOM     43  H   UNL A   1      44.141  19.420  23.998  1.00  0.00     0.027 H 
BRANCH  41  44
ATOM     44  C   UNL A   1      45.694  19.706  25.377  1.00  0.00    -0.056 C 
ATOM     45  H   UNL A   1      45.540  19.760  26.435  1.00  0.00     0.026 H 
ATOM     46  H   UNL A   1      46.636  19.258  25.138  1.00  0.00     0.026 H 
BRANCH  44  47
ATOM     47  C   UNL A   1      45.700  21.117  24.813  1.00  0.00    -0.065 C 
ATOM     48  H   UNL A   1      45.038  21.734  25.386  1.00  0.00     0.023 H 
ATOM     49  H   UNL A   1      45.373  21.095  23.795  1.00  0.00     0.023 H 
ATOM     50  H   UNL A   1      46.691  21.516  24.862  1.00  0.00     0.023 H 
ENDBRANCH  44  47
ENDBRANCH  41  44
ENDBRANCH  38  41
ENDBRANCH  35  38
ENDBRANCH  32  35
ENDBRANCH  31  32
ENDBRANCH  28  31
ENDBRANCH  18  27
ENDBRANCH   8  17
ENDBRANCH   5   7
BRANCH   5  51
ATOM     51  C   UNL A   1      30.644  24.592  23.814  1.00  0.00    -0.049 C 
ATOM     52  H   UNL A   1      30.014  25.427  23.588  1.00  0.00     0.024 H 
ATOM     53  H   UNL A   1      30.064  23.825  24.283  1.00  0.00     0.024 H 
ATOM     54  H   UNL A   1      31.072  24.213  22.910  1.00  0.00     0.024 H 
ENDBRANCH   5  51
ENDBRANCH   1   5
BRANCH   3  55
ATOM     55  C   UNL A   1      32.078  27.836  26.230  1.00  0.00     0.017 C 
ATOM     56  H   UNL A   1      31.326  28.384  25.701  1.00  0.00     0.049 H 
ATOM     57  H   UNL A   1      32.884  27.569  25.580  1.00  0.00     0.049 H 
BRANCH  55  58
ATOM     58  C   UNL A   1      32.637  28.715  27.351  1.00  0.00    -0.036 C 
ATOM     59  H   UNL A   1      32.848  28.093  28.195  1.00  0.00     0.028 H 
ATOM     60  H   UNL A   1      31.897  29.456  27.566  1.00  0.00     0.028 H 
BRANCH  58  61
ATOM     61  C   UNL A   1      33.919  29.460  26.967  1.00  0.00    -0.052 C 
ATOM     62  H   UNL A   1      33.919  29.597  25.905  1.00  0.00     0.027 H 
ATOM     63  H   UNL A   1      34.731  28.858  27.316  1.00  0.00     0.027 H 
BRANCH  61  64
ATOM     64  C   UNL A   1      34.091  30.836  27.625  1.00  0.00    -0.052 C 
ATOM     65  H   UNL A   1      35.139  31.034  27.708  1.00  0.00     0.027 H 
ATOM     66  H   UNL A   1      33.588  30.775  28.568  1.00  0.00     0.027 H 
BRANCH  64  67
ATOM     67  C   UNL A   1      33.446  32.007  26.878  1.00  0.00    -0.036 C 
ATOM     68  H   UNL A   1      33.226  31.686  25.882  1.00  0.00     0.028 H 
ATOM     69  H   UNL A   1      34.148  32.813  26.914  1.00  0.00     0.028 H 
BRANCH  67  70
ATOM     70  C   UNL A   1      32.156  32.529  27.506  1.00  0.00     0.018 C 
ATOM     71  H   UNL A   1      32.046  32.099  28.480  1.00  0.00     0.049 H 
ATOM     72  H   UNL A   1      31.341  32.252  26.871  1.00  0.00     0.049 H 
BRANCH  70  73
ATOM     73  N   UNL A   1      32.163  33.978  27.627  1.00  0.00    -0.352 N 
ATOM     74  C   UNL A   1      32.906  34.788  28.448  1.00  0.00     0.251 C 
ATOM     75  H   UNL A   1      31.539  34.450  27.029  1.00  0.00     0.163 HD
ATOM     76  O   UNL A   1      32.606  35.970  28.584  1.00  0.00    -0.269 OA
BRANCH  74  77
ATOM     77  C   UNL A   1      34.067  34.239  29.180  1.00  0.00     0.039 A 
ATOM     78  C   UNL A   1      33.844  33.487  30.335  1.00  0.00    -0.049 A 
ATOM     79  C   UNL A   1      35.372  34.493  28.747  1.00  0.00    -0.049 A 
ATOM     80  C   UNL A   1      34.927  32.935  31.023  1.00  0.00    -0.053 A 
ATOM     81  H   UNL A   1      32.882  33.338  30.679  1.00  0.00     0.063 H 
ATOM     82  C   UNL A   1      36.447  33.889  29.395  1.00  0.00    -0.053 A 
ATOM     83  H   UNL A   1      35.539  35.127  27.951  1.00  0.00     0.063 H 
ATOM     84  C   UNL A   1      36.234  33.103  30.538  1.00  0.00    -0.014 A 
ATOM     85  H   UNL A   1      34.766  32.402  31.892  1.00  0.00     0.063 H 
ATOM     86  H   UNL A   1      37.404  34.019  29.032  1.00  0.00     0.063 H 
BRANCH  84  87
ATOM     87  C   UNL A   1      37.391  32.452  31.204  1.00  0.00     0.031 A 
ATOM     88  C   UNL A   1      38.093  31.296  30.550  1.00  0.00     0.074 A 
ATOM     89  C   UNL A   1      37.761  32.862  32.432  1.00  0.00     0.049 A 
ATOM     90  N   UNL A   1      39.071  30.555  31.008  1.00  0.00    -0.248 NA
ATOM     91  C   UNL A   1      37.617  30.903  29.215  1.00  0.00    -0.034 C 
ATOM     92  C   UNL A   1      37.128  33.943  33.189  1.00  0.00    -0.036 A 
ATOM     93  N   UNL A   1      38.752  32.410  33.267  1.00  0.00    -0.354 N 
ATOM     94  C   UNL A   1      39.318  29.606  30.026  1.00  0.00     0.074 A 
ATOM     95  C   UNL A   1      38.355  29.831  28.969  1.00  0.00    -0.034 C 
ATOM     96  H   UNL A   1      36.897  31.348  28.624  1.00  0.00     0.065 H 
ATOM     97  C   UNL A   1      37.756  34.083  34.366  1.00  0.00    -0.036 A 
ATOM     98  H   UNL A   1      36.325  34.507  32.867  1.00  0.00     0.065 H 
ATOM     99  C   UNL A   1      38.810  33.079  34.466  1.00  0.00     0.049 A 
ATOM    100  H   UNL A   1      39.364  31.676  33.029  1.00  0.00     0.167 HD
ATOM    101  C   UNL A   1      40.276  28.648  29.999  1.00  0.00     0.037 A 
ATOM    102  H   UNL A   1      38.256  29.233  28.133  1.00  0.00     0.065 H 
ATOM    103  H   UNL A   1      37.530  34.788  35.085  1.00  0.00     0.065 H 
ATOM    104  C   UNL A   1      39.615  32.894  35.529  1.00  0.00     0.037 A 
ATOM    105  C   UNL A   1      41.245  28.443  31.045  1.00  0.00     0.049 A 
ATOM    106  C   UNL A   1      40.660  31.815  35.479  1.00  0.00     0.074 A 
ATOM    107  C   UNL A   1      42.295  27.542  31.083  1.00  0.00    -0.036 A 
ATOM    108  N   UNL A   1      41.278  29.146  32.239  1.00  0.00    -0.354 N 
ATOM    109  N   UNL A   1      40.930  30.968  34.515  1.00  0.00    -0.248 NA
ATOM    110  C   UNL A   1      41.516  31.667  36.664  1.00  0.00    -0.034 C 
ATOM    111  C   UNL A   1      42.933  27.665  32.321  1.00  0.00    -0.036 A 
ATOM    112  H   UNL A   1      42.562  26.891  30.327  1.00  0.00     0.065 H 
ATOM    113  C   UNL A   1      42.313  28.679  33.034  1.00  0.00     0.049 A 
ATOM    114  H   UNL A   1      40.658  29.869  32.487  1.00  0.00     0.167 HD
ATOM    115  C   UNL A   1      41.999  30.206  34.965  1.00  0.00     0.074 A 
ATOM    116  C   UNL A   1      42.341  30.702  36.282  1.00  0.00    -0.034 C 
ATOM    117  H   UNL A   1      41.484  32.180  37.559  1.00  0.00     0.065 H 
ATOM    118  H   UNL A   1      43.729  27.097  32.649  1.00  0.00     0.065 H 
ATOM    119  C   UNL A   1      42.639  29.184  34.344  1.00  0.00     0.037 A 
ATOM    120  H   UNL A   1      43.127  30.350  36.850  1.00  0.00     0.065 H 
BRANCH 101 121
ATOM    121  C   UNL A   1      40.325  27.746  28.799  1.00  0.00     0.064 A 
ATOM    122  C   UNL A   1      41.077  28.076  27.660  1.00  0.00     0.173 A 
ATOM    123  C   UNL A   1      39.647  26.519  28.801  1.00  0.00     0.173 A 
ATOM    124  F   UNL A   1      41.737  29.243  27.602  1.00  0.00    -0.203 F 
ATOM    125  C   UNL A   1      41.124  27.224  26.560  1.00  0.00     0.198 A 
ATOM    126  C   UNL A   1      39.720  25.655  27.712  1.00  0.00     0.198 A 
ATOM    127  F   UNL A   1      38.918  26.150  29.867  1.00  0.00    -0.203 F 
ATOM    128  F   UNL A   1      41.809  27.584  25.466  1.00  0.00    -0.200 F 
ATOM    129  C   UNL A   1      40.452  26.012  26.589  1.00  0.00     0.200 A 
ATOM    130  F   UNL A   1      39.082  24.478  27.748  1.00  0.00    -0.200 F 
ATOM    131  F   UNL A   1      40.505  25.190  25.532  1.00  0.00    -0.200 F 
ENDBRANCH 101 121
BRANCH 104 132
ATOM    132  C   UNL A   1      39.472  33.764  36.726  1.00  0.00     0.064 A 
ATOM    133  C   UNL A   1      40.131  35.000  36.799  1.00  0.00     0.173 A 
ATOM    134  C   UNL A   1      38.681  33.381  37.818  1.00  0.00     0.173 A 
ATOM    135  F   UNL A   1      40.916  35.400  35.787  1.00  0.00    -0.203 F 
ATOM    136  C   UNL A   1      40.020  35.810  37.926  1.00  0.00     0.198 A 
ATOM    137  C   UNL A   1      38.547  34.206  38.933  1.00  0.00     0.198 A 
ATOM    138  F   UNL A   1      38.025  32.212  37.797  1.00  0.00    -0.203 F 
ATOM    139  F   UNL A   1      40.697  36.964  37.987  1.00  0.00    -0.200 F 
ATOM    140  C   UNL A   1      39.223  35.416  38.991  1.00  0.00     0.200 A 
ATOM    141  F   UNL A   1      37.763  33.829  39.952  1.00  0.00    -0.200 F 
ATOM    142  F   UNL A   1      39.111  36.197  40.072  1.00  0.00    -0.200 F 
ENDBRANCH 104 132
BRANCH 119 143
ATOM    143  C   UNL A   1      43.788  28.551  35.074  1.00  0.00     0.064 A 
ATOM    144  C   UNL A   1      43.604  27.449  35.922  1.00  0.00     0.173 A 
ATOM    145  C   UNL A   1      45.095  29.031  34.896  1.00  0.00     0.173 A 
ATOM    146  F   UNL A   1      42.372  26.963  36.138  1.00  0.00    -0.203 F 
ATOM    147  C   UNL A   1      44.681  26.868  36.586  1.00  0.00     0.198 A 
ATOM    148  C   UNL A   1      46.174  28.428  35.537  1.00  0.00     0.198 A 
ATOM    149  F   UNL A   1      45.328  30.079  34.091  1.00  0.00    -0.203 F 
ATOM    150  F   UNL A   1      44.474  25.848  37.430  1.00  0.00    -0.200 F 
ATOM    151  C   UNL A   1      45.966  27.353  36.387  1.00  0.00     0.200 A 
ATOM    152  F   UNL A   1      47.415  28.890  35.333  1.00  0.00    -0.200 F 
ATOM    153  F   UNL A   1      47.001  26.789  37.021  1.00  0.00    -0.200 F 
ENDBRANCH 119 143
ENDBRANCH  84  87
ENDBRANCH  74  77
ENDBRANCH  70  73
ENDBRANCH  67  70
ENDBRANCH  64  67
ENDBRANCH  61  64
ENDBRANCH  58  61
ENDBRANCH  55  58
ENDBRANCH   3  55
TORSDOF 24
ENDMDL
MODEL 10
REMARK VINA RESULT:     -11.0      4.774      9.584
REMARK SMILES CCCCCCOC(=O)Nc1cccc(-c2ccc([C@@H](C)C(=O)NCCCCCCNC(=O)c3ccc(-c4c5nc(c(-c6c(F)c(F)c(F)c(F)c6F)c6ccc([nH]6)c(-c6c(F)c(F)c(F)c(F)c6F)c6nc(c(-c7c(F)c(F)c(F)c(F)c7F)c7ccc4[nH]7)C=C6)C=C5)cc3)cc2F)c1
REMARK SMILES IDX 22 1 23 2 24 3 20 5 19 7 16 8 17 9 98 10 18 11 97 13 99 14
REMARK SMILES IDX 15 17 11 18 12 19 100 20 13 21 14 24 10 27 8 28 9 29 7 31
REMARK SMILES IDX 6 32 5 35 4 38 3 41 2 44 1 47 21 51 25 55 26 58 27 61 28 64
REMARK SMILES IDX 29 67 30 70 31 73 32 74 33 76 34 77 35 78 96 79 36 80 95 82
REMARK SMILES IDX 37 84 38 87 39 88 89 89 40 90 94 91 88 92 90 93 41 94 93 95
REMARK SMILES IDX 87 97 86 99 42 101 74 104 54 105 73 106 55 107 58 108 72 109
REMARK SMILES IDX 91 110 56 111 57 113 71 115 92 116 59 119 43 121 44 122
REMARK SMILES IDX 52 123 45 124 46 125 50 126 53 127 47 128 48 129 51 130
REMARK SMILES IDX 49 131 75 132 76 133 84 134 77 135 78 136 82 137 85 138
REMARK SMILES IDX 79 139 80 140 83 141 81 142 60 143 61 144 69 145 62 146
REMARK SMILES IDX 63 147 67 148 70 149 64 150 65 151 68 152 66 153
REMARK H PARENT 24 4 20 6 17 12 18 15 97 16 12 22 100 23 13 25 14 26 10 30
REMARK H PARENT 6 33 6 34 5 36 5 37 4 39 4 40 3 42 3 43 2 45 2 46 1 48 1 49
REMARK H PARENT 1 50 21 52 21 53 21 54 25 56 25 57 26 59 26 60 27 62 27 63
REMARK H PARENT 28 65 28 66 29 68 29 69 30 71 30 72 31 75 35 81 96 83 36 85
REMARK H PARENT 95 86 94 96 88 98 90 100 93 102 87 103 55 112 58 114 91 117
REMARK H PARENT 56 118 92 120
REMARK Flexibility Score: inf
ROOT
ATOM      1  C   UNL A   1      32.307  21.964  22.805  1.00  0.00     0.227 C 
ATOM      2  O   UNL A   1      31.637  21.399  21.932  1.00  0.00    -0.274 OA
ATOM      3  N   UNL A   1      32.327  21.372  24.030  1.00  0.00    -0.356 N 
ATOM      4  H   UNL A   1      31.868  20.501  24.065  1.00  0.00     0.163 HD
ENDROOT
BRANCH   1   5
ATOM      5  C   UNL A   1      33.070  23.255  22.471  1.00  0.00     0.060 C 
ATOM      6  H   UNL A   1      33.161  23.268  21.404  1.00  0.00     0.045 H 
BRANCH   5   7
ATOM      7  C   UNL A   1      32.282  24.523  22.763  1.00  0.00    -0.033 A 
ATOM      8  C   UNL A   1      30.802  26.945  23.103  1.00  0.00     0.018 A 
ATOM      9  C   UNL A   1      30.279  25.708  23.501  1.00  0.00    -0.051 A 
ATOM     10  C   UNL A   1      32.109  26.941  22.587  1.00  0.00     0.131 A 
ATOM     11  C   UNL A   1      31.017  24.525  23.363  1.00  0.00    -0.057 A 
ATOM     12  H   UNL A   1      29.330  25.667  23.903  1.00  0.00     0.063 H 
ATOM     13  C   UNL A   1      32.828  25.760  22.397  1.00  0.00    -0.022 A 
ATOM     14  F   UNL A   1      32.712  28.091  22.247  1.00  0.00    -0.206 F 
ATOM     15  H   UNL A   1      30.620  23.638  23.710  1.00  0.00     0.063 H 
ATOM     16  H   UNL A   1      33.772  25.798  21.983  1.00  0.00     0.066 H 
BRANCH   8  17
ATOM     17  C   UNL A   1      29.998  28.181  23.196  1.00  0.00    -0.013 A 
ATOM     18  C   UNL A   1      29.777  30.495  23.967  1.00  0.00     0.045 A 
ATOM     19  C   UNL A   1      28.468  30.539  23.500  1.00  0.00    -0.038 A 
ATOM     20  C   UNL A   1      30.531  29.328  23.804  1.00  0.00    -0.030 A 
ATOM     21  C   UNL A   1      27.936  29.436  22.835  1.00  0.00    -0.060 A 
ATOM     22  H   UNL A   1      27.893  31.384  23.646  1.00  0.00     0.064 H 
ATOM     23  H   UNL A   1      31.506  29.310  24.142  1.00  0.00     0.065 H 
ATOM     24  C   UNL A   1      28.690  28.267  22.692  1.00  0.00    -0.054 A 
ATOM     25  H   UNL A   1      26.981  29.483  22.446  1.00  0.00     0.062 H 
ATOM     26  H   UNL A   1      28.279  27.454  22.208  1.00  0.00     0.063 H 
BRANCH  18  27
ATOM     27  N   UNL A   1      30.281  31.587  24.686  1.00  0.00    -0.291 N 
ATOM     28  C   UNL A   1      31.027  31.540  25.835  1.00  0.00     0.411 C 
ATOM     29  O   UNL A   1      31.034  32.466  26.627  1.00  0.00    -0.224 OA
ATOM     30  H   UNL A   1      30.076  32.482  24.329  1.00  0.00     0.173 HD
BRANCH  28  31
ATOM     31  O   UNL A   1      31.819  30.437  25.896  1.00  0.00    -0.449 OA
BRANCH  31  32
ATOM     32  C   UNL A   1      32.887  30.413  26.855  1.00  0.00     0.093 C 
ATOM     33  H   UNL A   1      33.235  31.413  27.009  1.00  0.00     0.071 H 
ATOM     34  H   UNL A   1      32.507  29.990  27.761  1.00  0.00     0.071 H 
BRANCH  32  35
ATOM     35  C   UNL A   1      34.062  29.547  26.388  1.00  0.00    -0.019 C 
ATOM     36  H   UNL A   1      34.742  30.176  25.853  1.00  0.00     0.030 H 
ATOM     37  H   UNL A   1      34.478  29.116  27.274  1.00  0.00     0.030 H 
BRANCH  35  38
ATOM     38  C   UNL A   1      33.697  28.368  25.478  1.00  0.00    -0.050 C 
ATOM     39  H   UNL A   1      32.679  28.488  25.172  1.00  0.00     0.027 H 
ATOM     40  H   UNL A   1      34.390  28.390  24.664  1.00  0.00     0.027 H 
BRANCH  38  41
ATOM     41  C   UNL A   1      33.839  26.983  26.126  1.00  0.00    -0.053 C 
ATOM     42  H   UNL A   1      34.524  26.411  25.537  1.00  0.00     0.027 H 
ATOM     43  H   UNL A   1      34.180  27.155  27.126  1.00  0.00     0.027 H 
BRANCH  41  44
ATOM     44  C   UNL A   1      32.539  26.192  26.246  1.00  0.00    -0.056 C 
ATOM     45  H   UNL A   1      32.299  25.780  25.288  1.00  0.00     0.026 H 
ATOM     46  H   UNL A   1      32.690  25.427  26.978  1.00  0.00     0.026 H 
BRANCH  44  47
ATOM     47  C   UNL A   1      31.374  27.050  26.712  1.00  0.00    -0.065 C 
ATOM     48  H   UNL A   1      30.606  26.421  27.113  1.00  0.00     0.023 H 
ATOM     49  H   UNL A   1      30.984  27.603  25.883  1.00  0.00     0.023 H 
ATOM     50  H   UNL A   1      31.710  27.728  27.468  1.00  0.00     0.023 H 
ENDBRANCH  44  47
ENDBRANCH  41  44
ENDBRANCH  38  41
ENDBRANCH  35  38
ENDBRANCH  32  35
ENDBRANCH  31  32
ENDBRANCH  28  31
ENDBRANCH  18  27
ENDBRANCH   8  17
ENDBRANCH   5   7
BRANCH   5  51
ATOM     51  C   UNL A   1      34.527  23.251  22.931  1.00  0.00    -0.049 C 
ATOM     52  H   UNL A   1      35.085  23.960  22.356  1.00  0.00     0.024 H 
ATOM     53  H   UNL A   1      34.942  22.275  22.794  1.00  0.00     0.024 H 
ATOM     54  H   UNL A   1      34.574  23.516  23.967  1.00  0.00     0.024 H 
ENDBRANCH   5  51
ENDBRANCH   1   5
BRANCH   3  55
ATOM     55  C   UNL A   1      32.902  21.792  25.288  1.00  0.00     0.017 C 
ATOM     56  H   UNL A   1      32.113  22.077  25.953  1.00  0.00     0.049 H 
ATOM     57  H   UNL A   1      33.557  22.616  25.097  1.00  0.00     0.049 H 
BRANCH  55  58
ATOM     58  C   UNL A   1      33.719  20.673  25.938  1.00  0.00    -0.036 C 
ATOM     59  H   UNL A   1      33.045  19.906  26.260  1.00  0.00     0.028 H 
ATOM     60  H   UNL A   1      34.256  21.111  26.753  1.00  0.00     0.028 H 
BRANCH  58  61
ATOM     61  C   UNL A   1      34.756  20.045  25.002  1.00  0.00    -0.052 C 
ATOM     62  H   UNL A   1      34.363  20.068  24.007  1.00  0.00     0.027 H 
ATOM     63  H   UNL A   1      34.928  19.055  25.367  1.00  0.00     0.027 H 
BRANCH  61  64
ATOM     64  C   UNL A   1      36.124  20.741  24.991  1.00  0.00    -0.052 C 
ATOM     65  H   UNL A   1      36.183  21.368  25.856  1.00  0.00     0.027 H 
ATOM     66  H   UNL A   1      36.173  21.278  24.066  1.00  0.00     0.027 H 
BRANCH  64  67
ATOM     67  C   UNL A   1      37.338  19.807  25.001  1.00  0.00    -0.036 C 
ATOM     68  H   UNL A   1      37.379  19.303  24.059  1.00  0.00     0.028 H 
ATOM     69  H   UNL A   1      37.201  19.142  25.827  1.00  0.00     0.028 H 
BRANCH  67  70
ATOM     70  C   UNL A   1      38.677  20.506  25.226  1.00  0.00     0.018 C 
ATOM     71  H   UNL A   1      38.516  21.377  25.828  1.00  0.00     0.049 H 
ATOM     72  H   UNL A   1      39.079  20.769  24.270  1.00  0.00     0.049 H 
BRANCH  70  73
ATOM     73  N   UNL A   1      39.632  19.639  25.897  1.00  0.00    -0.352 N 
ATOM     74  C   UNL A   1      40.829  19.944  26.493  1.00  0.00     0.251 C 
ATOM     75  H   UNL A   1      39.381  18.687  25.929  1.00  0.00     0.163 HD
ATOM     76  O   UNL A   1      41.613  19.050  26.796  1.00  0.00    -0.269 OA
BRANCH  74  77
ATOM     77  C   UNL A   1      41.185  21.353  26.766  1.00  0.00     0.039 A 
ATOM     78  C   UNL A   1      41.539  21.721  28.066  1.00  0.00    -0.049 A 
ATOM     79  C   UNL A   1      41.137  22.314  25.752  1.00  0.00    -0.049 A 
ATOM     80  C   UNL A   1      41.907  23.041  28.337  1.00  0.00    -0.053 A 
ATOM     81  H   UNL A   1      41.530  21.020  28.824  1.00  0.00     0.063 H 
ATOM     82  C   UNL A   1      41.567  23.613  26.008  1.00  0.00    -0.053 A 
ATOM     83  H   UNL A   1      40.784  22.061  24.816  1.00  0.00     0.063 H 
ATOM     84  C   UNL A   1      41.957  23.989  27.302  1.00  0.00    -0.014 A 
ATOM     85  H   UNL A   1      42.143  23.320  29.302  1.00  0.00     0.063 H 
ATOM     86  H   UNL A   1      41.599  24.304  25.241  1.00  0.00     0.063 H 
BRANCH  84  87
ATOM     87  C   UNL A   1      42.430  25.374  27.552  1.00  0.00     0.031 A 
ATOM     88  C   UNL A   1      43.850  25.759  27.250  1.00  0.00     0.074 A 
ATOM     89  C   UNL A   1      41.592  26.265  28.116  1.00  0.00     0.049 A 
ATOM     90  N   UNL A   1      44.464  26.895  27.468  1.00  0.00    -0.248 NA
ATOM     91  C   UNL A   1      44.702  24.723  26.647  1.00  0.00    -0.034 C 
ATOM     92  C   UNL A   1      40.205  25.997  28.497  1.00  0.00    -0.036 A 
ATOM     93  N   UNL A   1      41.789  27.574  28.481  1.00  0.00    -0.354 N 
ATOM     94  C   UNL A   1      45.771  26.706  27.041  1.00  0.00     0.074 A 
ATOM     95  C   UNL A   1      45.877  25.332  26.598  1.00  0.00    -0.034 C 
ATOM     96  H   UNL A   1      44.449  23.769  26.341  1.00  0.00     0.065 H 
ATOM     97  C   UNL A   1      39.670  27.110  29.023  1.00  0.00    -0.036 A 
ATOM     98  H   UNL A   1      39.716  25.095  28.379  1.00  0.00     0.065 H 
ATOM     99  C   UNL A   1      40.685  28.157  29.054  1.00  0.00     0.049 A 
ATOM    100  H   UNL A   1      42.641  28.049  28.344  1.00  0.00     0.167 HD
ATOM    101  C   UNL A   1      46.785  27.604  27.000  1.00  0.00     0.037 A 
ATOM    102  H   UNL A   1      46.754  24.886  26.286  1.00  0.00     0.065 H 
ATOM    103  H   UNL A   1      38.697  27.208  29.352  1.00  0.00     0.065 H 
ATOM    104  C   UNL A   1      40.516  29.394  29.558  1.00  0.00     0.037 A 
ATOM    105  C   UNL A   1      46.668  28.976  27.423  1.00  0.00     0.049 A 
ATOM    106  C   UNL A   1      41.661  30.367  29.514  1.00  0.00     0.074 A 
ATOM    107  C   UNL A   1      47.618  29.982  27.362  1.00  0.00    -0.036 A 
ATOM    108  N   UNL A   1      45.532  29.534  27.989  1.00  0.00    -0.354 N 
ATOM    109  N   UNL A   1      42.873  30.199  29.043  1.00  0.00    -0.248 NA
ATOM    110  C   UNL A   1      41.415  31.705  30.069  1.00  0.00    -0.034 C 
ATOM    111  C   UNL A   1      47.073  31.133  27.938  1.00  0.00    -0.036 A 
ATOM    112  H   UNL A   1      48.565  29.896  26.960  1.00  0.00     0.065 H 
ATOM    113  C   UNL A   1      45.766  30.862  28.309  1.00  0.00     0.049 A 
ATOM    114  H   UNL A   1      44.684  29.057  28.142  1.00  0.00     0.167 HD
ATOM    115  C   UNL A   1      43.524  31.411  29.221  1.00  0.00     0.074 A 
ATOM    116  C   UNL A   1      42.567  32.314  29.827  1.00  0.00    -0.034 C 
ATOM    117  H   UNL A   1      40.567  32.075  30.526  1.00  0.00     0.065 H 
ATOM    118  H   UNL A   1      47.561  32.033  28.065  1.00  0.00     0.065 H 
ATOM    119  C   UNL A   1      44.802  31.747  28.913  1.00  0.00     0.037 A 
ATOM    120  H   UNL A   1      42.758  33.305  30.043  1.00  0.00     0.065 H 
BRANCH 101 121
ATOM    121  C   UNL A   1      48.113  27.132  26.481  1.00  0.00     0.064 A 
ATOM    122  C   UNL A   1      49.090  26.597  27.336  1.00  0.00     0.173 A 
ATOM    123  C   UNL A   1      48.399  27.177  25.109  1.00  0.00     0.173 A 
ATOM    124  F   UNL A   1      48.872  26.541  28.659  1.00  0.00    -0.203 F 
ATOM    125  C   UNL A   1      50.312  26.152  26.839  1.00  0.00     0.198 A 
ATOM    126  C   UNL A   1      49.610  26.703  24.611  1.00  0.00     0.198 A 
ATOM    127  F   UNL A   1      47.498  27.673  24.246  1.00  0.00    -0.203 F 
ATOM    128  F   UNL A   1      51.248  25.691  27.681  1.00  0.00    -0.200 F 
ATOM    129  C   UNL A   1      50.569  26.199  25.477  1.00  0.00     0.200 A 
ATOM    130  F   UNL A   1      49.850  26.735  23.293  1.00  0.00    -0.200 F 
ATOM    131  F   UNL A   1      51.742  25.762  25.000  1.00  0.00    -0.200 F 
ENDBRANCH 101 121
BRANCH 104 132
ATOM    132  C   UNL A   1      39.203  29.786  30.132  1.00  0.00     0.064 A 
ATOM    133  C   UNL A   1      38.958  29.679  31.509  1.00  0.00     0.173 A 
ATOM    134  C   UNL A   1      38.166  30.271  29.322  1.00  0.00     0.173 A 
ATOM    135  F   UNL A   1      39.912  29.201  32.322  1.00  0.00    -0.203 F 
ATOM    136  C   UNL A   1      37.722  30.024  32.050  1.00  0.00     0.198 A 
ATOM    137  C   UNL A   1      36.940  30.644  29.868  1.00  0.00     0.198 A 
ATOM    138  F   UNL A   1      38.350  30.399  27.999  1.00  0.00    -0.203 F 
ATOM    139  F   UNL A   1      37.501  29.868  33.362  1.00  0.00    -0.200 F 
ATOM    140  C   UNL A   1      36.715  30.512  31.230  1.00  0.00     0.200 A 
ATOM    141  F   UNL A   1      35.975  31.130  29.075  1.00  0.00    -0.200 F 
ATOM    142  F   UNL A   1      35.528  30.849  31.751  1.00  0.00    -0.200 F 
ENDBRANCH 104 132
BRANCH 119 143
ATOM    143  C   UNL A   1      45.230  33.156  29.206  1.00  0.00     0.064 A 
ATOM    144  C   UNL A   1      45.846  33.501  30.417  1.00  0.00     0.173 A 
ATOM    145  C   UNL A   1      45.052  34.166  28.248  1.00  0.00     0.173 A 
ATOM    146  F   UNL A   1      46.023  32.574  31.371  1.00  0.00    -0.203 F 
ATOM    147  C   UNL A   1      46.244  34.811  30.671  1.00  0.00     0.198 A 
ATOM    148  C   UNL A   1      45.479  35.468  28.492  1.00  0.00     0.198 A 
ATOM    149  F   UNL A   1      44.473  33.888  27.070  1.00  0.00    -0.203 F 
ATOM    150  F   UNL A   1      46.785  35.127  31.855  1.00  0.00    -0.200 F 
ATOM    151  C   UNL A   1      46.067  35.791  29.705  1.00  0.00     0.200 A 
ATOM    152  F   UNL A   1      45.320  36.411  27.553  1.00  0.00    -0.200 F 
ATOM    153  F   UNL A   1      46.457  37.049  29.948  1.00  0.00    -0.200 F 
ENDBRANCH 119 143
ENDBRANCH  84  87
ENDBRANCH  74  77
ENDBRANCH  70  73
ENDBRANCH  67  70
ENDBRANCH  64  67
ENDBRANCH  61  64
ENDBRANCH  58  61
ENDBRANCH  55  58
ENDBRANCH   3  55
TORSDOF 24
ENDMDL
