MODEL 1
REMARK VINA RESULT:     -12.1      0.000      0.000
REMARK SMILES COc1ccc(-c2noc(CC(=O)NCCCCCCNC(=O)c3ccc(-c4c5nc(c(-c6c(F)c(F)c(F)c(F)c6F)c6ccc([nH]6)c(-c6c(F)c(F)c(F)c(F)c6F)c6nc(c(-c7c(F)c(F)c(F)c(F)c7F)c7ccc4[nH]7)C=C6)C=C5)cc3)c2-c2ccc(OC)cc2)cc1
REMARK SMILES IDX 16 1 15 4 14 7 12 8 13 9 11 11 10 14 7 15 8 16 87 17 9 18
REMARK SMILES IDX 6 19 3 20 4 21 97 22 5 23 96 25 2 29 1 30 88 34 89 35 95 36
REMARK SMILES IDX 90 37 94 39 91 41 92 44 93 45 17 49 18 52 19 55 20 58 21 61
REMARK SMILES IDX 22 62 23 64 24 65 25 66 86 67 26 68 85 70 27 72 28 75 29 76
REMARK SMILES IDX 79 77 30 78 84 79 78 80 80 81 31 82 83 83 77 85 76 87 32 89
REMARK SMILES IDX 64 92 44 93 63 94 45 95 48 96 62 97 81 98 46 99 47 101
REMARK SMILES IDX 61 103 82 104 49 107 33 109 34 110 42 111 35 112 36 113
REMARK SMILES IDX 40 114 43 115 37 116 38 117 41 118 39 119 65 120 66 121
REMARK SMILES IDX 74 122 67 123 68 124 72 125 75 126 69 127 70 128 73 129
REMARK SMILES IDX 71 130 50 131 51 132 59 133 52 134 53 135 57 136 60 137
REMARK SMILES IDX 54 138 55 139 58 140 56 141
REMARK H PARENT 16 2 16 3 15 5 15 6 14 10 11 12 11 13 4 24 97 26 5 27 96 28
REMARK H PARENT 1 31 1 32 1 33 89 38 95 40 90 42 94 43 93 46 93 47 93 48 17 50
REMARK H PARENT 17 51 18 53 18 54 19 56 19 57 20 59 20 60 21 63 25 69 86 71
REMARK H PARENT 26 73 85 74 84 84 78 86 80 88 83 90 77 91 45 100 48 102 81 105
REMARK H PARENT 46 106 82 108
REMARK Flexibility Score: inf
ROOT
ATOM      1  C   UNL A   1      34.803  21.143  25.728  1.00  0.00    -0.036 C 
ATOM      2  H   UNL A   1      34.811  20.911  26.772  1.00  0.00     0.028 H 
ATOM      3  H   UNL A   1      35.190  22.121  25.526  1.00  0.00     0.028 H 
ENDROOT
BRANCH   1   4
ATOM      4  C   UNL A   1      33.355  21.123  25.239  1.00  0.00     0.017 C 
ATOM      5  H   UNL A   1      33.273  21.729  24.359  1.00  0.00     0.049 H 
ATOM      6  H   UNL A   1      33.080  20.112  25.022  1.00  0.00     0.049 H 
BRANCH   4   7
ATOM      7  N   UNL A   1      32.459  21.640  26.254  1.00  0.00    -0.356 N 
ATOM      8  C   UNL A   1      32.283  22.929  26.667  1.00  0.00     0.227 C 
ATOM      9  O   UNL A   1      31.539  23.136  27.627  1.00  0.00    -0.275 OA
ATOM     10  H   UNL A   1      31.903  20.968  26.710  1.00  0.00     0.163 HD
BRANCH   8  11
ATOM     11  C   UNL A   1      32.902  24.072  25.889  1.00  0.00     0.088 C 
ATOM     12  H   UNL A   1      33.357  24.750  26.580  1.00  0.00     0.045 H 
ATOM     13  H   UNL A   1      33.618  23.651  25.215  1.00  0.00     0.045 H 
BRANCH  11  14
ATOM     14  C   UNL A   1      31.912  24.818  25.075  1.00  0.00     0.154 A 
ATOM     15  C   UNL A   1      30.546  26.158  23.954  1.00  0.00     0.122 A 
ATOM     16  N   UNL A   1      30.237  24.907  23.583  1.00  0.00    -0.079 NA
ATOM     17  C   UNL A   1      31.591  26.153  24.924  1.00  0.00     0.053 A 
ATOM     18  O   UNL A   1      31.107  24.078  24.264  1.00  0.00    -0.360 OA
BRANCH  15  19
ATOM     19  C   UNL A   1      29.869  27.317  23.388  1.00  0.00     0.005 A 
ATOM     20  C   UNL A   1      28.605  29.592  22.351  1.00  0.00     0.118 A 
ATOM     21  C   UNL A   1      27.858  28.606  22.997  1.00  0.00    -0.019 A 
ATOM     22  C   UNL A   1      29.988  29.459  22.246  1.00  0.00    -0.019 A 
ATOM     23  C   UNL A   1      28.482  27.461  23.501  1.00  0.00    -0.049 A 
ATOM     24  H   UNL A   1      26.837  28.724  23.104  1.00  0.00     0.066 H 
ATOM     25  C   UNL A   1      30.617  28.322  22.761  1.00  0.00    -0.049 A 
ATOM     26  H   UNL A   1      30.546  30.196  21.789  1.00  0.00     0.066 H 
ATOM     27  H   UNL A   1      27.921  26.724  23.955  1.00  0.00     0.063 H 
ATOM     28  H   UNL A   1      31.641  28.222  22.679  1.00  0.00     0.063 H 
BRANCH  20  29
ATOM     29  O   UNL A   1      27.906  30.677  21.898  1.00  0.00    -0.497 OA
BRANCH  29  30
ATOM     30  C   UNL A   1      28.678  31.873  21.822  1.00  0.00     0.078 C 
ATOM     31  H   UNL A   1      29.004  32.024  20.815  1.00  0.00     0.067 H 
ATOM     32  H   UNL A   1      29.530  31.789  22.463  1.00  0.00     0.067 H 
ATOM     33  H   UNL A   1      28.079  32.705  22.131  1.00  0.00     0.067 H 
ENDBRANCH  29  30
ENDBRANCH  20  29
ENDBRANCH  15  19
BRANCH  17  34
ATOM     34  C   UNL A   1      32.169  27.246  25.682  1.00  0.00    -0.012 A 
ATOM     35  C   UNL A   1      31.420  27.849  26.699  1.00  0.00    -0.050 A 
ATOM     36  C   UNL A   1      33.459  27.713  25.416  1.00  0.00    -0.050 A 
ATOM     37  C   UNL A   1      31.964  28.894  27.448  1.00  0.00    -0.019 A 
ATOM     38  H   UNL A   1      30.462  27.520  26.897  1.00  0.00     0.063 H 
ATOM     39  C   UNL A   1      34.001  28.763  26.169  1.00  0.00    -0.019 A 
ATOM     40  H   UNL A   1      34.016  27.283  24.661  1.00  0.00     0.063 H 
ATOM     41  C   UNL A   1      33.255  29.356  27.190  1.00  0.00     0.118 A 
ATOM     42  H   UNL A   1      31.406  29.329  28.200  1.00  0.00     0.066 H 
ATOM     43  H   UNL A   1      34.956  29.100  25.969  1.00  0.00     0.066 H 
BRANCH  41  44
ATOM     44  O   UNL A   1      33.662  30.380  27.998  1.00  0.00    -0.497 OA
BRANCH  44  45
ATOM     45  C   UNL A   1      33.548  31.698  27.477  1.00  0.00     0.078 C 
ATOM     46  H   UNL A   1      32.652  32.150  27.846  1.00  0.00     0.067 H 
ATOM     47  H   UNL A   1      33.515  31.658  26.409  1.00  0.00     0.067 H 
ATOM     48  H   UNL A   1      34.393  32.278  27.786  1.00  0.00     0.067 H 
ENDBRANCH  44  45
ENDBRANCH  41  44
ENDBRANCH  17  34
ENDBRANCH  11  14
ENDBRANCH   8  11
ENDBRANCH   4   7
ENDBRANCH   1   4
BRANCH   1  49
ATOM     49  C   UNL A   1      35.709  20.141  25.000  1.00  0.00    -0.052 C 
ATOM     50  H   UNL A   1      35.259  19.911  24.057  1.00  0.00     0.027 H 
ATOM     51  H   UNL A   1      35.799  19.294  25.647  1.00  0.00     0.027 H 
BRANCH  49  52
ATOM     52  C   UNL A   1      37.139  20.632  24.738  1.00  0.00    -0.052 C 
ATOM     53  H   UNL A   1      37.328  21.461  25.387  1.00  0.00     0.027 H 
ATOM     54  H   UNL A   1      37.181  20.885  23.699  1.00  0.00     0.027 H 
BRANCH  52  55
ATOM     55  C   UNL A   1      38.238  19.591  24.967  1.00  0.00    -0.036 C 
ATOM     56  H   UNL A   1      38.756  19.444  24.043  1.00  0.00     0.028 H 
ATOM     57  H   UNL A   1      37.748  18.707  25.321  1.00  0.00     0.028 H 
BRANCH  55  58
ATOM     58  C   UNL A   1      39.264  19.969  26.032  1.00  0.00     0.018 C 
ATOM     59  H   UNL A   1      38.786  19.964  26.989  1.00  0.00     0.049 H 
ATOM     60  H   UNL A   1      39.645  20.941  25.794  1.00  0.00     0.049 H 
BRANCH  58  61
ATOM     61  N   UNL A   1      40.386  19.043  26.062  1.00  0.00    -0.352 N 
ATOM     62  C   UNL A   1      41.729  19.298  26.133  1.00  0.00     0.251 C 
ATOM     63  H   UNL A   1      40.142  18.090  26.027  1.00  0.00     0.163 HD
ATOM     64  O   UNL A   1      42.538  18.386  25.951  1.00  0.00    -0.269 OA
BRANCH  62  65
ATOM     65  C   UNL A   1      42.223  20.662  26.411  1.00  0.00     0.039 A 
ATOM     66  C   UNL A   1      42.536  21.497  25.334  1.00  0.00    -0.049 A 
ATOM     67  C   UNL A   1      42.423  21.107  27.722  1.00  0.00    -0.049 A 
ATOM     68  C   UNL A   1      43.003  22.792  25.570  1.00  0.00    -0.053 A 
ATOM     69  H   UNL A   1      42.422  21.157  24.367  1.00  0.00     0.063 H 
ATOM     70  C   UNL A   1      42.832  22.419  27.957  1.00  0.00    -0.053 A 
ATOM     71  H   UNL A   1      42.268  20.465  28.515  1.00  0.00     0.063 H 
ATOM     72  C   UNL A   1      43.132  23.271  26.884  1.00  0.00    -0.014 A 
ATOM     73  H   UNL A   1      43.254  23.400  24.774  1.00  0.00     0.063 H 
ATOM     74  H   UNL A   1      42.913  22.765  28.926  1.00  0.00     0.063 H 
BRANCH  72  75
ATOM     75  C   UNL A   1      43.590  24.658  27.149  1.00  0.00     0.031 A 
ATOM     76  C   UNL A   1      42.620  25.694  27.640  1.00  0.00     0.074 A 
ATOM     77  C   UNL A   1      44.869  24.995  26.898  1.00  0.00     0.049 A 
ATOM     78  N   UNL A   1      42.818  26.967  27.880  1.00  0.00    -0.248 NA
ATOM     79  C   UNL A   1      41.238  25.248  27.873  1.00  0.00    -0.034 C 
ATOM     80  C   UNL A   1      45.895  24.089  26.380  1.00  0.00    -0.036 A 
ATOM     81  N   UNL A   1      45.522  26.193  27.038  1.00  0.00    -0.354 N 
ATOM     82  C   UNL A   1      41.587  27.472  28.276  1.00  0.00     0.074 A 
ATOM     83  C   UNL A   1      40.637  26.382  28.201  1.00  0.00    -0.034 C 
ATOM     84  H   UNL A   1      40.839  24.299  27.799  1.00  0.00     0.065 H 
ATOM     85  C   UNL A   1      47.054  24.758  26.264  1.00  0.00    -0.036 A 
ATOM     86  H   UNL A   1      45.752  23.095  26.143  1.00  0.00     0.065 H 
ATOM     87  C   UNL A   1      46.844  26.146  26.669  1.00  0.00     0.049 A 
ATOM     88  H   UNL A   1      45.085  27.010  27.371  1.00  0.00     0.167 HD
ATOM     89  C   UNL A   1      41.281  28.726  28.684  1.00  0.00     0.037 A 
ATOM     90  H   UNL A   1      39.625  26.477  28.379  1.00  0.00     0.065 H 
ATOM     91  H   UNL A   1      47.947  24.358  25.939  1.00  0.00     0.065 H 
ATOM     92  C   UNL A   1      47.780  27.114  26.658  1.00  0.00     0.037 A 
ATOM     93  C   UNL A   1      42.232  29.802  28.786  1.00  0.00     0.049 A 
ATOM     94  C   UNL A   1      47.415  28.497  27.121  1.00  0.00     0.074 A 
ATOM     95  C   UNL A   1      42.031  31.093  29.245  1.00  0.00    -0.036 A 
ATOM     96  N   UNL A   1      43.567  29.711  28.420  1.00  0.00    -0.354 N 
ATOM     97  N   UNL A   1      46.263  28.948  27.553  1.00  0.00    -0.248 NA
ATOM     98  C   UNL A   1      48.484  29.505  27.100  1.00  0.00    -0.034 C 
ATOM     99  C   UNL A   1      43.237  31.793  29.125  1.00  0.00    -0.036 A 
ATOM    100  H   UNL A   1      41.146  31.473  29.614  1.00  0.00     0.065 H 
ATOM    101  C   UNL A   1      44.198  30.927  28.628  1.00  0.00     0.049 A 
ATOM    102  H   UNL A   1      44.001  28.902  28.065  1.00  0.00     0.167 HD
ATOM    103  C   UNL A   1      46.472  30.280  27.879  1.00  0.00     0.074 A 
ATOM    104  C   UNL A   1      47.867  30.563  27.608  1.00  0.00    -0.034 C 
ATOM    105  H   UNL A   1      49.459  29.414  26.775  1.00  0.00     0.065 H 
ATOM    106  H   UNL A   1      43.385  32.785  29.364  1.00  0.00     0.065 H 
ATOM    107  C   UNL A   1      45.589  31.188  28.360  1.00  0.00     0.037 A 
ATOM    108  H   UNL A   1      48.322  31.471  27.788  1.00  0.00     0.065 H 
BRANCH  89 109
ATOM    109  C   UNL A   1      39.856  29.004  29.063  1.00  0.00     0.064 A 
ATOM    110  C   UNL A   1      38.912  29.423  28.113  1.00  0.00     0.173 A 
ATOM    111  C   UNL A   1      39.418  28.815  30.383  1.00  0.00     0.173 A 
ATOM    112  F   UNL A   1      39.283  29.629  26.841  1.00  0.00    -0.203 F 
ATOM    113  C   UNL A   1      37.590  29.667  28.475  1.00  0.00     0.198 A 
ATOM    114  C   UNL A   1      38.090  29.034  30.736  1.00  0.00     0.198 A 
ATOM    115  F   UNL A   1      40.278  28.409  31.330  1.00  0.00    -0.203 F 
ATOM    116  F   UNL A   1      36.718  30.110  27.558  1.00  0.00    -0.200 F 
ATOM    117  C   UNL A   1      37.178  29.467  29.784  1.00  0.00     0.200 A 
ATOM    118  F   UNL A   1      37.689  28.828  31.998  1.00  0.00    -0.200 F 
ATOM    119  F   UNL A   1      35.904  29.697  30.129  1.00  0.00    -0.200 F 
ENDBRANCH  89 109
BRANCH  92 120
ATOM    120  C   UNL A   1      49.164  26.799  26.220  1.00  0.00     0.064 A 
ATOM    121  C   UNL A   1      49.551  26.982  24.885  1.00  0.00     0.173 A 
ATOM    122  C   UNL A   1      50.122  26.311  27.119  1.00  0.00     0.173 A 
ATOM    123  F   UNL A   1      48.663  27.426  23.984  1.00  0.00    -0.203 F 
ATOM    124  C   UNL A   1      50.842  26.671  24.463  1.00  0.00     0.198 A 
ATOM    125  C   UNL A   1      51.419  26.024  26.699  1.00  0.00     0.198 A 
ATOM    126  F   UNL A   1      49.800  26.123  28.406  1.00  0.00    -0.203 F 
ATOM    127  F   UNL A   1      51.175  26.816  23.173  1.00  0.00    -0.200 F 
ATOM    128  C   UNL A   1      51.776  26.198  25.370  1.00  0.00     0.200 A 
ATOM    129  F   UNL A   1      52.323  25.577  27.583  1.00  0.00    -0.200 F 
ATOM    130  F   UNL A   1      53.019  25.901  24.965  1.00  0.00    -0.200 F 
ENDBRANCH  92 120
BRANCH 107 131
ATOM    131  C   UNL A   1      46.110  32.564  28.653  1.00  0.00     0.064 A 
ATOM    132  C   UNL A   1      46.072  33.583  27.691  1.00  0.00     0.173 A 
ATOM    133  C   UNL A   1      46.619  32.874  29.924  1.00  0.00     0.173 A 
ATOM    134  F   UNL A   1      45.610  33.330  26.457  1.00  0.00    -0.203 F 
ATOM    135  C   UNL A   1      46.545  34.860  27.984  1.00  0.00     0.198 A 
ATOM    136  C   UNL A   1      47.066  34.158  30.220  1.00  0.00     0.198 A 
ATOM    137  F   UNL A   1      46.672  31.935  30.880  1.00  0.00    -0.203 F 
ATOM    138  F   UNL A   1      46.539  35.807  27.036  1.00  0.00    -0.200 F 
ATOM    139  C   UNL A   1      47.034  35.148  29.249  1.00  0.00     0.200 A 
ATOM    140  F   UNL A   1      47.530  34.438  31.446  1.00  0.00    -0.200 F 
ATOM    141  F   UNL A   1      47.485  36.378  29.530  1.00  0.00    -0.200 F 
ENDBRANCH 107 131
ENDBRANCH  72  75
ENDBRANCH  62  65
ENDBRANCH  58  61
ENDBRANCH  55  58
ENDBRANCH  52  55
ENDBRANCH  49  52
ENDBRANCH   1  49
TORSDOF 20
ENDMDL
MODEL 2
REMARK VINA RESULT:     -12.0      4.333      8.647
REMARK SMILES COc1ccc(-c2noc(CC(=O)NCCCCCCNC(=O)c3ccc(-c4c5nc(c(-c6c(F)c(F)c(F)c(F)c6F)c6ccc([nH]6)c(-c6c(F)c(F)c(F)c(F)c6F)c6nc(c(-c7c(F)c(F)c(F)c(F)c7F)c7ccc4[nH]7)C=C6)C=C5)cc3)c2-c2ccc(OC)cc2)cc1
REMARK SMILES IDX 16 1 15 4 14 7 12 8 13 9 11 11 10 14 7 15 8 16 87 17 9 18
REMARK SMILES IDX 6 19 3 20 4 21 97 22 5 23 96 25 2 29 1 30 88 34 89 35 95 36
REMARK SMILES IDX 90 37 94 39 91 41 92 44 93 45 17 49 18 52 19 55 20 58 21 61
REMARK SMILES IDX 22 62 23 64 24 65 25 66 86 67 26 68 85 70 27 72 28 75 29 76
REMARK SMILES IDX 79 77 30 78 84 79 78 80 80 81 31 82 83 83 77 85 76 87 32 89
REMARK SMILES IDX 64 92 44 93 63 94 45 95 48 96 62 97 81 98 46 99 47 101
REMARK SMILES IDX 61 103 82 104 49 107 33 109 34 110 42 111 35 112 36 113
REMARK SMILES IDX 40 114 43 115 37 116 38 117 41 118 39 119 65 120 66 121
REMARK SMILES IDX 74 122 67 123 68 124 72 125 75 126 69 127 70 128 73 129
REMARK SMILES IDX 71 130 50 131 51 132 59 133 52 134 53 135 57 136 60 137
REMARK SMILES IDX 54 138 55 139 58 140 56 141
REMARK H PARENT 16 2 16 3 15 5 15 6 14 10 11 12 11 13 4 24 97 26 5 27 96 28
REMARK H PARENT 1 31 1 32 1 33 89 38 95 40 90 42 94 43 93 46 93 47 93 48 17 50
REMARK H PARENT 17 51 18 53 18 54 19 56 19 57 20 59 20 60 21 63 25 69 86 71
REMARK H PARENT 26 73 85 74 84 84 78 86 80 88 83 90 77 91 45 100 48 102 81 105
REMARK H PARENT 46 106 82 108
REMARK Flexibility Score: inf
ROOT
ATOM      1  C   UNL A   1      30.764  28.601  22.940  1.00  0.00    -0.036 C 
ATOM      2  H   UNL A   1      29.794  28.999  22.729  1.00  0.00     0.028 H 
ATOM      3  H   UNL A   1      31.512  28.983  22.276  1.00  0.00     0.028 H 
ENDROOT
BRANCH   1   4
ATOM      4  C   UNL A   1      30.719  27.086  22.744  1.00  0.00     0.017 C 
ATOM      5  H   UNL A   1      31.108  26.607  23.620  1.00  0.00     0.049 H 
ATOM      6  H   UNL A   1      29.704  26.791  22.579  1.00  0.00     0.049 H 
BRANCH   4   7
ATOM      7  N   UNL A   1      31.510  26.690  21.597  1.00  0.00    -0.356 N 
ATOM      8  C   UNL A   1      32.731  26.078  21.566  1.00  0.00     0.227 C 
ATOM      9  O   UNL A   1      33.277  25.925  20.472  1.00  0.00    -0.275 OA
ATOM     10  H   UNL A   1      31.113  26.890  20.719  1.00  0.00     0.163 HD
BRANCH   8  11
ATOM     11  C   UNL A   1      33.333  25.509  22.834  1.00  0.00     0.088 C 
ATOM     12  H   UNL A   1      34.399  25.558  22.758  1.00  0.00     0.045 H 
ATOM     13  H   UNL A   1      32.966  26.092  23.653  1.00  0.00     0.045 H 
BRANCH  11  14
ATOM     14  C   UNL A   1      32.939  24.101  23.078  1.00  0.00     0.154 A 
ATOM     15  C   UNL A   1      32.572  21.975  23.592  1.00  0.00     0.122 A 
ATOM     16  N   UNL A   1      31.509  22.381  22.883  1.00  0.00    -0.079 NA
ATOM     17  C   UNL A   1      33.524  23.029  23.721  1.00  0.00     0.053 A 
ATOM     18  O   UNL A   1      31.730  23.712  22.588  1.00  0.00    -0.360 OA
BRANCH  15  19
ATOM     19  C   UNL A   1      32.665  20.626  24.135  1.00  0.00     0.005 A 
ATOM     20  C   UNL A   1      32.767  18.021  25.159  1.00  0.00     0.118 A 
ATOM     21  C   UNL A   1      32.920  19.117  26.010  1.00  0.00    -0.019 A 
ATOM     22  C   UNL A   1      32.536  18.223  23.801  1.00  0.00    -0.019 A 
ATOM     23  C   UNL A   1      32.886  20.418  25.500  1.00  0.00    -0.049 A 
ATOM     24  H   UNL A   1      33.057  18.966  27.022  1.00  0.00     0.066 H 
ATOM     25  C   UNL A   1      32.488  19.522  23.289  1.00  0.00    -0.049 A 
ATOM     26  H   UNL A   1      32.400  17.416  23.173  1.00  0.00     0.066 H 
ATOM     27  H   UNL A   1      33.025  21.224  26.130  1.00  0.00     0.063 H 
ATOM     28  H   UNL A   1      32.320  19.671  22.282  1.00  0.00     0.063 H 
BRANCH  20  29
ATOM     29  O   UNL A   1      32.809  16.789  25.753  1.00  0.00    -0.497 OA
BRANCH  29  30
ATOM     30  C   UNL A   1      33.244  15.744  24.886  1.00  0.00     0.078 C 
ATOM     31  H   UNL A   1      32.661  14.865  25.066  1.00  0.00     0.067 H 
ATOM     32  H   UNL A   1      34.275  15.531  25.073  1.00  0.00     0.067 H 
ATOM     33  H   UNL A   1      33.120  16.050  23.868  1.00  0.00     0.067 H 
ENDBRANCH  29  30
ENDBRANCH  20  29
ENDBRANCH  15  19
BRANCH  17  34
ATOM     34  C   UNL A   1      34.854  23.022  24.301  1.00  0.00    -0.012 A 
ATOM     35  C   UNL A   1      35.065  23.629  25.545  1.00  0.00    -0.050 A 
ATOM     36  C   UNL A   1      35.931  22.424  23.642  1.00  0.00    -0.050 A 
ATOM     37  C   UNL A   1      36.335  23.621  26.124  1.00  0.00    -0.019 A 
ATOM     38  H   UNL A   1      34.279  24.083  26.035  1.00  0.00     0.063 H 
ATOM     39  C   UNL A   1      37.205  22.419  24.227  1.00  0.00    -0.019 A 
ATOM     40  H   UNL A   1      35.789  21.983  22.720  1.00  0.00     0.063 H 
ATOM     41  C   UNL A   1      37.410  23.016  25.471  1.00  0.00     0.118 A 
ATOM     42  H   UNL A   1      36.480  24.066  27.045  1.00  0.00     0.066 H 
ATOM     43  H   UNL A   1      37.995  21.972  23.735  1.00  0.00     0.066 H 
BRANCH  41  44
ATOM     44  O   UNL A   1      38.593  23.079  26.152  1.00  0.00    -0.497 OA
BRANCH  44  45
ATOM     45  C   UNL A   1      39.323  21.866  26.291  1.00  0.00     0.078 C 
ATOM     46  H   UNL A   1      38.988  21.348  27.165  1.00  0.00     0.067 H 
ATOM     47  H   UNL A   1      40.366  22.086  26.383  1.00  0.00     0.067 H 
ATOM     48  H   UNL A   1      39.162  21.253  25.429  1.00  0.00     0.067 H 
ENDBRANCH  44  45
ENDBRANCH  41  44
ENDBRANCH  17  34
ENDBRANCH  11  14
ENDBRANCH   8  11
ENDBRANCH   4   7
ENDBRANCH   1   4
BRANCH   1  49
ATOM     49  C   UNL A   1      31.164  29.025  24.360  1.00  0.00    -0.052 C 
ATOM     50  H   UNL A   1      30.303  29.449  24.834  1.00  0.00     0.027 H 
ATOM     51  H   UNL A   1      31.972  29.716  24.250  1.00  0.00     0.027 H 
BRANCH  49  52
ATOM     52  C   UNL A   1      31.688  27.892  25.251  1.00  0.00    -0.052 C 
ATOM     53  H   UNL A   1      31.396  26.961  24.810  1.00  0.00     0.027 H 
ATOM     54  H   UNL A   1      31.266  28.056  26.220  1.00  0.00     0.027 H 
BRANCH  52  55
ATOM     55  C   UNL A   1      33.207  27.866  25.447  1.00  0.00    -0.036 C 
ATOM     56  H   UNL A   1      33.650  28.484  24.695  1.00  0.00     0.028 H 
ATOM     57  H   UNL A   1      33.503  26.841  25.379  1.00  0.00     0.028 H 
BRANCH  55  58
ATOM     58  C   UNL A   1      33.683  28.363  26.810  1.00  0.00     0.018 C 
ATOM     59  H   UNL A   1      34.684  28.023  26.970  1.00  0.00     0.049 H 
ATOM     60  H   UNL A   1      33.018  27.975  27.554  1.00  0.00     0.049 H 
BRANCH  58  61
ATOM     61  N   UNL A   1      33.660  29.815  26.900  1.00  0.00    -0.352 N 
ATOM     62  C   UNL A   1      34.517  30.664  27.548  1.00  0.00     0.251 C 
ATOM     63  H   UNL A   1      32.918  30.252  26.424  1.00  0.00     0.163 HD
ATOM     64  O   UNL A   1      34.223  31.855  27.673  1.00  0.00    -0.269 OA
BRANCH  62  65
ATOM     65  C   UNL A   1      35.787  30.166  28.114  1.00  0.00     0.039 A 
ATOM     66  C   UNL A   1      36.917  30.118  27.292  1.00  0.00    -0.049 A 
ATOM     67  C   UNL A   1      35.861  29.704  29.432  1.00  0.00    -0.049 A 
ATOM     68  C   UNL A   1      38.131  29.654  27.804  1.00  0.00    -0.053 A 
ATOM     69  H   UNL A   1      36.855  30.426  26.310  1.00  0.00     0.063 H 
ATOM     70  C   UNL A   1      37.085  29.298  29.960  1.00  0.00    -0.053 A 
ATOM     71  H   UNL A   1      35.009  29.666  30.014  1.00  0.00     0.063 H 
ATOM     72  C   UNL A   1      38.230  29.262  29.149  1.00  0.00    -0.014 A 
ATOM     73  H   UNL A   1      38.959  29.599  27.191  1.00  0.00     0.063 H 
ATOM     74  H   UNL A   1      37.150  29.022  30.952  1.00  0.00     0.063 H 
BRANCH  72  75
ATOM     75  C   UNL A   1      39.522  28.803  29.717  1.00  0.00     0.031 A 
ATOM     76  C   UNL A   1      40.159  29.554  30.852  1.00  0.00     0.074 A 
ATOM     77  C   UNL A   1      40.145  27.739  29.178  1.00  0.00     0.049 A 
ATOM     78  N   UNL A   1      41.305  29.338  31.447  1.00  0.00    -0.248 NA
ATOM     79  C   UNL A   1      39.421  30.714  31.373  1.00  0.00    -0.034 C 
ATOM     80  C   UNL A   1      39.649  26.953  28.047  1.00  0.00    -0.036 A 
ATOM     81  N   UNL A   1      41.336  27.140  29.502  1.00  0.00    -0.354 N 
ATOM     82  C   UNL A   1      41.431  30.341  32.400  1.00  0.00     0.074 A 
ATOM     83  C   UNL A   1      40.267  31.194  32.273  1.00  0.00    -0.034 C 
ATOM     84  H   UNL A   1      38.488  31.066  31.107  1.00  0.00     0.065 H 
ATOM     85  C   UNL A   1      40.517  25.964  27.785  1.00  0.00    -0.036 A 
ATOM     86  H   UNL A   1      38.770  27.131  27.535  1.00  0.00     0.065 H 
ATOM     87  C   UNL A   1      41.646  26.064  28.706  1.00  0.00     0.049 A 
ATOM     88  H   UNL A   1      41.913  27.452  30.236  1.00  0.00     0.167 HD
ATOM     89  C   UNL A   1      42.416  30.523  33.310  1.00  0.00     0.037 A 
ATOM     90  H   UNL A   1      40.117  32.060  32.813  1.00  0.00     0.065 H 
ATOM     91  H   UNL A   1      40.407  25.248  27.050  1.00  0.00     0.065 H 
ATOM     92  C   UNL A   1      42.720  25.253  28.719  1.00  0.00     0.037 A 
ATOM     93  C   UNL A   1      43.559  29.659  33.454  1.00  0.00     0.049 A 
ATOM     94  C   UNL A   1      43.799  25.474  29.744  1.00  0.00     0.074 A 
ATOM     95  C   UNL A   1      44.581  29.727  34.384  1.00  0.00    -0.036 A 
ATOM     96  N   UNL A   1      43.829  28.568  32.641  1.00  0.00    -0.354 N 
ATOM     97  N   UNL A   1      43.875  26.388  30.679  1.00  0.00    -0.248 NA
ATOM     98  C   UNL A   1      44.937  24.546  29.716  1.00  0.00    -0.034 C 
ATOM     99  C   UNL A   1      45.489  28.697  34.113  1.00  0.00    -0.036 A 
ATOM    100  H   UNL A   1      44.661  30.416  35.148  1.00  0.00     0.065 H 
ATOM    101  C   UNL A   1      45.011  27.964  33.038  1.00  0.00     0.049 A 
ATOM    102  H   UNL A   1      43.264  28.268  31.892  1.00  0.00     0.167 HD
ATOM    103  C   UNL A   1      45.053  26.131  31.367  1.00  0.00     0.074 A 
ATOM    104  C   UNL A   1      45.653  24.967  30.750  1.00  0.00    -0.034 C 
ATOM    105  H   UNL A   1      45.130  23.770  29.064  1.00  0.00     0.065 H 
ATOM    106  H   UNL A   1      46.366  28.514  34.625  1.00  0.00     0.065 H 
ATOM    107  C   UNL A   1      45.589  26.801  32.417  1.00  0.00     0.037 A 
ATOM    108  H   UNL A   1      46.525  24.521  31.074  1.00  0.00     0.065 H 
BRANCH  89 109
ATOM    109  C   UNL A   1      42.299  31.701  34.232  1.00  0.00     0.064 A 
ATOM    110  C   UNL A   1      41.614  31.611  35.454  1.00  0.00     0.173 A 
ATOM    111  C   UNL A   1      42.908  32.923  33.911  1.00  0.00     0.173 A 
ATOM    112  F   UNL A   1      41.005  30.468  35.802  1.00  0.00    -0.203 F 
ATOM    113  C   UNL A   1      41.521  32.707  36.306  1.00  0.00     0.198 A 
ATOM    114  C   UNL A   1      42.837  34.010  34.778  1.00  0.00     0.198 A 
ATOM    115  F   UNL A   1      43.581  33.061  32.758  1.00  0.00    -0.203 F 
ATOM    116  F   UNL A   1      40.823  32.610  37.447  1.00  0.00    -0.200 F 
ATOM    117  C   UNL A   1      42.137  33.904  35.971  1.00  0.00     0.200 A 
ATOM    118  F   UNL A   1      43.443  35.162  34.459  1.00  0.00    -0.200 F 
ATOM    119  F   UNL A   1      42.052  34.957  36.796  1.00  0.00    -0.200 F 
ENDBRANCH  89 109
BRANCH  92 120
ATOM    120  C   UNL A   1      42.813  24.135  27.746  1.00  0.00     0.064 A 
ATOM    121  C   UNL A   1      42.471  22.828  28.122  1.00  0.00     0.173 A 
ATOM    122  C   UNL A   1      43.246  24.345  26.430  1.00  0.00     0.173 A 
ATOM    123  F   UNL A   1      42.072  22.575  29.377  1.00  0.00    -0.203 F 
ATOM    124  C   UNL A   1      42.574  21.771  27.220  1.00  0.00     0.198 A 
ATOM    125  C   UNL A   1      43.325  23.291  25.522  1.00  0.00     0.198 A 
ATOM    126  F   UNL A   1      43.581  25.577  26.022  1.00  0.00    -0.203 F 
ATOM    127  F   UNL A   1      42.279  20.525  27.616  1.00  0.00    -0.200 F 
ATOM    128  C   UNL A   1      42.995  22.004  25.920  1.00  0.00     0.200 A 
ATOM    129  F   UNL A   1      43.722  23.522  24.263  1.00  0.00    -0.200 F 
ATOM    130  F   UNL A   1      43.092  20.988  25.052  1.00  0.00    -0.200 F 
ENDBRANCH  92 120
BRANCH 107 131
ATOM    131  C   UNL A   1      46.873  26.272  32.984  1.00  0.00     0.064 A 
ATOM    132  C   UNL A   1      46.884  25.276  33.971  1.00  0.00     0.173 A 
ATOM    133  C   UNL A   1      48.107  26.741  32.507  1.00  0.00     0.173 A 
ATOM    134  F   UNL A   1      45.729  24.808  34.471  1.00  0.00    -0.203 F 
ATOM    135  C   UNL A   1      48.084  24.783  34.477  1.00  0.00     0.198 A 
ATOM    136  C   UNL A   1      49.304  26.227  32.996  1.00  0.00     0.198 A 
ATOM    137  F   UNL A   1      48.149  27.689  31.559  1.00  0.00    -0.203 F 
ATOM    138  F   UNL A   1      48.070  23.863  35.450  1.00  0.00    -0.200 F 
ATOM    139  C   UNL A   1      49.292  25.254  33.984  1.00  0.00     0.200 A 
ATOM    140  F   UNL A   1      50.471  26.675  32.512  1.00  0.00    -0.200 F 
ATOM    141  F   UNL A   1      50.446  24.775  34.468  1.00  0.00    -0.200 F 
ENDBRANCH 107 131
ENDBRANCH  72  75
ENDBRANCH  62  65
ENDBRANCH  58  61
ENDBRANCH  55  58
ENDBRANCH  52  55
ENDBRANCH  49  52
ENDBRANCH   1  49
TORSDOF 20
ENDMDL
MODEL 3
REMARK VINA RESULT:     -12.0      4.569      8.777
REMARK SMILES COc1ccc(-c2noc(CC(=O)NCCCCCCNC(=O)c3ccc(-c4c5nc(c(-c6c(F)c(F)c(F)c(F)c6F)c6ccc([nH]6)c(-c6c(F)c(F)c(F)c(F)c6F)c6nc(c(-c7c(F)c(F)c(F)c(F)c7F)c7ccc4[nH]7)C=C6)C=C5)cc3)c2-c2ccc(OC)cc2)cc1
REMARK SMILES IDX 16 1 15 4 14 7 12 8 13 9 11 11 10 14 7 15 8 16 87 17 9 18
REMARK SMILES IDX 6 19 3 20 4 21 97 22 5 23 96 25 2 29 1 30 88 34 89 35 95 36
REMARK SMILES IDX 90 37 94 39 91 41 92 44 93 45 17 49 18 52 19 55 20 58 21 61
REMARK SMILES IDX 22 62 23 64 24 65 25 66 86 67 26 68 85 70 27 72 28 75 29 76
REMARK SMILES IDX 79 77 30 78 84 79 78 80 80 81 31 82 83 83 77 85 76 87 32 89
REMARK SMILES IDX 64 92 44 93 63 94 45 95 48 96 62 97 81 98 46 99 47 101
REMARK SMILES IDX 61 103 82 104 49 107 33 109 34 110 42 111 35 112 36 113
REMARK SMILES IDX 40 114 43 115 37 116 38 117 41 118 39 119 65 120 66 121
REMARK SMILES IDX 74 122 67 123 68 124 72 125 75 126 69 127 70 128 73 129
REMARK SMILES IDX 71 130 50 131 51 132 59 133 52 134 53 135 57 136 60 137
REMARK SMILES IDX 54 138 55 139 58 140 56 141
REMARK H PARENT 16 2 16 3 15 5 15 6 14 10 11 12 11 13 4 24 97 26 5 27 96 28
REMARK H PARENT 1 31 1 32 1 33 89 38 95 40 90 42 94 43 93 46 93 47 93 48 17 50
REMARK H PARENT 17 51 18 53 18 54 19 56 19 57 20 59 20 60 21 63 25 69 86 71
REMARK H PARENT 26 73 85 74 84 84 78 86 80 88 83 90 77 91 45 100 48 102 81 105
REMARK H PARENT 46 106 82 108
REMARK Flexibility Score: inf
ROOT
ATOM      1  C   UNL A   1      30.813  28.796  22.809  1.00  0.00    -0.036 C 
ATOM      2  H   UNL A   1      29.957  29.300  22.413  1.00  0.00     0.028 H 
ATOM      3  H   UNL A   1      31.716  29.070  22.301  1.00  0.00     0.028 H 
ENDROOT
BRANCH   1   4
ATOM      4  C   UNL A   1      30.626  27.292  22.611  1.00  0.00     0.017 C 
ATOM      5  H   UNL A   1      30.877  26.785  23.519  1.00  0.00     0.049 H 
ATOM      6  H   UNL A   1      29.605  27.106  22.350  1.00  0.00     0.049 H 
BRANCH   4   7
ATOM      7  N   UNL A   1      31.474  26.802  21.543  1.00  0.00    -0.356 N 
ATOM      8  C   UNL A   1      32.668  26.145  21.630  1.00  0.00     0.227 C 
ATOM      9  O   UNL A   1      33.279  25.909  20.586  1.00  0.00    -0.275 OA
ATOM     10  H   UNL A   1      31.144  26.965  20.631  1.00  0.00     0.163 HD
BRANCH   8  11
ATOM     11  C   UNL A   1      33.161  25.629  22.966  1.00  0.00     0.088 C 
ATOM     12  H   UNL A   1      34.228  25.704  22.989  1.00  0.00     0.045 H 
ATOM     13  H   UNL A   1      32.705  26.225  23.729  1.00  0.00     0.045 H 
BRANCH  11  14
ATOM     14  C   UNL A   1      32.779  24.218  23.216  1.00  0.00     0.154 A 
ATOM     15  C   UNL A   1      32.439  22.087  23.727  1.00  0.00     0.122 A 
ATOM     16  N   UNL A   1      31.342  22.500  23.076  1.00  0.00    -0.079 NA
ATOM     17  C   UNL A   1      33.396  23.140  23.820  1.00  0.00     0.053 A 
ATOM     18  O   UNL A   1      31.548  23.834  22.782  1.00  0.00    -0.360 OA
BRANCH  15  19
ATOM     19  C   UNL A   1      32.558  20.734  24.252  1.00  0.00     0.005 A 
ATOM     20  C   UNL A   1      32.860  18.147  25.285  1.00  0.00     0.118 A 
ATOM     21  C   UNL A   1      32.696  18.341  23.912  1.00  0.00    -0.019 A 
ATOM     22  C   UNL A   1      32.902  19.245  26.142  1.00  0.00    -0.019 A 
ATOM     23  C   UNL A   1      32.527  19.629  23.395  1.00  0.00    -0.049 A 
ATOM     24  H   UNL A   1      32.699  17.529  23.276  1.00  0.00     0.066 H 
ATOM     25  C   UNL A   1      32.748  20.535  25.627  1.00  0.00    -0.049 A 
ATOM     26  H   UNL A   1      33.046  19.107  27.154  1.00  0.00     0.066 H 
ATOM     27  H   UNL A   1      32.381  19.764  22.383  1.00  0.00     0.063 H 
ATOM     28  H   UNL A   1      32.775  21.347  26.262  1.00  0.00     0.063 H 
BRANCH  20  29
ATOM     29  O   UNL A   1      33.023  16.852  25.694  1.00  0.00    -0.497 OA
BRANCH  29  30
ATOM     30  C   UNL A   1      33.027  15.905  24.628  1.00  0.00     0.078 C 
ATOM     31  H   UNL A   1      33.662  15.083  24.884  1.00  0.00     0.067 H 
ATOM     32  H   UNL A   1      33.391  16.372  23.737  1.00  0.00     0.067 H 
ATOM     33  H   UNL A   1      32.032  15.549  24.464  1.00  0.00     0.067 H 
ENDBRANCH  29  30
ENDBRANCH  20  29
ENDBRANCH  15  19
BRANCH  17  34
ATOM     34  C   UNL A   1      34.752  23.128  24.333  1.00  0.00    -0.012 A 
ATOM     35  C   UNL A   1      35.013  23.663  25.601  1.00  0.00    -0.050 A 
ATOM     36  C   UNL A   1      35.807  22.596  23.588  1.00  0.00    -0.050 A 
ATOM     37  C   UNL A   1      36.309  23.649  26.117  1.00  0.00    -0.019 A 
ATOM     38  H   UNL A   1      34.243  24.069  26.156  1.00  0.00     0.063 H 
ATOM     39  C   UNL A   1      37.108  22.585  24.109  1.00  0.00    -0.019 A 
ATOM     40  H   UNL A   1      35.629  22.209  22.648  1.00  0.00     0.063 H 
ATOM     41  C   UNL A   1      37.363  23.110  25.377  1.00  0.00     0.118 A 
ATOM     42  H   UNL A   1      36.491  24.040  27.055  1.00  0.00     0.066 H 
ATOM     43  H   UNL A   1      37.882  22.187  23.553  1.00  0.00     0.066 H 
BRANCH  41  44
ATOM     44  O   UNL A   1      38.577  23.158  26.003  1.00  0.00    -0.497 OA
BRANCH  44  45
ATOM     45  C   UNL A   1      39.282  21.930  26.139  1.00  0.00     0.078 C 
ATOM     46  H   UNL A   1      39.735  21.886  27.107  1.00  0.00     0.067 H 
ATOM     47  H   UNL A   1      40.039  21.868  25.387  1.00  0.00     0.067 H 
ATOM     48  H   UNL A   1      38.600  21.113  26.028  1.00  0.00     0.067 H 
ENDBRANCH  44  45
ENDBRANCH  41  44
ENDBRANCH  17  34
ENDBRANCH  11  14
ENDBRANCH   8  11
ENDBRANCH   4   7
ENDBRANCH   1   4
BRANCH   1  49
ATOM     49  C   UNL A   1      30.982  29.205  24.278  1.00  0.00    -0.052 C 
ATOM     50  H   UNL A   1      30.064  29.646  24.607  1.00  0.00     0.027 H 
ATOM     51  H   UNL A   1      31.812  29.879  24.308  1.00  0.00     0.027 H 
BRANCH  49  52
ATOM     52  C   UNL A   1      31.327  28.057  25.235  1.00  0.00    -0.052 C 
ATOM     53  H   UNL A   1      31.615  27.211  24.647  1.00  0.00     0.027 H 
ATOM     54  H   UNL A   1      30.451  27.888  25.825  1.00  0.00     0.027 H 
BRANCH  52  55
ATOM     55  C   UNL A   1      32.457  28.352  26.225  1.00  0.00    -0.036 C 
ATOM     56  H   UNL A   1      32.978  27.438  26.418  1.00  0.00     0.028 H 
ATOM     57  H   UNL A   1      31.995  28.766  27.097  1.00  0.00     0.028 H 
BRANCH  55  58
ATOM     58  C   UNL A   1      33.473  29.386  25.745  1.00  0.00     0.018 C 
ATOM     59  H   UNL A   1      33.497  29.375  24.676  1.00  0.00     0.049 H 
ATOM     60  H   UNL A   1      34.427  29.127  26.157  1.00  0.00     0.049 H 
BRANCH  58  61
ATOM     61  N   UNL A   1      33.139  30.728  26.195  1.00  0.00    -0.352 N 
ATOM     62  C   UNL A   1      33.662  31.460  27.227  1.00  0.00     0.251 C 
ATOM     63  H   UNL A   1      32.432  31.178  25.679  1.00  0.00     0.163 HD
ATOM     64  O   UNL A   1      33.114  32.508  27.577  1.00  0.00    -0.269 OA
BRANCH  62  65
ATOM     65  C   UNL A   1      34.872  31.000  27.941  1.00  0.00     0.039 A 
ATOM     66  C   UNL A   1      35.970  31.861  28.027  1.00  0.00    -0.049 A 
ATOM     67  C   UNL A   1      34.947  29.713  28.483  1.00  0.00    -0.049 A 
ATOM     68  C   UNL A   1      37.124  31.451  28.699  1.00  0.00    -0.053 A 
ATOM     69  H   UNL A   1      35.928  32.798  27.597  1.00  0.00     0.063 H 
ATOM     70  C   UNL A   1      36.075  29.327  29.204  1.00  0.00    -0.053 A 
ATOM     71  H   UNL A   1      34.167  29.051  28.350  1.00  0.00     0.063 H 
ATOM     72  C   UNL A   1      37.177  30.189  29.313  1.00  0.00    -0.014 A 
ATOM     73  H   UNL A   1      37.942  32.079  28.744  1.00  0.00     0.063 H 
ATOM     74  H   UNL A   1      36.100  28.402  29.661  1.00  0.00     0.063 H 
BRANCH  72  75
ATOM     75  C   UNL A   1      38.382  29.755  30.062  1.00  0.00     0.031 A 
ATOM     76  C   UNL A   1      38.638  30.274  31.449  1.00  0.00     0.074 A 
ATOM     77  C   UNL A   1      39.271  28.934  29.474  1.00  0.00     0.049 A 
ATOM     78  N   UNL A   1      39.657  30.051  32.241  1.00  0.00    -0.248 NA
ATOM     79  C   UNL A   1      37.626  31.180  32.013  1.00  0.00    -0.034 C 
ATOM     80  C   UNL A   1      39.156  28.397  28.117  1.00  0.00    -0.036 A 
ATOM     81  N   UNL A   1      40.453  28.413  29.938  1.00  0.00    -0.354 N 
ATOM     82  C   UNL A   1      39.415  30.798  33.386  1.00  0.00     0.074 A 
ATOM     83  C   UNL A   1      38.177  31.517  33.170  1.00  0.00    -0.034 C 
ATOM     84  H   UNL A   1      36.723  31.477  31.612  1.00  0.00     0.065 H 
ATOM     85  C   UNL A   1      40.212  27.607  27.866  1.00  0.00    -0.036 A 
ATOM     86  H   UNL A   1      38.385  28.593  27.460  1.00  0.00     0.065 H 
ATOM     87  C   UNL A   1      41.094  27.607  29.030  1.00  0.00     0.049 A 
ATOM     88  H   UNL A   1      40.807  28.600  30.837  1.00  0.00     0.167 HD
ATOM     89  C   UNL A   1      40.148  30.863  34.523  1.00  0.00     0.037 A 
ATOM     90  H   UNL A   1      37.778  32.203  33.829  1.00  0.00     0.065 H 
ATOM     91  H   UNL A   1      40.376  27.085  26.991  1.00  0.00     0.065 H 
ATOM     92  C   UNL A   1      42.262  26.945  29.126  1.00  0.00     0.037 A 
ATOM     93  C   UNL A   1      41.364  30.126  34.749  1.00  0.00     0.049 A 
ATOM     94  C   UNL A   1      43.055  27.030  30.402  1.00  0.00     0.074 A 
ATOM     95  C   UNL A   1      42.148  30.080  35.889  1.00  0.00    -0.036 A 
ATOM     96  N   UNL A   1      41.973  29.305  33.811  1.00  0.00    -0.354 N 
ATOM     97  N   UNL A   1      42.784  27.691  31.501  1.00  0.00    -0.248 NA
ATOM     98  C   UNL A   1      44.313  26.273  30.450  1.00  0.00    -0.034 C 
ATOM     99  C   UNL A   1      43.250  29.258  35.629  1.00  0.00    -0.036 A 
ATOM    100  H   UNL A   1      41.952  30.566  36.778  1.00  0.00     0.065 H 
ATOM    101  C   UNL A   1      43.132  28.761  34.342  1.00  0.00     0.049 A 
ATOM    102  H   UNL A   1      41.633  29.135  32.903  1.00  0.00     0.167 HD
ATOM    103  C   UNL A   1      43.821  27.409  32.379  1.00  0.00     0.074 A 
ATOM    104  C   UNL A   1      44.720  26.507  31.690  1.00  0.00    -0.034 C 
ATOM    105  H   UNL A   1      44.762  25.707  29.713  1.00  0.00     0.065 H 
ATOM    106  H   UNL A   1      44.020  29.057  36.285  1.00  0.00     0.065 H 
ATOM    107  C   UNL A   1      44.011  27.858  33.644  1.00  0.00     0.037 A 
ATOM    108  H   UNL A   1      45.569  26.097  32.111  1.00  0.00     0.065 H 
BRANCH  89 109
ATOM    109  C   UNL A   1      39.650  31.758  35.619  1.00  0.00     0.064 A 
ATOM    110  C   UNL A   1      40.133  33.067  35.775  1.00  0.00     0.173 A 
ATOM    111  C   UNL A   1      38.652  31.318  36.502  1.00  0.00     0.173 A 
ATOM    112  F   UNL A   1      41.095  33.531  34.964  1.00  0.00    -0.203 F 
ATOM    113  C   UNL A   1      39.656  33.891  36.790  1.00  0.00     0.198 A 
ATOM    114  C   UNL A   1      38.157  32.154  37.499  1.00  0.00     0.198 A 
ATOM    115  F   UNL A   1      38.151  30.078  36.393  1.00  0.00    -0.203 F 
ATOM    116  F   UNL A   1      40.164  35.121  36.947  1.00  0.00    -0.200 F 
ATOM    117  C   UNL A   1      38.664  33.437  37.647  1.00  0.00     0.200 A 
ATOM    118  F   UNL A   1      37.190  31.719  38.318  1.00  0.00    -0.200 F 
ATOM    119  F   UNL A   1      38.200  34.234  38.620  1.00  0.00    -0.200 F 
ENDBRANCH  89 109
BRANCH  92 120
ATOM    120  C   UNL A   1      42.738  26.117  27.989  1.00  0.00     0.064 A 
ATOM    121  C   UNL A   1      43.592  26.658  27.017  1.00  0.00     0.173 A 
ATOM    122  C   UNL A   1      42.352  24.777  27.849  1.00  0.00     0.173 A 
ATOM    123  F   UNL A   1      43.971  27.941  27.098  1.00  0.00    -0.203 F 
ATOM    124  C   UNL A   1      44.028  25.892  25.938  1.00  0.00     0.198 A 
ATOM    125  C   UNL A   1      42.809  24.006  26.782  1.00  0.00     0.198 A 
ATOM    126  F   UNL A   1      41.540  24.214  28.754  1.00  0.00    -0.203 F 
ATOM    127  F   UNL A   1      44.810  26.444  25.001  1.00  0.00    -0.200 F 
ATOM    128  C   UNL A   1      43.641  24.566  25.824  1.00  0.00     0.200 A 
ATOM    129  F   UNL A   1      42.442  22.720  26.681  1.00  0.00    -0.200 F 
ATOM    130  F   UNL A   1      44.062  23.829  24.787  1.00  0.00    -0.200 F 
ENDBRANCH  92 120
BRANCH 107 131
ATOM    131  C   UNL A   1      45.220  27.356  34.375  1.00  0.00     0.064 A 
ATOM    132  C   UNL A   1      45.183  26.175  35.130  1.00  0.00     0.173 A 
ATOM    133  C   UNL A   1      46.440  28.046  34.289  1.00  0.00     0.173 A 
ATOM    134  F   UNL A   1      44.036  25.490  35.256  1.00  0.00    -0.203 F 
ATOM    135  C   UNL A   1      46.318  25.713  35.791  1.00  0.00     0.198 A 
ATOM    136  C   UNL A   1      47.578  27.567  34.930  1.00  0.00     0.198 A 
ATOM    137  F   UNL A   1      46.527  29.178  33.575  1.00  0.00    -0.203 F 
ATOM    138  F   UNL A   1      46.249  24.606  36.542  1.00  0.00    -0.200 F 
ATOM    139  C   UNL A   1      47.516  26.405  35.684  1.00  0.00     0.200 A 
ATOM    140  F   UNL A   1      48.737  28.231  34.818  1.00  0.00    -0.200 F 
ATOM    141  F   UNL A   1      48.608  25.956  36.317  1.00  0.00    -0.200 F 
ENDBRANCH 107 131
ENDBRANCH  72  75
ENDBRANCH  62  65
ENDBRANCH  58  61
ENDBRANCH  55  58
ENDBRANCH  52  55
ENDBRANCH  49  52
ENDBRANCH   1  49
TORSDOF 20
ENDMDL
MODEL 4
REMARK VINA RESULT:     -12.0      5.331     11.236
REMARK SMILES COc1ccc(-c2noc(CC(=O)NCCCCCCNC(=O)c3ccc(-c4c5nc(c(-c6c(F)c(F)c(F)c(F)c6F)c6ccc([nH]6)c(-c6c(F)c(F)c(F)c(F)c6F)c6nc(c(-c7c(F)c(F)c(F)c(F)c7F)c7ccc4[nH]7)C=C6)C=C5)cc3)c2-c2ccc(OC)cc2)cc1
REMARK SMILES IDX 16 1 15 4 14 7 12 8 13 9 11 11 10 14 7 15 8 16 87 17 9 18
REMARK SMILES IDX 6 19 3 20 4 21 97 22 5 23 96 25 2 29 1 30 88 34 89 35 95 36
REMARK SMILES IDX 90 37 94 39 91 41 92 44 93 45 17 49 18 52 19 55 20 58 21 61
REMARK SMILES IDX 22 62 23 64 24 65 25 66 86 67 26 68 85 70 27 72 28 75 29 76
REMARK SMILES IDX 79 77 30 78 84 79 78 80 80 81 31 82 83 83 77 85 76 87 32 89
REMARK SMILES IDX 64 92 44 93 63 94 45 95 48 96 62 97 81 98 46 99 47 101
REMARK SMILES IDX 61 103 82 104 49 107 33 109 34 110 42 111 35 112 36 113
REMARK SMILES IDX 40 114 43 115 37 116 38 117 41 118 39 119 65 120 66 121
REMARK SMILES IDX 74 122 67 123 68 124 72 125 75 126 69 127 70 128 73 129
REMARK SMILES IDX 71 130 50 131 51 132 59 133 52 134 53 135 57 136 60 137
REMARK SMILES IDX 54 138 55 139 58 140 56 141
REMARK H PARENT 16 2 16 3 15 5 15 6 14 10 11 12 11 13 4 24 97 26 5 27 96 28
REMARK H PARENT 1 31 1 32 1 33 89 38 95 40 90 42 94 43 93 46 93 47 93 48 17 50
REMARK H PARENT 17 51 18 53 18 54 19 56 19 57 20 59 20 60 21 63 25 69 86 71
REMARK H PARENT 26 73 85 74 84 84 78 86 80 88 83 90 77 91 45 100 48 102 81 105
REMARK H PARENT 46 106 82 108
REMARK Flexibility Score: inf
ROOT
ATOM      1  C   UNL A   1      31.698  28.630  27.258  1.00  0.00    -0.036 C 
ATOM      2  H   UNL A   1      32.079  28.403  28.232  1.00  0.00     0.028 H 
ATOM      3  H   UNL A   1      30.644  28.816  27.268  1.00  0.00     0.028 H 
ENDROOT
BRANCH   1   4
ATOM      4  C   UNL A   1      31.934  27.422  26.351  1.00  0.00     0.017 C 
ATOM      5  H   UNL A   1      32.973  27.168  26.369  1.00  0.00     0.049 H 
ATOM      6  H   UNL A   1      31.343  26.605  26.709  1.00  0.00     0.049 H 
BRANCH   4   7
ATOM      7  N   UNL A   1      31.540  27.716  24.988  1.00  0.00    -0.356 N 
ATOM      8  C   UNL A   1      32.154  27.357  23.822  1.00  0.00     0.227 C 
ATOM      9  O   UNL A   1      31.705  27.805  22.766  1.00  0.00    -0.275 OA
ATOM     10  H   UNL A   1      30.719  28.248  24.889  1.00  0.00     0.163 HD
BRANCH   8  11
ATOM     11  C   UNL A   1      33.284  26.348  23.833  1.00  0.00     0.088 C 
ATOM     12  H   UNL A   1      33.935  26.554  23.009  1.00  0.00     0.045 H 
ATOM     13  H   UNL A   1      33.789  26.440  24.772  1.00  0.00     0.045 H 
BRANCH  11  14
ATOM     14  C   UNL A   1      32.808  24.948  23.720  1.00  0.00     0.154 A 
ATOM     15  C   UNL A   1      32.327  22.783  23.668  1.00  0.00     0.122 A 
ATOM     16  N   UNL A   1      31.245  23.422  23.201  1.00  0.00    -0.079 NA
ATOM     17  C   UNL A   1      33.361  23.712  23.988  1.00  0.00     0.053 A 
ATOM     18  O   UNL A   1      31.539  24.771  23.261  1.00  0.00    -0.360 OA
BRANCH  15  19
ATOM     19  C   UNL A   1      32.362  21.335  23.811  1.00  0.00     0.005 A 
ATOM     20  C   UNL A   1      32.506  18.552  24.108  1.00  0.00     0.118 A 
ATOM     21  C   UNL A   1      32.276  19.114  22.851  1.00  0.00    -0.019 A 
ATOM     22  C   UNL A   1      32.692  19.378  25.214  1.00  0.00    -0.019 A 
ATOM     23  C   UNL A   1      32.187  20.501  22.702  1.00  0.00    -0.049 A 
ATOM     24  H   UNL A   1      32.172  18.501  22.026  1.00  0.00     0.066 H 
ATOM     25  C   UNL A   1      32.618  20.765  25.066  1.00  0.00    -0.049 A 
ATOM     26  H   UNL A   1      32.885  18.967  26.141  1.00  0.00     0.066 H 
ATOM     27  H   UNL A   1      31.991  20.909  21.774  1.00  0.00     0.063 H 
ATOM     28  H   UNL A   1      32.752  21.376  25.887  1.00  0.00     0.063 H 
BRANCH  20  29
ATOM     29  O   UNL A   1      32.583  17.187  24.151  1.00  0.00    -0.497 OA
BRANCH  29  30
ATOM     30  C   UNL A   1      33.850  16.666  23.757  1.00  0.00     0.078 C 
ATOM     31  H   UNL A   1      33.713  15.720  23.277  1.00  0.00     0.067 H 
ATOM     32  H   UNL A   1      34.468  16.540  24.621  1.00  0.00     0.067 H 
ATOM     33  H   UNL A   1      34.319  17.346  23.077  1.00  0.00     0.067 H 
ENDBRANCH  29  30
ENDBRANCH  20  29
ENDBRANCH  15  19
BRANCH  17  34
ATOM     34  C   UNL A   1      34.728  23.478  24.414  1.00  0.00    -0.012 A 
ATOM     35  C   UNL A   1      35.134  23.902  25.685  1.00  0.00    -0.050 A 
ATOM     36  C   UNL A   1      35.650  22.841  23.581  1.00  0.00    -0.050 A 
ATOM     37  C   UNL A   1      36.441  23.675  26.118  1.00  0.00    -0.019 A 
ATOM     38  H   UNL A   1      34.464  24.384  26.305  1.00  0.00     0.063 H 
ATOM     39  C   UNL A   1      36.963  22.616  24.019  1.00  0.00    -0.019 A 
ATOM     40  H   UNL A   1      35.365  22.534  22.638  1.00  0.00     0.063 H 
ATOM     41  C   UNL A   1      37.362  23.031  25.290  1.00  0.00     0.118 A 
ATOM     42  H   UNL A   1      36.729  23.986  27.060  1.00  0.00     0.066 H 
ATOM     43  H   UNL A   1      37.638  22.141  23.398  1.00  0.00     0.066 H 
BRANCH  41  44
ATOM     44  O   UNL A   1      38.602  22.872  25.840  1.00  0.00    -0.497 OA
BRANCH  44  45
ATOM     45  C   UNL A   1      39.117  21.547  25.899  1.00  0.00     0.078 C 
ATOM     46  H   UNL A   1      39.230  21.165  24.906  1.00  0.00     0.067 H 
ATOM     47  H   UNL A   1      38.441  20.926  26.446  1.00  0.00     0.067 H 
ATOM     48  H   UNL A   1      40.069  21.556  26.387  1.00  0.00     0.067 H 
ENDBRANCH  44  45
ENDBRANCH  41  44
ENDBRANCH  17  34
ENDBRANCH  11  14
ENDBRANCH   8  11
ENDBRANCH   4   7
ENDBRANCH   1   4
BRANCH   1  49
ATOM     49  C   UNL A   1      32.377  29.913  26.759  1.00  0.00    -0.052 C 
ATOM     50  H   UNL A   1      33.172  29.633  26.101  1.00  0.00     0.027 H 
ATOM     51  H   UNL A   1      32.710  30.434  27.632  1.00  0.00     0.027 H 
BRANCH  49  52
ATOM     52  C   UNL A   1      31.456  30.883  26.008  1.00  0.00    -0.052 C 
ATOM     53  H   UNL A   1      30.484  30.440  25.951  1.00  0.00     0.027 H 
ATOM     54  H   UNL A   1      31.909  31.042  25.051  1.00  0.00     0.027 H 
BRANCH  52  55
ATOM     55  C   UNL A   1      31.309  32.268  26.644  1.00  0.00    -0.036 C 
ATOM     56  H   UNL A   1      30.583  32.199  27.427  1.00  0.00     0.028 H 
ATOM     57  H   UNL A   1      31.020  32.933  25.858  1.00  0.00     0.028 H 
BRANCH  55  58
ATOM     58  C   UNL A   1      32.595  32.838  27.238  1.00  0.00     0.018 C 
ATOM     59  H   UNL A   1      33.369  32.782  26.501  1.00  0.00     0.049 H 
ATOM     60  H   UNL A   1      32.842  32.262  28.105  1.00  0.00     0.049 H 
BRANCH  58  61
ATOM     61  N   UNL A   1      32.438  34.224  27.649  1.00  0.00    -0.352 N 
ATOM     62  C   UNL A   1      33.058  34.913  28.657  1.00  0.00     0.251 C 
ATOM     63  H   UNL A   1      31.789  34.745  27.124  1.00  0.00     0.163 HD
ATOM     64  O   UNL A   1      32.651  36.031  28.979  1.00  0.00    -0.269 OA
BRANCH  62  65
ATOM     65  C   UNL A   1      34.206  34.323  29.378  1.00  0.00     0.039 A 
ATOM     66  C   UNL A   1      33.963  33.584  30.539  1.00  0.00    -0.049 A 
ATOM     67  C   UNL A   1      35.519  34.532  28.943  1.00  0.00    -0.049 A 
ATOM     68  C   UNL A   1      35.029  33.014  31.238  1.00  0.00    -0.053 A 
ATOM     69  H   UNL A   1      32.997  33.459  30.880  1.00  0.00     0.063 H 
ATOM     70  C   UNL A   1      36.577  33.913  29.606  1.00  0.00    -0.053 A 
ATOM     71  H   UNL A   1      35.703  35.142  28.132  1.00  0.00     0.063 H 
ATOM     72  C   UNL A   1      36.344  33.154  30.763  1.00  0.00    -0.014 A 
ATOM     73  H   UNL A   1      34.851  32.486  32.106  1.00  0.00     0.063 H 
ATOM     74  H   UNL A   1      37.539  34.013  29.243  1.00  0.00     0.063 H 
BRANCH  72  75
ATOM     75  C   UNL A   1      37.483  32.522  31.473  1.00  0.00     0.031 A 
ATOM     76  C   UNL A   1      38.207  31.358  30.857  1.00  0.00     0.074 A 
ATOM     77  C   UNL A   1      37.833  32.965  32.695  1.00  0.00     0.049 A 
ATOM     78  N   UNL A   1      39.190  30.643  31.344  1.00  0.00    -0.248 NA
ATOM     79  C   UNL A   1      37.751  30.926  29.527  1.00  0.00    -0.034 C 
ATOM     80  C   UNL A   1      37.181  34.058  33.416  1.00  0.00    -0.036 A 
ATOM     81  N   UNL A   1      38.819  32.542  33.551  1.00  0.00    -0.354 N 
ATOM     82  C   UNL A   1      39.459  29.672  30.388  1.00  0.00     0.074 A 
ATOM     83  C   UNL A   1      38.507  29.859  29.314  1.00  0.00    -0.034 C 
ATOM     84  H   UNL A   1      37.030  31.344  28.918  1.00  0.00     0.065 H 
ATOM     85  C   UNL A   1      37.796  34.235  34.596  1.00  0.00    -0.036 A 
ATOM     86  H   UNL A   1      36.378  34.607  33.072  1.00  0.00     0.065 H 
ATOM     87  C   UNL A   1      38.864  33.247  34.729  1.00  0.00     0.049 A 
ATOM     88  H   UNL A   1      39.436  31.805  33.341  1.00  0.00     0.167 HD
ATOM     89  C   UNL A   1      40.426  28.723  30.397  1.00  0.00     0.037 A 
ATOM     90  H   UNL A   1      38.427  29.241  28.491  1.00  0.00     0.065 H 
ATOM     91  H   UNL A   1      37.553  34.951  35.298  1.00  0.00     0.065 H 
ATOM     92  C   UNL A   1      39.675  33.111  35.794  1.00  0.00     0.037 A 
ATOM     93  C   UNL A   1      41.390  28.556  31.452  1.00  0.00     0.049 A 
ATOM     94  C   UNL A   1      40.744  32.052  35.777  1.00  0.00     0.074 A 
ATOM     95  C   UNL A   1      42.444  27.663  31.526  1.00  0.00    -0.036 A 
ATOM     96  N   UNL A   1      41.416  29.302  32.622  1.00  0.00    -0.354 N 
ATOM     97  N   UNL A   1      41.028  31.180  34.841  1.00  0.00    -0.248 NA
ATOM     98  C   UNL A   1      41.606  31.963  36.963  1.00  0.00    -0.034 C 
ATOM     99  C   UNL A   1      43.087  27.844  32.756  1.00  0.00    -0.036 A 
ATOM    100  H   UNL A   1      42.712  26.981  30.799  1.00  0.00     0.065 H 
ATOM    101  C   UNL A   1      42.458  28.877  33.430  1.00  0.00     0.049 A 
ATOM    102  H   UNL A   1      40.786  30.025  32.844  1.00  0.00     0.167 HD
ATOM    103  C   UNL A   1      42.116  30.458  35.311  1.00  0.00     0.074 A 
ATOM    104  C   UNL A   1      42.450  31.002  36.611  1.00  0.00    -0.034 C 
ATOM    105  H   UNL A   1      41.567  32.506  37.839  1.00  0.00     0.065 H 
ATOM    106  H   UNL A   1      43.893  27.300  33.101  1.00  0.00     0.065 H 
ATOM    107  C   UNL A   1      42.780  29.436  34.718  1.00  0.00     0.037 A 
ATOM    108  H   UNL A   1      43.243  30.684  37.189  1.00  0.00     0.065 H 
BRANCH  89 109
ATOM    109  C   UNL A   1      40.495  27.794  29.221  1.00  0.00     0.064 A 
ATOM    110  C   UNL A   1      41.397  28.010  28.168  1.00  0.00     0.173 A 
ATOM    111  C   UNL A   1      39.678  26.655  29.162  1.00  0.00     0.173 A 
ATOM    112  F   UNL A   1      42.192  29.090  28.172  1.00  0.00    -0.203 F 
ATOM    113  C   UNL A   1      41.459  27.135  27.087  1.00  0.00     0.198 A 
ATOM    114  C   UNL A   1      39.762  25.767  28.093  1.00  0.00     0.198 A 
ATOM    115  F   UNL A   1      38.803  26.398  30.146  1.00  0.00    -0.203 F 
ATOM    116  F   UNL A   1      42.298  27.386  26.071  1.00  0.00    -0.200 F 
ATOM    117  C   UNL A   1      40.647  26.011  27.053  1.00  0.00     0.200 A 
ATOM    118  F   UNL A   1      38.986  24.675  28.067  1.00  0.00    -0.200 F 
ATOM    119  F   UNL A   1      40.713  25.166  26.015  1.00  0.00    -0.200 F 
ENDBRANCH  89 109
BRANCH  92 120
ATOM    120  C   UNL A   1      39.527  34.022  36.958  1.00  0.00     0.064 A 
ATOM    121  C   UNL A   1      40.162  35.272  36.974  1.00  0.00     0.173 A 
ATOM    122  C   UNL A   1      38.755  33.665  38.072  1.00  0.00     0.173 A 
ATOM    123  F   UNL A   1      40.928  35.647  35.940  1.00  0.00    -0.203 F 
ATOM    124  C   UNL A   1      40.043  36.124  38.070  1.00  0.00     0.198 A 
ATOM    125  C   UNL A   1      38.618  34.529  39.157  1.00  0.00     0.198 A 
ATOM    126  F   UNL A   1      38.126  32.482  38.102  1.00  0.00    -0.203 F 
ATOM    127  F   UNL A   1      40.693  37.296  38.077  1.00  0.00    -0.200 F 
ATOM    128  C   UNL A   1      39.267  35.755  39.157  1.00  0.00     0.200 A 
ATOM    129  F   UNL A   1      37.857  34.174  40.202  1.00  0.00    -0.200 F 
ATOM    130  F   UNL A   1      39.151  36.575  40.210  1.00  0.00    -0.200 F 
ENDBRANCH  92 120
BRANCH 107 131
ATOM    131  C   UNL A   1      43.951  28.859  35.456  1.00  0.00     0.064 A 
ATOM    132  C   UNL A   1      43.796  27.813  36.377  1.00  0.00     0.173 A 
ATOM    133  C   UNL A   1      45.249  29.334  35.210  1.00  0.00     0.173 A 
ATOM    134  F   UNL A   1      42.573  27.338  36.658  1.00  0.00    -0.203 F 
ATOM    135  C   UNL A   1      44.895  27.278  37.043  1.00  0.00     0.198 A 
ATOM    136  C   UNL A   1      46.348  28.778  35.858  1.00  0.00     0.198 A 
ATOM    137  F   UNL A   1      45.450  30.330  34.334  1.00  0.00    -0.203 F 
ATOM    138  F   UNL A   1      44.719  26.309  37.951  1.00  0.00    -0.200 F 
ATOM    139  C   UNL A   1      46.170  27.755  36.777  1.00  0.00     0.200 A 
ATOM    140  F   UNL A   1      47.580  29.234  35.593  1.00  0.00    -0.200 F 
ATOM    141  F   UNL A   1      47.227  27.235  37.415  1.00  0.00    -0.200 F 
ENDBRANCH 107 131
ENDBRANCH  72  75
ENDBRANCH  62  65
ENDBRANCH  58  61
ENDBRANCH  55  58
ENDBRANCH  52  55
ENDBRANCH  49  52
ENDBRANCH   1  49
TORSDOF 20
ENDMDL
MODEL 5
REMARK VINA RESULT:     -12.0      5.319     11.296
REMARK SMILES COc1ccc(-c2noc(CC(=O)NCCCCCCNC(=O)c3ccc(-c4c5nc(c(-c6c(F)c(F)c(F)c(F)c6F)c6ccc([nH]6)c(-c6c(F)c(F)c(F)c(F)c6F)c6nc(c(-c7c(F)c(F)c(F)c(F)c7F)c7ccc4[nH]7)C=C6)C=C5)cc3)c2-c2ccc(OC)cc2)cc1
REMARK SMILES IDX 16 1 15 4 14 7 12 8 13 9 11 11 10 14 7 15 8 16 87 17 9 18
REMARK SMILES IDX 6 19 3 20 4 21 97 22 5 23 96 25 2 29 1 30 88 34 89 35 95 36
REMARK SMILES IDX 90 37 94 39 91 41 92 44 93 45 17 49 18 52 19 55 20 58 21 61
REMARK SMILES IDX 22 62 23 64 24 65 25 66 86 67 26 68 85 70 27 72 28 75 29 76
REMARK SMILES IDX 79 77 30 78 84 79 78 80 80 81 31 82 83 83 77 85 76 87 32 89
REMARK SMILES IDX 64 92 44 93 63 94 45 95 48 96 62 97 81 98 46 99 47 101
REMARK SMILES IDX 61 103 82 104 49 107 33 109 34 110 42 111 35 112 36 113
REMARK SMILES IDX 40 114 43 115 37 116 38 117 41 118 39 119 65 120 66 121
REMARK SMILES IDX 74 122 67 123 68 124 72 125 75 126 69 127 70 128 73 129
REMARK SMILES IDX 71 130 50 131 51 132 59 133 52 134 53 135 57 136 60 137
REMARK SMILES IDX 54 138 55 139 58 140 56 141
REMARK H PARENT 16 2 16 3 15 5 15 6 14 10 11 12 11 13 4 24 97 26 5 27 96 28
REMARK H PARENT 1 31 1 32 1 33 89 38 95 40 90 42 94 43 93 46 93 47 93 48 17 50
REMARK H PARENT 17 51 18 53 18 54 19 56 19 57 20 59 20 60 21 63 25 69 86 71
REMARK H PARENT 26 73 85 74 84 84 78 86 80 88 83 90 77 91 45 100 48 102 81 105
REMARK H PARENT 46 106 82 108
REMARK Flexibility Score: inf
ROOT
ATOM      1  C   UNL A   1      31.970  28.883  24.435  1.00  0.00    -0.036 C 
ATOM      2  H   UNL A   1      32.890  29.172  23.973  1.00  0.00     0.028 H 
ATOM      3  H   UNL A   1      32.124  28.262  25.293  1.00  0.00     0.028 H 
ENDROOT
BRANCH   1   4
ATOM      4  C   UNL A   1      31.157  28.068  23.430  1.00  0.00     0.017 C 
ATOM      5  H   UNL A   1      30.736  27.218  23.926  1.00  0.00     0.049 H 
ATOM      6  H   UNL A   1      30.382  28.688  23.032  1.00  0.00     0.049 H 
BRANCH   4   7
ATOM      7  N   UNL A   1      31.993  27.612  22.337  1.00  0.00    -0.356 N 
ATOM      8  C   UNL A   1      33.068  26.771  22.373  1.00  0.00     0.227 C 
ATOM      9  O   UNL A   1      33.706  26.598  21.333  1.00  0.00    -0.275 OA
ATOM     10  H   UNL A   1      31.753  27.958  21.448  1.00  0.00     0.163 HD
BRANCH   8  11
ATOM     11  C   UNL A   1      33.388  25.994  23.633  1.00  0.00     0.088 C 
ATOM     12  H   UNL A   1      34.448  26.002  23.781  1.00  0.00     0.045 H 
ATOM     13  H   UNL A   1      32.870  26.465  24.442  1.00  0.00     0.045 H 
BRANCH  11  14
ATOM     14  C   UNL A   1      32.930  24.584  23.573  1.00  0.00     0.154 A 
ATOM     15  C   UNL A   1      32.470  22.415  23.617  1.00  0.00     0.122 A 
ATOM     16  N   UNL A   1      31.415  23.014  23.046  1.00  0.00    -0.079 NA
ATOM     17  C   UNL A   1      33.474  23.372  23.948  1.00  0.00     0.053 A 
ATOM     18  O   UNL A   1      31.695  24.367  23.044  1.00  0.00    -0.360 OA
BRANCH  15  19
ATOM     19  C   UNL A   1      32.506  20.978  23.848  1.00  0.00     0.005 A 
ATOM     20  C   UNL A   1      32.653  18.218  24.309  1.00  0.00     0.118 A 
ATOM     21  C   UNL A   1      32.387  18.704  23.027  1.00  0.00    -0.019 A 
ATOM     22  C   UNL A   1      32.873  19.109  25.357  1.00  0.00    -0.019 A 
ATOM     23  C   UNL A   1      32.297  20.079  22.796  1.00  0.00    -0.049 A 
ATOM     24  H   UNL A   1      32.258  18.042  22.245  1.00  0.00     0.066 H 
ATOM     25  C   UNL A   1      32.797  20.485  25.127  1.00  0.00    -0.049 A 
ATOM     26  H   UNL A   1      33.092  18.754  26.300  1.00  0.00     0.066 H 
ATOM     27  H   UNL A   1      32.075  20.431  21.852  1.00  0.00     0.063 H 
ATOM     28  H   UNL A   1      32.957  21.144  25.905  1.00  0.00     0.063 H 
BRANCH  20  29
ATOM     29  O   UNL A   1      32.728  16.858  24.433  1.00  0.00    -0.497 OA
BRANCH  29  30
ATOM     30  C   UNL A   1      32.776  16.402  25.783  1.00  0.00     0.078 C 
ATOM     31  H   UNL A   1      31.961  15.734  25.963  1.00  0.00     0.067 H 
ATOM     32  H   UNL A   1      32.703  17.239  26.445  1.00  0.00     0.067 H 
ATOM     33  H   UNL A   1      33.701  15.891  25.954  1.00  0.00     0.067 H 
ENDBRANCH  29  30
ENDBRANCH  20  29
ENDBRANCH  15  19
BRANCH  17  34
ATOM     34  C   UNL A   1      34.812  23.179  24.473  1.00  0.00    -0.012 A 
ATOM     35  C   UNL A   1      35.746  22.451  23.726  1.00  0.00    -0.050 A 
ATOM     36  C   UNL A   1      35.190  23.703  25.712  1.00  0.00    -0.050 A 
ATOM     37  C   UNL A   1      37.042  22.266  24.209  1.00  0.00    -0.019 A 
ATOM     38  H   UNL A   1      35.475  22.050  22.815  1.00  0.00     0.063 H 
ATOM     39  C   UNL A   1      36.492  23.514  26.194  1.00  0.00    -0.019 A 
ATOM     40  H   UNL A   1      34.507  24.233  26.276  1.00  0.00     0.063 H 
ATOM     41  C   UNL A   1      37.424  22.796  25.442  1.00  0.00     0.118 A 
ATOM     42  H   UNL A   1      37.726  21.732  23.648  1.00  0.00     0.066 H 
ATOM     43  H   UNL A   1      36.764  23.907  27.109  1.00  0.00     0.066 H 
BRANCH  41  44
ATOM     44  O   UNL A   1      38.720  22.542  25.791  1.00  0.00    -0.497 OA
BRANCH  44  45
ATOM     45  C   UNL A   1      39.137  21.182  25.782  1.00  0.00     0.078 C 
ATOM     46  H   UNL A   1      39.892  21.047  25.036  1.00  0.00     0.067 H 
ATOM     47  H   UNL A   1      38.300  20.554  25.562  1.00  0.00     0.067 H 
ATOM     48  H   UNL A   1      39.534  20.925  26.741  1.00  0.00     0.067 H 
ENDBRANCH  44  45
ENDBRANCH  41  44
ENDBRANCH  17  34
ENDBRANCH  11  14
ENDBRANCH   8  11
ENDBRANCH   4   7
ENDBRANCH   1   4
BRANCH   1  49
ATOM     49  C   UNL A   1      31.252  30.150  24.920  1.00  0.00    -0.052 C 
ATOM     50  H   UNL A   1      30.199  29.996  24.813  1.00  0.00     0.027 H 
ATOM     51  H   UNL A   1      31.627  30.954  24.322  1.00  0.00     0.027 H 
BRANCH  49  52
ATOM     52  C   UNL A   1      31.532  30.536  26.378  1.00  0.00    -0.052 C 
ATOM     53  H   UNL A   1      32.523  30.214  26.621  1.00  0.00     0.027 H 
ATOM     54  H   UNL A   1      30.772  30.059  26.962  1.00  0.00     0.027 H 
BRANCH  52  55
ATOM     55  C   UNL A   1      31.431  32.032  26.687  1.00  0.00    -0.036 C 
ATOM     56  H   UNL A   1      30.704  32.164  27.461  1.00  0.00     0.028 H 
ATOM     57  H   UNL A   1      31.162  32.513  25.770  1.00  0.00     0.028 H 
BRANCH  55  58
ATOM     58  C   UNL A   1      32.735  32.679  27.146  1.00  0.00     0.018 C 
ATOM     59  H   UNL A   1      33.429  32.671  26.332  1.00  0.00     0.049 H 
ATOM     60  H   UNL A   1      33.108  32.118  27.978  1.00  0.00     0.049 H 
BRANCH  58  61
ATOM     61  N   UNL A   1      32.539  34.053  27.582  1.00  0.00    -0.352 N 
ATOM     62  C   UNL A   1      33.129  34.736  28.611  1.00  0.00     0.251 C 
ATOM     63  H   UNL A   1      31.885  34.569  27.058  1.00  0.00     0.163 HD
ATOM     64  O   UNL A   1      32.690  35.838  28.949  1.00  0.00    -0.269 OA
BRANCH  62  65
ATOM     65  C   UNL A   1      34.281  34.161  29.336  1.00  0.00     0.039 A 
ATOM     66  C   UNL A   1      34.037  33.325  30.430  1.00  0.00    -0.049 A 
ATOM     67  C   UNL A   1      35.595  34.475  28.975  1.00  0.00    -0.049 A 
ATOM     68  C   UNL A   1      35.108  32.765  31.131  1.00  0.00    -0.053 A 
ATOM     69  H   UNL A   1      33.068  33.120  30.718  1.00  0.00     0.063 H 
ATOM     70  C   UNL A   1      36.662  33.869  29.636  1.00  0.00    -0.053 A 
ATOM     71  H   UNL A   1      35.774  35.154  28.218  1.00  0.00     0.063 H 
ATOM     72  C   UNL A   1      36.429  33.015  30.724  1.00  0.00    -0.014 A 
ATOM     73  H   UNL A   1      34.928  32.165  31.950  1.00  0.00     0.063 H 
ATOM     74  H   UNL A   1      37.629  34.051  29.323  1.00  0.00     0.063 H 
BRANCH  72  75
ATOM     75  C   UNL A   1      37.576  32.397  31.435  1.00  0.00     0.031 A 
ATOM     76  C   UNL A   1      38.323  31.251  30.813  1.00  0.00     0.074 A 
ATOM     77  C   UNL A   1      37.911  32.835  32.663  1.00  0.00     0.049 A 
ATOM     78  N   UNL A   1      39.317  30.550  31.299  1.00  0.00    -0.248 NA
ATOM     79  C   UNL A   1      37.883  30.823  29.477  1.00  0.00    -0.034 C 
ATOM     80  C   UNL A   1      37.236  33.911  33.390  1.00  0.00    -0.036 A 
ATOM     81  N   UNL A   1      38.900  32.423  33.521  1.00  0.00    -0.354 N 
ATOM     82  C   UNL A   1      39.609  29.592  30.337  1.00  0.00     0.074 A 
ATOM     83  C   UNL A   1      38.659  29.771  29.259  1.00  0.00    -0.034 C 
ATOM     84  H   UNL A   1      37.159  31.233  28.868  1.00  0.00     0.065 H 
ATOM     85  C   UNL A   1      37.841  34.088  34.575  1.00  0.00    -0.036 A 
ATOM     86  H   UNL A   1      36.424  34.448  33.045  1.00  0.00     0.065 H 
ATOM     87  C   UNL A   1      38.926  33.119  34.705  1.00  0.00     0.049 A 
ATOM     88  H   UNL A   1      39.531  31.698  33.308  1.00  0.00     0.167 HD
ATOM     89  C   UNL A   1      40.592  28.661  30.343  1.00  0.00     0.037 A 
ATOM     90  H   UNL A   1      38.595  29.160  28.431  1.00  0.00     0.065 H 
ATOM     91  H   UNL A   1      37.581  34.794  35.281  1.00  0.00     0.065 H 
ATOM     92  C   UNL A   1      39.733  32.987  35.774  1.00  0.00     0.037 A 
ATOM     93  C   UNL A   1      41.554  28.502  31.403  1.00  0.00     0.049 A 
ATOM     94  C   UNL A   1      40.821  31.948  35.753  1.00  0.00     0.074 A 
ATOM     95  C   UNL A   1      42.623  27.627  31.474  1.00  0.00    -0.036 A 
ATOM     96  N   UNL A   1      41.559  29.238  32.578  1.00  0.00    -0.354 N 
ATOM     97  N   UNL A   1      41.126  31.090  34.811  1.00  0.00    -0.248 NA
ATOM     98  C   UNL A   1      41.678  31.864  36.943  1.00  0.00    -0.034 C 
ATOM     99  C   UNL A   1      43.256  27.809  32.709  1.00  0.00    -0.036 A 
ATOM    100  H   UNL A   1      42.907  26.956  30.743  1.00  0.00     0.065 H 
ATOM    101  C   UNL A   1      42.604  28.825  33.389  1.00  0.00     0.049 A 
ATOM    102  H   UNL A   1      40.915  29.948  32.804  1.00  0.00     0.167 HD
ATOM    103  C   UNL A   1      42.224  30.383  35.281  1.00  0.00     0.074 A 
ATOM    104  C   UNL A   1      42.541  30.922  36.588  1.00  0.00    -0.034 C 
ATOM    105  H   UNL A   1      41.624  32.398  37.824  1.00  0.00     0.065 H 
ATOM    106  H   UNL A   1      44.069  27.276  33.055  1.00  0.00     0.065 H 
ATOM    107  C   UNL A   1      42.909  29.378  34.684  1.00  0.00     0.037 A 
ATOM    108  H   UNL A   1      43.336  30.613  37.168  1.00  0.00     0.065 H 
BRANCH  89 109
ATOM    109  C   UNL A   1      40.685  27.743  29.160  1.00  0.00     0.064 A 
ATOM    110  C   UNL A   1      39.835  26.635  29.022  1.00  0.00     0.173 A 
ATOM    111  C   UNL A   1      41.609  27.993  28.134  1.00  0.00     0.173 A 
ATOM    112  F   UNL A   1      38.943  26.347  29.981  1.00  0.00    -0.203 F 
ATOM    113  C   UNL A   1      39.924  25.797  27.915  1.00  0.00     0.198 A 
ATOM    114  C   UNL A   1      41.676  27.168  27.014  1.00  0.00     0.198 A 
ATOM    115  F   UNL A   1      42.441  29.043  28.212  1.00  0.00    -0.203 F 
ATOM    116  F   UNL A   1      39.132  24.719  27.827  1.00  0.00    -0.200 F 
ATOM    117  C   UNL A   1      40.840  26.067  26.908  1.00  0.00     0.200 A 
ATOM    118  F   UNL A   1      42.553  27.437  26.037  1.00  0.00    -0.200 F 
ATOM    119  F   UNL A   1      40.920  25.262  25.840  1.00  0.00    -0.200 F 
ENDBRANCH  89 109
BRANCH  92 120
ATOM    120  C   UNL A   1      39.563  33.885  36.944  1.00  0.00     0.064 A 
ATOM    121  C   UNL A   1      38.784  33.491  38.042  1.00  0.00     0.173 A 
ATOM    122  C   UNL A   1      40.168  35.149  36.991  1.00  0.00     0.173 A 
ATOM    123  F   UNL A   1      38.168  32.301  38.033  1.00  0.00    -0.203 F 
ATOM    124  C   UNL A   1      38.604  34.337  39.135  1.00  0.00     0.198 A 
ATOM    125  C   UNL A   1      40.006  35.982  38.095  1.00  0.00     0.198 A 
ATOM    126  F   UNL A   1      40.924  35.569  35.967  1.00  0.00    -0.203 F 
ATOM    127  F   UNL A   1      37.822  33.952  40.153  1.00  0.00    -0.200 F 
ATOM    128  C   UNL A   1      39.220  35.578  39.164  1.00  0.00     0.200 A 
ATOM    129  F   UNL A   1      40.613  37.177  38.125  1.00  0.00    -0.200 F 
ATOM    130  F   UNL A   1      39.049  36.389  40.216  1.00  0.00    -0.200 F 
ENDBRANCH  92 120
BRANCH 107 131
ATOM    131  C   UNL A   1      44.087  28.816  35.423  1.00  0.00     0.064 A 
ATOM    132  C   UNL A   1      43.950  27.741  36.313  1.00  0.00     0.173 A 
ATOM    133  C   UNL A   1      45.373  29.336  35.210  1.00  0.00     0.173 A 
ATOM    134  F   UNL A   1      42.738  27.222  36.562  1.00  0.00    -0.203 F 
ATOM    135  C   UNL A   1      45.055  27.220  36.980  1.00  0.00     0.198 A 
ATOM    136  C   UNL A   1      46.479  28.795  35.859  1.00  0.00     0.198 A 
ATOM    137  F   UNL A   1      45.557  30.361  34.364  1.00  0.00    -0.203 F 
ATOM    138  F   UNL A   1      44.895  26.221  37.859  1.00  0.00    -0.200 F 
ATOM    139  C   UNL A   1      46.319  27.742  36.747  1.00  0.00     0.200 A 
ATOM    140  F   UNL A   1      47.701  29.294  35.625  1.00  0.00    -0.200 F 
ATOM    141  F   UNL A   1      47.382  27.236  37.387  1.00  0.00    -0.200 F 
ENDBRANCH 107 131
ENDBRANCH  72  75
ENDBRANCH  62  65
ENDBRANCH  58  61
ENDBRANCH  55  58
ENDBRANCH  52  55
ENDBRANCH  49  52
ENDBRANCH   1  49
TORSDOF 20
ENDMDL
MODEL 6
REMARK VINA RESULT:     -11.9      0.417      1.580
REMARK SMILES COc1ccc(-c2noc(CC(=O)NCCCCCCNC(=O)c3ccc(-c4c5nc(c(-c6c(F)c(F)c(F)c(F)c6F)c6ccc([nH]6)c(-c6c(F)c(F)c(F)c(F)c6F)c6nc(c(-c7c(F)c(F)c(F)c(F)c7F)c7ccc4[nH]7)C=C6)C=C5)cc3)c2-c2ccc(OC)cc2)cc1
REMARK SMILES IDX 16 1 15 4 14 7 12 8 13 9 11 11 10 14 7 15 8 16 87 17 9 18
REMARK SMILES IDX 6 19 3 20 4 21 97 22 5 23 96 25 2 29 1 30 88 34 89 35 95 36
REMARK SMILES IDX 90 37 94 39 91 41 92 44 93 45 17 49 18 52 19 55 20 58 21 61
REMARK SMILES IDX 22 62 23 64 24 65 25 66 86 67 26 68 85 70 27 72 28 75 29 76
REMARK SMILES IDX 79 77 30 78 84 79 78 80 80 81 31 82 83 83 77 85 76 87 32 89
REMARK SMILES IDX 64 92 44 93 63 94 45 95 48 96 62 97 81 98 46 99 47 101
REMARK SMILES IDX 61 103 82 104 49 107 33 109 34 110 42 111 35 112 36 113
REMARK SMILES IDX 40 114 43 115 37 116 38 117 41 118 39 119 65 120 66 121
REMARK SMILES IDX 74 122 67 123 68 124 72 125 75 126 69 127 70 128 73 129
REMARK SMILES IDX 71 130 50 131 51 132 59 133 52 134 53 135 57 136 60 137
REMARK SMILES IDX 54 138 55 139 58 140 56 141
REMARK H PARENT 16 2 16 3 15 5 15 6 14 10 11 12 11 13 4 24 97 26 5 27 96 28
REMARK H PARENT 1 31 1 32 1 33 89 38 95 40 90 42 94 43 93 46 93 47 93 48 17 50
REMARK H PARENT 17 51 18 53 18 54 19 56 19 57 20 59 20 60 21 63 25 69 86 71
REMARK H PARENT 26 73 85 74 84 84 78 86 80 88 83 90 77 91 45 100 48 102 81 105
REMARK H PARENT 46 106 82 108
REMARK Flexibility Score: inf
ROOT
ATOM      1  C   UNL A   1      34.793  21.420  25.769  1.00  0.00    -0.036 C 
ATOM      2  H   UNL A   1      34.632  21.029  26.752  1.00  0.00     0.028 H 
ATOM      3  H   UNL A   1      35.344  22.338  25.783  1.00  0.00     0.028 H 
ENDROOT
BRANCH   1   4
ATOM      4  C   UNL A   1      33.434  21.721  25.139  1.00  0.00     0.017 C 
ATOM      5  H   UNL A   1      33.533  22.552  24.471  1.00  0.00     0.049 H 
ATOM      6  H   UNL A   1      33.103  20.853  24.607  1.00  0.00     0.049 H 
BRANCH   4   7
ATOM      7  N   UNL A   1      32.453  22.045  26.155  1.00  0.00    -0.356 N 
ATOM      8  C   UNL A   1      32.176  23.254  26.725  1.00  0.00     0.227 C 
ATOM      9  O   UNL A   1      31.367  23.287  27.655  1.00  0.00    -0.275 OA
ATOM     10  H   UNL A   1      31.913  21.288  26.479  1.00  0.00     0.163 HD
BRANCH   8  11
ATOM     11  C   UNL A   1      32.767  24.524  26.149  1.00  0.00     0.088 C 
ATOM     12  H   UNL A   1      33.039  25.172  26.956  1.00  0.00     0.045 H 
ATOM     13  H   UNL A   1      33.615  24.245  25.560  1.00  0.00     0.045 H 
BRANCH  11  14
ATOM     14  C   UNL A   1      31.826  25.246  25.259  1.00  0.00     0.154 A 
ATOM     15  C   UNL A   1      30.549  26.549  23.998  1.00  0.00     0.122 A 
ATOM     16  N   UNL A   1      30.152  25.290  23.764  1.00  0.00    -0.079 NA
ATOM     17  C   UNL A   1      31.597  26.575  24.964  1.00  0.00     0.053 A 
ATOM     18  O   UNL A   1      30.967  24.481  24.531  1.00  0.00    -0.360 OA
BRANCH  15  19
ATOM     19  C   UNL A   1      29.951  27.685  23.310  1.00  0.00     0.005 A 
ATOM     20  C   UNL A   1      28.841  29.918  22.033  1.00  0.00     0.118 A 
ATOM     21  C   UNL A   1      28.029  29.054  22.770  1.00  0.00    -0.019 A 
ATOM     22  C   UNL A   1      30.212  29.685  21.955  1.00  0.00    -0.019 A 
ATOM     23  C   UNL A   1      28.576  27.929  23.394  1.00  0.00    -0.049 A 
ATOM     24  H   UNL A   1      27.018  29.247  22.855  1.00  0.00     0.066 H 
ATOM     25  C   UNL A   1      30.765  28.570  22.590  1.00  0.00    -0.049 A 
ATOM     26  H   UNL A   1      30.818  30.334  21.430  1.00  0.00     0.066 H 
ATOM     27  H   UNL A   1      27.966  27.281  23.916  1.00  0.00     0.063 H 
ATOM     28  H   UNL A   1      31.780  28.396  22.528  1.00  0.00     0.063 H 
BRANCH  20  29
ATOM     29  O   UNL A   1      28.214  30.993  21.465  1.00  0.00    -0.497 OA
BRANCH  29  30
ATOM     30  C   UNL A   1      28.481  32.231  22.120  1.00  0.00     0.078 C 
ATOM     31  H   UNL A   1      29.369  32.140  22.708  1.00  0.00     0.067 H 
ATOM     32  H   UNL A   1      27.658  32.483  22.755  1.00  0.00     0.067 H 
ATOM     33  H   UNL A   1      28.616  33.000  21.388  1.00  0.00     0.067 H 
ENDBRANCH  29  30
ENDBRANCH  20  29
ENDBRANCH  15  19
BRANCH  17  34
ATOM     34  C   UNL A   1      32.254  27.700  25.601  1.00  0.00    -0.012 A 
ATOM     35  C   UNL A   1      31.481  28.673  26.246  1.00  0.00    -0.050 A 
ATOM     36  C   UNL A   1      33.644  27.837  25.582  1.00  0.00    -0.050 A 
ATOM     37  C   UNL A   1      32.095  29.756  26.875  1.00  0.00    -0.019 A 
ATOM     38  H   UNL A   1      30.452  28.589  26.257  1.00  0.00     0.063 H 
ATOM     39  C   UNL A   1      34.258  28.927  26.215  1.00  0.00    -0.019 A 
ATOM     40  H   UNL A   1      34.224  27.132  25.101  1.00  0.00     0.063 H 
ATOM     41  C   UNL A   1      33.485  29.890  26.865  1.00  0.00     0.118 A 
ATOM     42  H   UNL A   1      31.517  30.466  27.354  1.00  0.00     0.066 H 
ATOM     43  H   UNL A   1      35.286  29.019  26.199  1.00  0.00     0.066 H 
BRANCH  41  44
ATOM     44  O   UNL A   1      33.952  30.994  27.521  1.00  0.00    -0.497 OA
BRANCH  44  45
ATOM     45  C   UNL A   1      33.063  32.097  27.643  1.00  0.00     0.078 C 
ATOM     46  H   UNL A   1      33.627  32.993  27.796  1.00  0.00     0.067 H 
ATOM     47  H   UNL A   1      32.411  31.939  28.475  1.00  0.00     0.067 H 
ATOM     48  H   UNL A   1      32.484  32.189  26.748  1.00  0.00     0.067 H 
ENDBRANCH  44  45
ENDBRANCH  41  44
ENDBRANCH  17  34
ENDBRANCH  11  14
ENDBRANCH   8  11
ENDBRANCH   4   7
ENDBRANCH   1   4
BRANCH   1  49
ATOM     49  C   UNL A   1      35.627  20.407  24.975  1.00  0.00    -0.052 C 
ATOM     50  H   UNL A   1      35.150  20.253  24.029  1.00  0.00     0.027 H 
ATOM     51  H   UNL A   1      35.676  19.523  25.575  1.00  0.00     0.027 H 
BRANCH  49  52
ATOM     52  C   UNL A   1      37.079  20.825  24.712  1.00  0.00    -0.052 C 
ATOM     53  H   UNL A   1      37.313  21.639  25.368  1.00  0.00     0.027 H 
ATOM     54  H   UNL A   1      37.131  21.085  23.675  1.00  0.00     0.027 H 
BRANCH  52  55
ATOM     55  C   UNL A   1      38.124  19.727  24.930  1.00  0.00    -0.036 C 
ATOM     56  H   UNL A   1      38.637  19.568  24.005  1.00  0.00     0.028 H 
ATOM     57  H   UNL A   1      37.590  18.865  25.271  1.00  0.00     0.028 H 
BRANCH  55  58
ATOM     58  C   UNL A   1      39.165  20.040  26.002  1.00  0.00     0.018 C 
ATOM     59  H   UNL A   1      38.697  19.988  26.962  1.00  0.00     0.049 H 
ATOM     60  H   UNL A   1      39.552  21.019  25.811  1.00  0.00     0.049 H 
BRANCH  58  61
ATOM     61  N   UNL A   1      40.278  19.104  25.970  1.00  0.00    -0.352 N 
ATOM     62  C   UNL A   1      41.625  19.343  26.034  1.00  0.00     0.251 C 
ATOM     63  H   UNL A   1      40.025  18.156  25.893  1.00  0.00     0.163 HD
ATOM     64  O   UNL A   1      42.422  18.435  25.795  1.00  0.00    -0.269 OA
BRANCH  62  65
ATOM     65  C   UNL A   1      42.136  20.689  26.370  1.00  0.00     0.039 A 
ATOM     66  C   UNL A   1      42.451  21.567  25.330  1.00  0.00    -0.049 A 
ATOM     67  C   UNL A   1      42.349  21.071  27.698  1.00  0.00    -0.049 A 
ATOM     68  C   UNL A   1      42.933  22.846  25.620  1.00  0.00    -0.053 A 
ATOM     69  H   UNL A   1      42.327  21.273  24.348  1.00  0.00     0.063 H 
ATOM     70  C   UNL A   1      42.773  22.367  27.989  1.00  0.00    -0.053 A 
ATOM     71  H   UNL A   1      42.191  20.395  28.462  1.00  0.00     0.063 H 
ATOM     72  C   UNL A   1      43.075  23.264  26.954  1.00  0.00    -0.014 A 
ATOM     73  H   UNL A   1      43.185  23.486  24.852  1.00  0.00     0.063 H 
ATOM     74  H   UNL A   1      42.864  22.668  28.972  1.00  0.00     0.063 H 
BRANCH  72  75
ATOM     75  C   UNL A   1      43.551  24.632  27.278  1.00  0.00     0.031 A 
ATOM     76  C   UNL A   1      42.600  25.648  27.845  1.00  0.00     0.074 A 
ATOM     77  C   UNL A   1      44.825  24.973  27.014  1.00  0.00     0.049 A 
ATOM     78  N   UNL A   1      42.814  26.905  28.145  1.00  0.00    -0.248 NA
ATOM     79  C   UNL A   1      41.221  25.198  28.089  1.00  0.00    -0.034 C 
ATOM     80  C   UNL A   1      45.832  24.089  26.425  1.00  0.00    -0.036 A 
ATOM     81  N   UNL A   1      45.491  26.159  27.199  1.00  0.00    -0.354 N 
ATOM     82  C   UNL A   1      41.596  27.397  28.597  1.00  0.00     0.074 A 
ATOM     83  C   UNL A   1      40.637  26.318  28.490  1.00  0.00    -0.034 C 
ATOM     84  H   UNL A   1      40.813  24.257  27.976  1.00  0.00     0.065 H 
ATOM     85  C   UNL A   1      46.992  24.756  26.315  1.00  0.00    -0.036 A 
ATOM     86  H   UNL A   1      45.675  23.109  26.140  1.00  0.00     0.065 H 
ATOM     87  C   UNL A   1      46.803  26.122  26.796  1.00  0.00     0.049 A 
ATOM     88  H   UNL A   1      45.068  26.959  27.584  1.00  0.00     0.167 HD
ATOM     89  C   UNL A   1      41.310  28.630  29.077  1.00  0.00     0.037 A 
ATOM     90  H   UNL A   1      39.630  26.411  28.697  1.00  0.00     0.065 H 
ATOM     91  H   UNL A   1      47.875  24.367  25.949  1.00  0.00     0.065 H 
ATOM     92  C   UNL A   1      47.746  27.083  26.811  1.00  0.00     0.037 A 
ATOM     93  C   UNL A   1      42.271  29.694  29.210  1.00  0.00     0.049 A 
ATOM     94  C   UNL A   1      47.403  28.443  27.354  1.00  0.00     0.074 A 
ATOM     95  C   UNL A   1      42.092  30.960  29.739  1.00  0.00    -0.036 A 
ATOM     96  N   UNL A   1      43.596  29.613  28.807  1.00  0.00    -0.354 N 
ATOM     97  N   UNL A   1      46.264  28.878  27.836  1.00  0.00    -0.248 NA
ATOM     98  C   UNL A   1      48.479  29.444  27.358  1.00  0.00    -0.034 C 
ATOM     99  C   UNL A   1      43.299  31.657  29.626  1.00  0.00    -0.036 A 
ATOM    100  H   UNL A   1      41.218  31.327  30.149  1.00  0.00     0.065 H 
ATOM    101  C   UNL A   1      44.241  30.813  29.062  1.00  0.00     0.049 A 
ATOM    102  H   UNL A   1      44.016  28.820  28.401  1.00  0.00     0.167 HD
ATOM    103  C   UNL A   1      46.492  30.191  28.225  1.00  0.00     0.074 A 
ATOM    104  C   UNL A   1      47.882  30.478  27.935  1.00  0.00    -0.034 C 
ATOM    105  H   UNL A   1      49.445  29.364  27.005  1.00  0.00     0.065 H 
ATOM    106  H   UNL A   1      43.460  32.636  29.912  1.00  0.00     0.065 H 
ATOM    107  C   UNL A   1      45.627  31.078  28.773  1.00  0.00     0.037 A 
ATOM    108  H   UNL A   1      48.348  31.373  28.150  1.00  0.00     0.065 H 
BRANCH  89 109
ATOM    109  C   UNL A   1      39.897  28.897  29.504  1.00  0.00     0.064 A 
ATOM    110  C   UNL A   1      38.934  29.373  28.601  1.00  0.00     0.173 A 
ATOM    111  C   UNL A   1      39.489  28.640  30.822  1.00  0.00     0.173 A 
ATOM    112  F   UNL A   1      39.277  29.646  27.333  1.00  0.00    -0.203 F 
ATOM    113  C   UNL A   1      37.624  29.607  29.007  1.00  0.00     0.198 A 
ATOM    114  C   UNL A   1      38.171  28.849  31.218  1.00  0.00     0.198 A 
ATOM    115  F   UNL A   1      40.368  28.177  31.725  1.00  0.00    -0.203 F 
ATOM    116  F   UNL A   1      36.733  30.105  28.137  1.00  0.00    -0.200 F 
ATOM    117  C   UNL A   1      37.241  29.339  30.313  1.00  0.00     0.200 A 
ATOM    118  F   UNL A   1      37.799  28.577  32.477  1.00  0.00    -0.200 F 
ATOM    119  F   UNL A   1      35.977  29.559  30.701  1.00  0.00    -0.200 F 
ENDBRANCH  89 109
BRANCH  92 120
ATOM    120  C   UNL A   1      49.116  26.783  26.324  1.00  0.00     0.064 A 
ATOM    121  C   UNL A   1      50.084  26.253  27.189  1.00  0.00     0.173 A 
ATOM    122  C   UNL A   1      49.486  27.018  24.992  1.00  0.00     0.173 A 
ATOM    123  F   UNL A   1      49.782  26.032  28.476  1.00  0.00    -0.203 F 
ATOM    124  C   UNL A   1      51.377  25.987  26.743  1.00  0.00     0.198 A 
ATOM    125  C   UNL A   1      50.772  26.727  24.543  1.00  0.00     0.198 A 
ATOM    126  F   UNL A   1      48.595  27.519  24.126  1.00  0.00    -0.203 F 
ATOM    127  F   UNL A   1      52.295  25.519  27.600  1.00  0.00    -0.200 F 
ATOM    128  C   UNL A   1      51.719  26.218  25.420  1.00  0.00     0.200 A 
ATOM    129  F   UNL A   1      51.096  26.942  23.260  1.00  0.00    -0.200 F 
ATOM    130  F   UNL A   1      52.961  25.960  24.991  1.00  0.00    -0.200 F 
ENDBRANCH  92 120
BRANCH 107 131
ATOM    131  C   UNL A   1      46.166  32.433  29.124  1.00  0.00     0.064 A 
ATOM    132  C   UNL A   1      46.759  32.687  30.369  1.00  0.00     0.173 A 
ATOM    133  C   UNL A   1      46.121  33.480  28.190  1.00  0.00     0.173 A 
ATOM    134  F   UNL A   1      46.810  31.723  31.302  1.00  0.00    -0.203 F 
ATOM    135  C   UNL A   1      47.269  33.946  30.675  1.00  0.00     0.198 A 
ATOM    136  C   UNL A   1      46.655  34.729  28.490  1.00  0.00     0.198 A 
ATOM    137  F   UNL A   1      45.569  33.285  26.983  1.00  0.00    -0.203 F 
ATOM    138  F   UNL A   1      47.792  34.179  31.886  1.00  0.00    -0.200 F 
ATOM    139  C   UNL A   1      47.223  34.963  29.733  1.00  0.00     0.200 A 
ATOM    140  F   UNL A   1      46.620  35.708  27.575  1.00  0.00    -0.200 F 
ATOM    141  F   UNL A   1      47.719  36.173  30.027  1.00  0.00    -0.200 F 
ENDBRANCH 107 131
ENDBRANCH  72  75
ENDBRANCH  62  65
ENDBRANCH  58  61
ENDBRANCH  55  58
ENDBRANCH  52  55
ENDBRANCH  49  52
ENDBRANCH   1  49
TORSDOF 20
ENDMDL
MODEL 7
REMARK VINA RESULT:     -11.9      3.635      8.417
REMARK SMILES COc1ccc(-c2noc(CC(=O)NCCCCCCNC(=O)c3ccc(-c4c5nc(c(-c6c(F)c(F)c(F)c(F)c6F)c6ccc([nH]6)c(-c6c(F)c(F)c(F)c(F)c6F)c6nc(c(-c7c(F)c(F)c(F)c(F)c7F)c7ccc4[nH]7)C=C6)C=C5)cc3)c2-c2ccc(OC)cc2)cc1
REMARK SMILES IDX 16 1 15 4 14 7 12 8 13 9 11 11 10 14 7 15 8 16 87 17 9 18
REMARK SMILES IDX 6 19 3 20 4 21 97 22 5 23 96 25 2 29 1 30 88 34 89 35 95 36
REMARK SMILES IDX 90 37 94 39 91 41 92 44 93 45 17 49 18 52 19 55 20 58 21 61
REMARK SMILES IDX 22 62 23 64 24 65 25 66 86 67 26 68 85 70 27 72 28 75 29 76
REMARK SMILES IDX 79 77 30 78 84 79 78 80 80 81 31 82 83 83 77 85 76 87 32 89
REMARK SMILES IDX 64 92 44 93 63 94 45 95 48 96 62 97 81 98 46 99 47 101
REMARK SMILES IDX 61 103 82 104 49 107 33 109 34 110 42 111 35 112 36 113
REMARK SMILES IDX 40 114 43 115 37 116 38 117 41 118 39 119 65 120 66 121
REMARK SMILES IDX 74 122 67 123 68 124 72 125 75 126 69 127 70 128 73 129
REMARK SMILES IDX 71 130 50 131 51 132 59 133 52 134 53 135 57 136 60 137
REMARK SMILES IDX 54 138 55 139 58 140 56 141
REMARK H PARENT 16 2 16 3 15 5 15 6 14 10 11 12 11 13 4 24 97 26 5 27 96 28
REMARK H PARENT 1 31 1 32 1 33 89 38 95 40 90 42 94 43 93 46 93 47 93 48 17 50
REMARK H PARENT 17 51 18 53 18 54 19 56 19 57 20 59 20 60 21 63 25 69 86 71
REMARK H PARENT 26 73 85 74 84 84 78 86 80 88 83 90 77 91 45 100 48 102 81 105
REMARK H PARENT 46 106 82 108
REMARK Flexibility Score: inf
ROOT
ATOM      1  C   UNL A   1      31.314  28.709  23.079  1.00  0.00    -0.036 C 
ATOM      2  H   UNL A   1      30.795  29.494  22.571  1.00  0.00     0.028 H 
ATOM      3  H   UNL A   1      32.360  28.700  22.851  1.00  0.00     0.028 H 
ENDROOT
BRANCH   1   4
ATOM      4  C   UNL A   1      30.741  27.370  22.613  1.00  0.00     0.017 C 
ATOM      5  H   UNL A   1      30.750  26.681  23.432  1.00  0.00     0.049 H 
ATOM      6  H   UNL A   1      29.740  27.526  22.269  1.00  0.00     0.049 H 
BRANCH   4   7
ATOM      7  N   UNL A   1      31.526  26.823  21.525  1.00  0.00    -0.356 N 
ATOM      8  C   UNL A   1      32.671  26.081  21.581  1.00  0.00     0.227 C 
ATOM      9  O   UNL A   1      33.238  25.804  20.523  1.00  0.00    -0.275 OA
ATOM     10  H   UNL A   1      31.187  27.013  20.621  1.00  0.00     0.163 HD
BRANCH   8  11
ATOM     11  C   UNL A   1      33.157  25.525  22.904  1.00  0.00     0.088 C 
ATOM     12  H   UNL A   1      34.224  25.594  22.932  1.00  0.00     0.045 H 
ATOM     13  H   UNL A   1      32.701  26.102  23.682  1.00  0.00     0.045 H 
BRANCH  11  14
ATOM     14  C   UNL A   1      32.767  24.110  23.113  1.00  0.00     0.154 A 
ATOM     15  C   UNL A   1      32.405  21.972  23.579  1.00  0.00     0.122 A 
ATOM     16  N   UNL A   1      31.353  22.385  22.857  1.00  0.00    -0.079 NA
ATOM     17  C   UNL A   1      33.347  23.029  23.747  1.00  0.00     0.053 A 
ATOM     18  O   UNL A   1      31.571  23.723  22.592  1.00  0.00    -0.360 OA
BRANCH  15  19
ATOM     19  C   UNL A   1      32.496  20.614  24.097  1.00  0.00     0.005 A 
ATOM     20  C   UNL A   1      32.746  18.015  25.113  1.00  0.00     0.118 A 
ATOM     21  C   UNL A   1      32.521  18.218  23.751  1.00  0.00    -0.019 A 
ATOM     22  C   UNL A   1      32.874  19.109  25.967  1.00  0.00    -0.019 A 
ATOM     23  C   UNL A   1      32.379  19.513  23.242  1.00  0.00    -0.049 A 
ATOM     24  H   UNL A   1      32.461  17.407  23.115  1.00  0.00     0.066 H 
ATOM     25  C   UNL A   1      32.746  20.405  25.460  1.00  0.00    -0.049 A 
ATOM     26  H   UNL A   1      33.062  18.963  26.971  1.00  0.00     0.066 H 
ATOM     27  H   UNL A   1      32.188  19.655  22.238  1.00  0.00     0.063 H 
ATOM     28  H   UNL A   1      32.837  21.214  26.094  1.00  0.00     0.063 H 
BRANCH  20  29
ATOM     29  O   UNL A   1      32.877  16.714  25.514  1.00  0.00    -0.497 OA
BRANCH  29  30
ATOM     30  C   UNL A   1      34.096  16.101  25.101  1.00  0.00     0.078 C 
ATOM     31  H   UNL A   1      34.061  15.909  24.049  1.00  0.00     0.067 H 
ATOM     32  H   UNL A   1      34.229  15.179  25.627  1.00  0.00     0.067 H 
ATOM     33  H   UNL A   1      34.915  16.756  25.315  1.00  0.00     0.067 H 
ENDBRANCH  29  30
ENDBRANCH  20  29
ENDBRANCH  15  19
BRANCH  17  34
ATOM     34  C   UNL A   1      34.665  23.019  24.352  1.00  0.00    -0.012 A 
ATOM     35  C   UNL A   1      35.763  22.577  23.603  1.00  0.00    -0.050 A 
ATOM     36  C   UNL A   1      34.864  23.439  25.670  1.00  0.00    -0.050 A 
ATOM     37  C   UNL A   1      37.040  22.573  24.164  1.00  0.00    -0.019 A 
ATOM     38  H   UNL A   1      35.626  22.254  22.633  1.00  0.00     0.063 H 
ATOM     39  C   UNL A   1      36.149  23.432  26.230  1.00  0.00    -0.019 A 
ATOM     40  H   UNL A   1      34.060  23.757  26.235  1.00  0.00     0.063 H 
ATOM     41  C   UNL A   1      37.242  23.000  25.477  1.00  0.00     0.118 A 
ATOM     42  H   UNL A   1      37.845  22.250  23.602  1.00  0.00     0.066 H 
ATOM     43  H   UNL A   1      36.287  23.747  27.203  1.00  0.00     0.066 H 
BRANCH  41  44
ATOM     44  O   UNL A   1      38.541  22.946  25.897  1.00  0.00    -0.497 OA
BRANCH  44  45
ATOM     45  C   UNL A   1      39.127  21.655  26.019  1.00  0.00     0.078 C 
ATOM     46  H   UNL A   1      38.407  20.975  26.425  1.00  0.00     0.067 H 
ATOM     47  H   UNL A   1      39.975  21.708  26.668  1.00  0.00     0.067 H 
ATOM     48  H   UNL A   1      39.436  21.312  25.054  1.00  0.00     0.067 H 
ENDBRANCH  44  45
ENDBRANCH  41  44
ENDBRANCH  17  34
ENDBRANCH  11  14
ENDBRANCH   8  11
ENDBRANCH   4   7
ENDBRANCH   1   4
BRANCH   1  49
ATOM     49  C   UNL A   1      31.184  28.939  24.590  1.00  0.00    -0.052 C 
ATOM     50  H   UNL A   1      30.149  28.862  24.850  1.00  0.00     0.027 H 
ATOM     51  H   UNL A   1      31.599  29.905  24.783  1.00  0.00     0.027 H 
BRANCH  49  52
ATOM     52  C   UNL A   1      31.969  27.954  25.466  1.00  0.00    -0.052 C 
ATOM     53  H   UNL A   1      31.680  26.962  25.188  1.00  0.00     0.027 H 
ATOM     54  H   UNL A   1      31.729  28.201  26.479  1.00  0.00     0.027 H 
BRANCH  52  55
ATOM     55  C   UNL A   1      33.493  28.053  25.353  1.00  0.00    -0.036 C 
ATOM     56  H   UNL A   1      33.726  28.845  24.673  1.00  0.00     0.028 H 
ATOM     57  H   UNL A   1      33.834  27.096  25.018  1.00  0.00     0.028 H 
BRANCH  55  58
ATOM     58  C   UNL A   1      34.214  28.329  26.669  1.00  0.00     0.018 C 
ATOM     59  H   UNL A   1      35.268  28.247  26.508  1.00  0.00     0.049 H 
ATOM     60  H   UNL A   1      33.874  27.614  27.389  1.00  0.00     0.049 H 
BRANCH  58  61
ATOM     61  N   UNL A   1      33.920  29.658  27.184  1.00  0.00    -0.352 N 
ATOM     62  C   UNL A   1      34.654  30.453  28.023  1.00  0.00     0.251 C 
ATOM     63  H   UNL A   1      33.067  30.044  26.882  1.00  0.00     0.163 HD
ATOM     64  O   UNL A   1      34.150  31.470  28.503  1.00  0.00    -0.269 OA
BRANCH  62  65
ATOM     65  C   UNL A   1      36.044  30.097  28.375  1.00  0.00     0.039 A 
ATOM     66  C   UNL A   1      36.306  29.592  29.652  1.00  0.00    -0.049 A 
ATOM     67  C   UNL A   1      37.094  30.299  27.473  1.00  0.00    -0.049 A 
ATOM     68  C   UNL A   1      37.612  29.245  30.009  1.00  0.00    -0.053 A 
ATOM     69  H   UNL A   1      35.538  29.475  30.330  1.00  0.00     0.063 H 
ATOM     70  C   UNL A   1      38.386  29.897  27.808  1.00  0.00    -0.053 A 
ATOM     71  H   UNL A   1      36.912  30.745  26.560  1.00  0.00     0.063 H 
ATOM     72  C   UNL A   1      38.658  29.373  29.081  1.00  0.00    -0.014 A 
ATOM     73  H   UNL A   1      37.808  28.892  30.958  1.00  0.00     0.063 H 
ATOM     74  H   UNL A   1      39.146  29.984  27.115  1.00  0.00     0.063 H 
BRANCH  72  75
ATOM     75  C   UNL A   1      40.043  28.972  29.433  1.00  0.00     0.031 A 
ATOM     76  C   UNL A   1      40.898  29.871  30.282  1.00  0.00     0.074 A 
ATOM     77  C   UNL A   1      40.548  27.824  28.945  1.00  0.00     0.049 A 
ATOM     78  N   UNL A   1      42.144  29.719  30.653  1.00  0.00    -0.248 NA
ATOM     79  C   UNL A   1      40.276  31.115  30.760  1.00  0.00    -0.034 C 
ATOM     80  C   UNL A   1      39.833  26.888  28.076  1.00  0.00    -0.036 A 
ATOM     81  N   UNL A   1      41.785  27.251  29.104  1.00  0.00    -0.354 N 
ATOM     82  C   UNL A   1      42.458  30.851  31.393  1.00  0.00     0.074 A 
ATOM     83  C   UNL A   1      41.288  31.703  31.381  1.00  0.00    -0.034 C 
ATOM     84  H   UNL A   1      39.305  31.445  30.642  1.00  0.00     0.065 H 
ATOM     85  C   UNL A   1      40.635  25.849  27.795  1.00  0.00    -0.036 A 
ATOM     86  H   UNL A   1      38.866  27.008  27.736  1.00  0.00     0.065 H 
ATOM     87  C   UNL A   1      41.930  26.060  28.436  1.00  0.00     0.049 A 
ATOM     88  H   UNL A   1      42.500  27.656  29.646  1.00  0.00     0.167 HD
ATOM     89  C   UNL A   1      43.610  31.144  32.041  1.00  0.00     0.037 A 
ATOM     90  H   UNL A   1      41.248  32.645  31.801  1.00  0.00     0.065 H 
ATOM     91  H   UNL A   1      40.379  25.034  27.217  1.00  0.00     0.065 H 
ATOM     92  C   UNL A   1      42.989  25.233  28.351  1.00  0.00     0.037 A 
ATOM     93  C   UNL A   1      44.764  30.284  32.076  1.00  0.00     0.049 A 
ATOM     94  C   UNL A   1      44.255  25.580  29.083  1.00  0.00     0.074 A 
ATOM     95  C   UNL A   1      45.957  30.466  32.753  1.00  0.00    -0.036 A 
ATOM     96  N   UNL A   1      44.867  29.076  31.402  1.00  0.00    -0.354 N 
ATOM     97  N   UNL A   1      44.519  26.623  29.831  1.00  0.00    -0.248 NA
ATOM     98  C   UNL A   1      45.370  24.630  28.963  1.00  0.00    -0.034 C 
ATOM     99  C   UNL A   1      46.796  29.384  32.461  1.00  0.00    -0.036 A 
ATOM    100  H   UNL A   1      46.189  31.261  33.369  1.00  0.00     0.065 H 
ATOM    101  C   UNL A   1      46.110  28.510  31.634  1.00  0.00     0.049 A 
ATOM    102  H   UNL A   1      44.161  28.680  30.841  1.00  0.00     0.167 HD
ATOM    103  C   UNL A   1      45.816  26.444  30.292  1.00  0.00     0.074 A 
ATOM    104  C   UNL A   1      46.282  25.185  29.750  1.00  0.00    -0.034 C 
ATOM    105  H   UNL A   1      45.428  23.760  28.412  1.00  0.00     0.065 H 
ATOM    106  H   UNL A   1      47.761  29.260  32.802  1.00  0.00     0.065 H 
ATOM    107  C   UNL A   1      46.554  27.251  31.092  1.00  0.00     0.037 A 
ATOM    108  H   UNL A   1      47.206  24.771  29.951  1.00  0.00     0.065 H 
BRANCH  89 109
ATOM    109  C   UNL A   1      43.680  32.450  32.776  1.00  0.00     0.064 A 
ATOM    110  C   UNL A   1      44.113  33.626  32.143  1.00  0.00     0.173 A 
ATOM    111  C   UNL A   1      43.275  32.538  34.116  1.00  0.00     0.173 A 
ATOM    112  F   UNL A   1      44.521  33.593  30.866  1.00  0.00    -0.203 F 
ATOM    113  C   UNL A   1      44.163  34.834  32.833  1.00  0.00     0.198 A 
ATOM    114  C   UNL A   1      43.301  33.753  34.795  1.00  0.00     0.198 A 
ATOM    115  F   UNL A   1      42.846  31.445  34.766  1.00  0.00    -0.203 F 
ATOM    116  F   UNL A   1      44.623  35.935  32.221  1.00  0.00    -0.200 F 
ATOM    117  C   UNL A   1      43.751  34.899  34.156  1.00  0.00     0.200 A 
ATOM    118  F   UNL A   1      42.891  33.816  36.070  1.00  0.00    -0.200 F 
ATOM    119  F   UNL A   1      43.795  36.064  34.817  1.00  0.00    -0.200 F 
ENDBRANCH  89 109
BRANCH  92 120
ATOM    120  C   UNL A   1      42.885  23.979  27.563  1.00  0.00     0.064 A 
ATOM    121  C   UNL A   1      43.159  23.972  26.187  1.00  0.00     0.173 A 
ATOM    122  C   UNL A   1      42.512  22.768  28.162  1.00  0.00     0.173 A 
ATOM    123  F   UNL A   1      43.498  25.111  25.567  1.00  0.00    -0.203 F 
ATOM    124  C   UNL A   1      43.045  22.802  25.439  1.00  0.00     0.198 A 
ATOM    125  C   UNL A   1      42.424  21.595  27.416  1.00  0.00     0.198 A 
ATOM    126  F   UNL A   1      42.245  22.723  29.474  1.00  0.00    -0.203 F 
ATOM    127  F   UNL A   1      43.273  22.832  24.118  1.00  0.00    -0.200 F 
ATOM    128  C   UNL A   1      42.684  21.614  26.053  1.00  0.00     0.200 A 
ATOM    129  F   UNL A   1      42.085  20.445  28.016  1.00  0.00    -0.200 F 
ATOM    130  F   UNL A   1      42.578  20.489  25.334  1.00  0.00    -0.200 F 
ENDBRANCH  92 120
BRANCH 107 131
ATOM    131  C   UNL A   1      47.932  26.782  31.455  1.00  0.00     0.064 A 
ATOM    132  C   UNL A   1      48.155  25.950  32.562  1.00  0.00     0.173 A 
ATOM    133  C   UNL A   1      49.035  27.139  30.665  1.00  0.00     0.173 A 
ATOM    134  F   UNL A   1      47.134  25.596  33.357  1.00  0.00    -0.203 F 
ATOM    135  C   UNL A   1      49.438  25.510  32.878  1.00  0.00     0.198 A 
ATOM    136  C   UNL A   1      50.311  26.676  30.969  1.00  0.00     0.198 A 
ATOM    137  F   UNL A   1      48.872  27.929  29.593  1.00  0.00    -0.203 F 
ATOM    138  F   UNL A   1      49.635  24.752  33.964  1.00  0.00    -0.200 F 
ATOM    139  C   UNL A   1      50.513  25.867  32.077  1.00  0.00     0.200 A 
ATOM    140  F   UNL A   1      51.348  27.013  30.189  1.00  0.00    -0.200 F 
ATOM    141  F   UNL A   1      51.746  25.438  32.380  1.00  0.00    -0.200 F 
ENDBRANCH 107 131
ENDBRANCH  72  75
ENDBRANCH  62  65
ENDBRANCH  58  61
ENDBRANCH  55  58
ENDBRANCH  52  55
ENDBRANCH  49  52
ENDBRANCH   1  49
TORSDOF 20
ENDMDL
MODEL 8
REMARK VINA RESULT:     -11.9      2.515      7.844
REMARK SMILES COc1ccc(-c2noc(CC(=O)NCCCCCCNC(=O)c3ccc(-c4c5nc(c(-c6c(F)c(F)c(F)c(F)c6F)c6ccc([nH]6)c(-c6c(F)c(F)c(F)c(F)c6F)c6nc(c(-c7c(F)c(F)c(F)c(F)c7F)c7ccc4[nH]7)C=C6)C=C5)cc3)c2-c2ccc(OC)cc2)cc1
REMARK SMILES IDX 16 1 15 4 14 7 12 8 13 9 11 11 10 14 7 15 8 16 87 17 9 18
REMARK SMILES IDX 6 19 3 20 4 21 97 22 5 23 96 25 2 29 1 30 88 34 89 35 95 36
REMARK SMILES IDX 90 37 94 39 91 41 92 44 93 45 17 49 18 52 19 55 20 58 21 61
REMARK SMILES IDX 22 62 23 64 24 65 25 66 86 67 26 68 85 70 27 72 28 75 29 76
REMARK SMILES IDX 79 77 30 78 84 79 78 80 80 81 31 82 83 83 77 85 76 87 32 89
REMARK SMILES IDX 64 92 44 93 63 94 45 95 48 96 62 97 81 98 46 99 47 101
REMARK SMILES IDX 61 103 82 104 49 107 33 109 34 110 42 111 35 112 36 113
REMARK SMILES IDX 40 114 43 115 37 116 38 117 41 118 39 119 65 120 66 121
REMARK SMILES IDX 74 122 67 123 68 124 72 125 75 126 69 127 70 128 73 129
REMARK SMILES IDX 71 130 50 131 51 132 59 133 52 134 53 135 57 136 60 137
REMARK SMILES IDX 54 138 55 139 58 140 56 141
REMARK H PARENT 16 2 16 3 15 5 15 6 14 10 11 12 11 13 4 24 97 26 5 27 96 28
REMARK H PARENT 1 31 1 32 1 33 89 38 95 40 90 42 94 43 93 46 93 47 93 48 17 50
REMARK H PARENT 17 51 18 53 18 54 19 56 19 57 20 59 20 60 21 63 25 69 86 71
REMARK H PARENT 26 73 85 74 84 84 78 86 80 88 83 90 77 91 45 100 48 102 81 105
REMARK H PARENT 46 106 82 108
REMARK Flexibility Score: inf
ROOT
ATOM      1  C   UNL A   1      33.400  21.126  25.550  1.00  0.00    -0.036 C 
ATOM      2  H   UNL A   1      33.452  20.264  26.182  1.00  0.00     0.028 H 
ATOM      3  H   UNL A   1      33.660  22.026  26.069  1.00  0.00     0.028 H 
ENDROOT
BRANCH   1   4
ATOM      4  C   UNL A   1      31.959  21.286  25.067  1.00  0.00     0.017 C 
ATOM      5  H   UNL A   1      31.943  21.944  24.223  1.00  0.00     0.049 H 
ATOM      6  H   UNL A   1      31.580  20.323  24.795  1.00  0.00     0.049 H 
BRANCH   4   7
ATOM      7  N   UNL A   1      31.121  21.836  26.113  1.00  0.00    -0.356 N 
ATOM      8  C   UNL A   1      31.154  23.081  26.672  1.00  0.00     0.227 C 
ATOM      9  O   UNL A   1      30.413  23.309  27.630  1.00  0.00    -0.275 OA
ATOM     10  H   UNL A   1      30.435  21.228  26.470  1.00  0.00     0.163 HD
BRANCH   8  11
ATOM     11  C   UNL A   1      31.998  24.175  26.052  1.00  0.00     0.088 C 
ATOM     12  H   UNL A   1      32.417  24.771  26.836  1.00  0.00     0.045 H 
ATOM     13  H   UNL A   1      32.757  23.702  25.464  1.00  0.00     0.045 H 
BRANCH  11  14
ATOM     14  C   UNL A   1      31.224  25.060  25.148  1.00  0.00     0.154 A 
ATOM     15  C   UNL A   1      30.220  26.583  23.886  1.00  0.00     0.122 A 
ATOM     16  N   UNL A   1      29.671  25.403  23.564  1.00  0.00    -0.079 NA
ATOM     17  C   UNL A   1      31.198  26.420  24.911  1.00  0.00     0.053 A 
ATOM     18  O   UNL A   1      30.317  24.455  24.333  1.00  0.00    -0.360 OA
BRANCH  15  19
ATOM     19  C   UNL A   1      29.828  27.820  23.226  1.00  0.00     0.005 A 
ATOM     20  C   UNL A   1      29.028  30.158  21.905  1.00  0.00     0.118 A 
ATOM     21  C   UNL A   1      30.362  29.748  21.863  1.00  0.00    -0.019 A 
ATOM     22  C   UNL A   1      28.086  29.388  22.583  1.00  0.00    -0.019 A 
ATOM     23  C   UNL A   1      30.768  28.591  22.534  1.00  0.00    -0.049 A 
ATOM     24  H   UNL A   1      31.052  30.302  21.331  1.00  0.00     0.066 H 
ATOM     25  C   UNL A   1      28.486  28.223  23.244  1.00  0.00    -0.049 A 
ATOM     26  H   UNL A   1      27.095  29.676  22.597  1.00  0.00     0.066 H 
ATOM     27  H   UNL A   1      31.760  28.307  22.520  1.00  0.00     0.063 H 
ATOM     28  H   UNL A   1      27.788  27.655  23.749  1.00  0.00     0.063 H 
BRANCH  20  29
ATOM     29  O   UNL A   1      28.727  31.299  21.212  1.00  0.00    -0.497 OA
BRANCH  29  30
ATOM     30  C   UNL A   1      28.336  32.391  22.040  1.00  0.00     0.078 C 
ATOM     31  H   UNL A   1      27.426  32.813  21.668  1.00  0.00     0.067 H 
ATOM     32  H   UNL A   1      29.102  33.137  22.032  1.00  0.00     0.067 H 
ATOM     33  H   UNL A   1      28.185  32.044  23.041  1.00  0.00     0.067 H 
ENDBRANCH  29  30
ENDBRANCH  20  29
ENDBRANCH  15  19
BRANCH  17  34
ATOM     34  C   UNL A   1      31.960  27.413  25.643  1.00  0.00    -0.012 A 
ATOM     35  C   UNL A   1      33.242  27.761  25.199  1.00  0.00    -0.050 A 
ATOM     36  C   UNL A   1      31.444  28.030  26.785  1.00  0.00    -0.050 A 
ATOM     37  C   UNL A   1      33.985  28.724  25.882  1.00  0.00    -0.019 A 
ATOM     38  H   UNL A   1      33.638  27.303  24.363  1.00  0.00     0.063 H 
ATOM     39  C   UNL A   1      32.194  28.997  27.469  1.00  0.00    -0.019 A 
ATOM     40  H   UNL A   1      30.504  27.774  27.127  1.00  0.00     0.063 H 
ATOM     41  C   UNL A   1      33.467  29.348  27.018  1.00  0.00     0.118 A 
ATOM     42  H   UNL A   1      34.927  28.979  25.543  1.00  0.00     0.066 H 
ATOM     43  H   UNL A   1      31.804  29.450  28.310  1.00  0.00     0.066 H 
BRANCH  41  44
ATOM     44  O   UNL A   1      34.299  30.272  27.586  1.00  0.00    -0.497 OA
BRANCH  44  45
ATOM     45  C   UNL A   1      33.814  31.606  27.679  1.00  0.00     0.078 C 
ATOM     46  H   UNL A   1      34.642  32.282  27.731  1.00  0.00     0.067 H 
ATOM     47  H   UNL A   1      33.215  31.707  28.558  1.00  0.00     0.067 H 
ATOM     48  H   UNL A   1      33.224  31.832  26.815  1.00  0.00     0.067 H 
ENDBRANCH  44  45
ENDBRANCH  41  44
ENDBRANCH  17  34
ENDBRANCH  11  14
ENDBRANCH   8  11
ENDBRANCH   4   7
ENDBRANCH   1   4
BRANCH   1  49
ATOM     49  C   UNL A   1      34.414  20.955  24.411  1.00  0.00    -0.052 C 
ATOM     50  H   UNL A   1      33.937  21.241  23.497  1.00  0.00     0.027 H 
ATOM     51  H   UNL A   1      34.715  19.929  24.430  1.00  0.00     0.027 H 
BRANCH  49  52
ATOM     52  C   UNL A   1      35.698  21.780  24.557  1.00  0.00    -0.052 C 
ATOM     53  H   UNL A   1      36.120  21.912  23.582  1.00  0.00     0.027 H 
ATOM     54  H   UNL A   1      36.330  21.233  25.225  1.00  0.00     0.027 H 
BRANCH  52  55
ATOM     55  C   UNL A   1      35.515  23.165  25.184  1.00  0.00    -0.036 C 
ATOM     56  H   UNL A   1      34.636  23.142  25.792  1.00  0.00     0.028 H 
ATOM     57  H   UNL A   1      35.447  23.858  24.371  1.00  0.00     0.028 H 
BRANCH  55  58
ATOM     58  C   UNL A   1      36.681  23.633  26.052  1.00  0.00     0.018 C 
ATOM     59  H   UNL A   1      36.315  23.851  27.032  1.00  0.00     0.049 H 
ATOM     60  H   UNL A   1      37.106  24.502  25.594  1.00  0.00     0.049 H 
BRANCH  58  61
ATOM     61  N   UNL A   1      37.724  22.624  26.154  1.00  0.00    -0.352 N 
ATOM     62  C   UNL A   1      39.053  22.766  26.451  1.00  0.00     0.251 C 
ATOM     63  H   UNL A   1      37.430  21.700  25.984  1.00  0.00     0.163 HD
ATOM     64  O   UNL A   1      39.822  21.815  26.299  1.00  0.00    -0.269 OA
BRANCH  62  65
ATOM     65  C   UNL A   1      39.582  24.057  26.939  1.00  0.00     0.039 A 
ATOM     66  C   UNL A   1      40.147  24.944  26.018  1.00  0.00    -0.049 A 
ATOM     67  C   UNL A   1      39.566  24.378  28.300  1.00  0.00    -0.049 A 
ATOM     68  C   UNL A   1      40.651  26.171  26.453  1.00  0.00    -0.053 A 
ATOM     69  H   UNL A   1      40.190  24.693  25.019  1.00  0.00     0.063 H 
ATOM     70  C   UNL A   1      40.014  25.627  28.726  1.00  0.00    -0.053 A 
ATOM     71  H   UNL A   1      39.221  23.690  28.989  1.00  0.00     0.063 H 
ATOM     72  C   UNL A   1      40.567  26.532  27.808  1.00  0.00    -0.014 A 
ATOM     73  H   UNL A   1      41.087  26.816  25.776  1.00  0.00     0.063 H 
ATOM     74  H   UNL A   1      39.938  25.887  29.722  1.00  0.00     0.063 H 
BRANCH  72  75
ATOM     75  C   UNL A   1      41.065  27.849  28.279  1.00  0.00     0.031 A 
ATOM     76  C   UNL A   1      42.541  28.125  28.332  1.00  0.00     0.074 A 
ATOM     77  C   UNL A   1      40.189  28.776  28.707  1.00  0.00     0.049 A 
ATOM     78  N   UNL A   1      43.169  29.192  28.759  1.00  0.00    -0.248 NA
ATOM     79  C   UNL A   1      43.431  27.053  27.861  1.00  0.00    -0.034 C 
ATOM     80  C   UNL A   1      38.735  28.612  28.746  1.00  0.00    -0.036 A 
ATOM     81  N   UNL A   1      40.393  30.040  29.201  1.00  0.00    -0.354 N 
ATOM     82  C   UNL A   1      44.523  28.913  28.622  1.00  0.00     0.074 A 
ATOM     83  C   UNL A   1      44.628  27.561  28.116  1.00  0.00    -0.034 C 
ATOM     84  H   UNL A   1      43.187  26.142  27.442  1.00  0.00     0.065 H 
ATOM     85  C   UNL A   1      38.177  29.738  29.217  1.00  0.00    -0.036 A 
ATOM     86  H   UNL A   1      38.221  27.765  28.455  1.00  0.00     0.065 H 
ATOM     87  C   UNL A   1      39.234  30.692  29.544  1.00  0.00     0.049 A 
ATOM     88  H   UNL A   1      41.286  30.442  29.300  1.00  0.00     0.167 HD
ATOM     89  C   UNL A   1      45.580  29.719  28.877  1.00  0.00     0.037 A 
ATOM     90  H   UNL A   1      45.518  27.060  27.973  1.00  0.00     0.065 H 
ATOM     91  H   UNL A   1      37.165  29.903  29.332  1.00  0.00     0.065 H 
ATOM     92  C   UNL A   1      39.046  31.919  30.064  1.00  0.00     0.037 A 
ATOM     93  C   UNL A   1      45.474  31.073  29.354  1.00  0.00     0.049 A 
ATOM     94  C   UNL A   1      40.238  32.796  30.333  1.00  0.00     0.074 A 
ATOM     95  C   UNL A   1      46.485  31.989  29.586  1.00  0.00    -0.036 A 
ATOM     96  N   UNL A   1      44.281  31.705  29.672  1.00  0.00    -0.354 N 
ATOM     97  N   UNL A   1      41.510  32.544  30.141  1.00  0.00    -0.248 NA
ATOM     98  C   UNL A   1      39.967  34.130  30.887  1.00  0.00    -0.034 C 
ATOM     99  C   UNL A   1      45.907  33.165  30.078  1.00  0.00    -0.036 A 
ATOM    100  H   UNL A   1      47.493  31.834  29.423  1.00  0.00     0.065 H 
ATOM    101  C   UNL A   1      44.533  32.994  30.114  1.00  0.00     0.049 A 
ATOM    102  H   UNL A   1      43.388  31.297  29.595  1.00  0.00     0.167 HD
ATOM    103  C   UNL A   1      42.188  33.693  30.524  1.00  0.00     0.074 A 
ATOM    104  C   UNL A   1      41.186  34.649  30.947  1.00  0.00    -0.034 C 
ATOM    105  H   UNL A   1      39.066  34.552  31.157  1.00  0.00     0.065 H 
ATOM    106  H   UNL A   1      46.417  34.014  30.366  1.00  0.00     0.065 H 
ATOM    107  C   UNL A   1      43.522  33.934  30.524  1.00  0.00     0.037 A 
ATOM    108  H   UNL A   1      41.393  35.611  31.255  1.00  0.00     0.065 H 
BRANCH  89 109
ATOM    109  C   UNL A   1      46.951  29.159  28.636  1.00  0.00     0.064 A 
ATOM    110  C   UNL A   1      47.667  28.506  29.651  1.00  0.00     0.173 A 
ATOM    111  C   UNL A   1      47.544  29.245  27.367  1.00  0.00     0.173 A 
ATOM    112  F   UNL A   1      47.148  28.409  30.884  1.00  0.00    -0.203 F 
ATOM    113  C   UNL A   1      48.934  27.982  29.412  1.00  0.00     0.198 A 
ATOM    114  C   UNL A   1      48.800  28.695  27.124  1.00  0.00     0.198 A 
ATOM    115  F   UNL A   1      46.901  29.853  26.358  1.00  0.00    -0.203 F 
ATOM    116  F   UNL A   1      49.616  27.402  30.410  1.00  0.00    -0.200 F 
ATOM    117  C   UNL A   1      49.498  28.071  28.148  1.00  0.00     0.200 A 
ATOM    118  F   UNL A   1      49.339  28.771  25.899  1.00  0.00    -0.200 F 
ATOM    119  F   UNL A   1      50.715  27.561  27.918  1.00  0.00    -0.200 F 
ENDBRANCH  89 109
BRANCH  92 120
ATOM    120  C   UNL A   1      37.669  32.404  30.337  1.00  0.00     0.064 A 
ATOM    121  C   UNL A   1      36.999  33.215  29.410  1.00  0.00     0.173 A 
ATOM    122  C   UNL A   1      36.998  32.071  31.522  1.00  0.00     0.173 A 
ATOM    123  F   UNL A   1      37.609  33.577  28.273  1.00  0.00    -0.203 F 
ATOM    124  C   UNL A   1      35.714  33.689  29.668  1.00  0.00     0.198 A 
ATOM    125  C   UNL A   1      35.705  32.526  31.766  1.00  0.00     0.198 A 
ATOM    126  F   UNL A   1      37.596  31.295  32.437  1.00  0.00    -0.203 F 
ATOM    127  F   UNL A   1      35.112  34.496  28.784  1.00  0.00    -0.200 F 
ATOM    128  C   UNL A   1      35.066  33.340  30.842  1.00  0.00     0.200 A 
ATOM    129  F   UNL A   1      35.076  32.177  32.898  1.00  0.00    -0.200 F 
ATOM    130  F   UNL A   1      33.830  33.794  31.089  1.00  0.00    -0.200 F 
ENDBRANCH  92 120
BRANCH 107 131
ATOM    131  C   UNL A   1      43.972  35.294  30.967  1.00  0.00     0.064 A 
ATOM    132  C   UNL A   1      44.064  36.366  30.067  1.00  0.00     0.173 A 
ATOM    133  C   UNL A   1      44.280  35.537  32.315  1.00  0.00     0.173 A 
ATOM    134  F   UNL A   1      43.797  36.179  28.765  1.00  0.00    -0.203 F 
ATOM    135  C   UNL A   1      44.469  37.627  30.496  1.00  0.00     0.198 A 
ATOM    136  C   UNL A   1      44.658  36.805  32.744  1.00  0.00     0.198 A 
ATOM    137  F   UNL A   1      44.202  34.546  33.215  1.00  0.00    -0.203 F 
ATOM    138  F   UNL A   1      44.592  38.626  29.611  1.00  0.00    -0.200 F 
ATOM    139  C   UNL A   1      44.758  37.847  31.835  1.00  0.00     0.200 A 
ATOM    140  F   UNL A   1      44.928  37.020  34.040  1.00  0.00    -0.200 F 
ATOM    141  F   UNL A   1      45.143  39.063  32.246  1.00  0.00    -0.200 F 
ENDBRANCH 107 131
ENDBRANCH  72  75
ENDBRANCH  62  65
ENDBRANCH  58  61
ENDBRANCH  55  58
ENDBRANCH  52  55
ENDBRANCH  49  52
ENDBRANCH   1  49
TORSDOF 20
ENDMDL
MODEL 9
REMARK VINA RESULT:     -11.8      1.704      7.399
REMARK SMILES COc1ccc(-c2noc(CC(=O)NCCCCCCNC(=O)c3ccc(-c4c5nc(c(-c6c(F)c(F)c(F)c(F)c6F)c6ccc([nH]6)c(-c6c(F)c(F)c(F)c(F)c6F)c6nc(c(-c7c(F)c(F)c(F)c(F)c7F)c7ccc4[nH]7)C=C6)C=C5)cc3)c2-c2ccc(OC)cc2)cc1
REMARK SMILES IDX 16 1 15 4 14 7 12 8 13 9 11 11 10 14 7 15 8 16 87 17 9 18
REMARK SMILES IDX 6 19 3 20 4 21 97 22 5 23 96 25 2 29 1 30 88 34 89 35 95 36
REMARK SMILES IDX 90 37 94 39 91 41 92 44 93 45 17 49 18 52 19 55 20 58 21 61
REMARK SMILES IDX 22 62 23 64 24 65 25 66 86 67 26 68 85 70 27 72 28 75 29 76
REMARK SMILES IDX 79 77 30 78 84 79 78 80 80 81 31 82 83 83 77 85 76 87 32 89
REMARK SMILES IDX 64 92 44 93 63 94 45 95 48 96 62 97 81 98 46 99 47 101
REMARK SMILES IDX 61 103 82 104 49 107 33 109 34 110 42 111 35 112 36 113
REMARK SMILES IDX 40 114 43 115 37 116 38 117 41 118 39 119 65 120 66 121
REMARK SMILES IDX 74 122 67 123 68 124 72 125 75 126 69 127 70 128 73 129
REMARK SMILES IDX 71 130 50 131 51 132 59 133 52 134 53 135 57 136 60 137
REMARK SMILES IDX 54 138 55 139 58 140 56 141
REMARK H PARENT 16 2 16 3 15 5 15 6 14 10 11 12 11 13 4 24 97 26 5 27 96 28
REMARK H PARENT 1 31 1 32 1 33 89 38 95 40 90 42 94 43 93 46 93 47 93 48 17 50
REMARK H PARENT 17 51 18 53 18 54 19 56 19 57 20 59 20 60 21 63 25 69 86 71
REMARK H PARENT 26 73 85 74 84 84 78 86 80 88 83 90 77 91 45 100 48 102 81 105
REMARK H PARENT 46 106 82 108
REMARK Flexibility Score: inf
ROOT
ATOM      1  C   UNL A   1      33.153  19.999  25.581  1.00  0.00    -0.036 C 
ATOM      2  H   UNL A   1      32.637  19.088  25.803  1.00  0.00     0.028 H 
ATOM      3  H   UNL A   1      33.604  20.431  26.451  1.00  0.00     0.028 H 
ENDROOT
BRANCH   1   4
ATOM      4  C   UNL A   1      32.141  21.013  25.048  1.00  0.00     0.017 C 
ATOM      5  H   UNL A   1      32.653  21.737  24.449  1.00  0.00     0.049 H 
ATOM      6  H   UNL A   1      31.412  20.493  24.462  1.00  0.00     0.049 H 
BRANCH   4   7
ATOM      7  N   UNL A   1      31.465  21.689  26.136  1.00  0.00    -0.356 N 
ATOM      8  C   UNL A   1      31.606  22.978  26.564  1.00  0.00     0.227 C 
ATOM      9  O   UNL A   1      31.006  23.322  27.583  1.00  0.00    -0.275 OA
ATOM     10  H   UNL A   1      30.816  21.145  26.636  1.00  0.00     0.163 HD
BRANCH   8  11
ATOM     11  C   UNL A   1      32.391  23.976  25.737  1.00  0.00     0.088 C 
ATOM     12  H   UNL A   1      32.958  24.597  26.398  1.00  0.00     0.045 H 
ATOM     13  H   UNL A   1      33.021  23.420  25.075  1.00  0.00     0.045 H 
BRANCH  11  14
ATOM     14  C   UNL A   1      31.524  24.842  24.902  1.00  0.00     0.154 A 
ATOM     15  C   UNL A   1      30.366  26.344  23.752  1.00  0.00     0.122 A 
ATOM     16  N   UNL A   1      29.913  25.142  23.367  1.00  0.00    -0.079 NA
ATOM     17  C   UNL A   1      31.377  26.206  24.749  1.00  0.00     0.053 A 
ATOM     18  O   UNL A   1      30.655  24.210  24.067  1.00  0.00    -0.360 OA
BRANCH  15  19
ATOM     19  C   UNL A   1      29.855  27.579  23.175  1.00  0.00     0.005 A 
ATOM     20  C   UNL A   1      28.916  29.997  22.115  1.00  0.00     0.118 A 
ATOM     21  C   UNL A   1      28.041  29.132  22.775  1.00  0.00    -0.019 A 
ATOM     22  C   UNL A   1      30.266  29.670  22.006  1.00  0.00    -0.019 A 
ATOM     23  C   UNL A   1      28.502  27.917  23.290  1.00  0.00    -0.049 A 
ATOM     24  H   UNL A   1      27.048  29.392  22.884  1.00  0.00     0.066 H 
ATOM     25  C   UNL A   1      30.733  28.463  22.533  1.00  0.00    -0.049 A 
ATOM     26  H   UNL A   1      30.919  30.317  21.539  1.00  0.00     0.066 H 
ATOM     27  H   UNL A   1      27.846  27.271  23.755  1.00  0.00     0.063 H 
ATOM     28  H   UNL A   1      31.733  28.220  22.449  1.00  0.00     0.063 H 
BRANCH  20  29
ATOM     29  O   UNL A   1      28.372  31.163  21.651  1.00  0.00    -0.497 OA
BRANCH  29  30
ATOM     30  C   UNL A   1      28.850  32.330  22.317  1.00  0.00     0.078 C 
ATOM     31  H   UNL A   1      28.033  32.826  22.799  1.00  0.00     0.067 H 
ATOM     32  H   UNL A   1      29.296  32.990  21.604  1.00  0.00     0.067 H 
ATOM     33  H   UNL A   1      29.578  32.049  23.049  1.00  0.00     0.067 H 
ENDBRANCH  29  30
ENDBRANCH  20  29
ENDBRANCH  15  19
BRANCH  17  34
ATOM     34  C   UNL A   1      32.067  27.217  25.527  1.00  0.00    -0.012 A 
ATOM     35  C   UNL A   1      33.362  27.602  25.160  1.00  0.00    -0.050 A 
ATOM     36  C   UNL A   1      31.467  27.815  26.638  1.00  0.00    -0.050 A 
ATOM     37  C   UNL A   1      34.037  28.582  25.888  1.00  0.00    -0.019 A 
ATOM     38  H   UNL A   1      33.820  27.159  24.348  1.00  0.00     0.063 H 
ATOM     39  C   UNL A   1      32.148  28.799  27.368  1.00  0.00    -0.019 A 
ATOM     40  H   UNL A   1      30.516  27.532  26.924  1.00  0.00     0.063 H 
ATOM     41  C   UNL A   1      33.436  29.187  26.994  1.00  0.00     0.118 A 
ATOM     42  H   UNL A   1      34.990  28.863  25.607  1.00  0.00     0.066 H 
ATOM     43  H   UNL A   1      31.697  29.238  28.185  1.00  0.00     0.066 H 
BRANCH  41  44
ATOM     44  O   UNL A   1      34.207  30.130  27.612  1.00  0.00    -0.497 OA
BRANCH  44  45
ATOM     45  C   UNL A   1      33.709  31.463  27.625  1.00  0.00     0.078 C 
ATOM     46  H   UNL A   1      33.970  31.931  28.551  1.00  0.00     0.067 H 
ATOM     47  H   UNL A   1      32.646  31.448  27.518  1.00  0.00     0.067 H 
ATOM     48  H   UNL A   1      34.142  32.013  26.815  1.00  0.00     0.067 H 
ENDBRANCH  44  45
ENDBRANCH  41  44
ENDBRANCH  17  34
ENDBRANCH  11  14
ENDBRANCH   8  11
ENDBRANCH   4   7
ENDBRANCH   1   4
BRANCH   1  49
ATOM     49  C   UNL A   1      34.286  19.686  24.595  1.00  0.00    -0.052 C 
ATOM     50  H   UNL A   1      33.998  20.053  23.632  1.00  0.00     0.027 H 
ATOM     51  H   UNL A   1      34.423  18.626  24.623  1.00  0.00     0.027 H 
BRANCH  49  52
ATOM     52  C   UNL A   1      35.645  20.302  24.951  1.00  0.00    -0.052 C 
ATOM     53  H   UNL A   1      36.338  20.045  24.179  1.00  0.00     0.027 H 
ATOM     54  H   UNL A   1      35.908  19.907  25.911  1.00  0.00     0.027 H 
BRANCH  52  55
ATOM     55  C   UNL A   1      35.649  21.826  25.103  1.00  0.00    -0.036 C 
ATOM     56  H   UNL A   1      34.847  22.098  25.756  1.00  0.00     0.028 H 
ATOM     57  H   UNL A   1      35.547  22.228  24.118  1.00  0.00     0.028 H 
BRANCH  55  58
ATOM     58  C   UNL A   1      36.941  22.407  25.673  1.00  0.00     0.018 C 
ATOM     59  H   UNL A   1      36.714  22.930  26.578  1.00  0.00     0.049 H 
ATOM     60  H   UNL A   1      37.360  23.063  24.940  1.00  0.00     0.049 H 
BRANCH  58  61
ATOM     61  N   UNL A   1      37.923  21.373  25.963  1.00  0.00    -0.352 N 
ATOM     62  C   UNL A   1      39.236  21.492  26.332  1.00  0.00     0.251 C 
ATOM     63  H   UNL A   1      37.594  20.449  25.883  1.00  0.00     0.163 HD
ATOM     64  O   UNL A   1      39.964  20.498  26.345  1.00  0.00    -0.269 OA
BRANCH  62  65
ATOM     65  C   UNL A   1      39.798  22.808  26.702  1.00  0.00     0.039 A 
ATOM     66  C   UNL A   1      40.743  22.871  27.730  1.00  0.00    -0.049 A 
ATOM     67  C   UNL A   1      39.368  23.982  26.074  1.00  0.00    -0.049 A 
ATOM     68  C   UNL A   1      41.292  24.102  28.097  1.00  0.00    -0.053 A 
ATOM     69  H   UNL A   1      41.035  22.010  28.217  1.00  0.00     0.063 H 
ATOM     70  C   UNL A   1      39.959  25.201  26.399  1.00  0.00    -0.053 A 
ATOM     71  H   UNL A   1      38.614  23.944  25.371  1.00  0.00     0.063 H 
ATOM     72  C   UNL A   1      40.921  25.274  27.418  1.00  0.00    -0.014 A 
ATOM     73  H   UNL A   1      41.973  24.150  28.871  1.00  0.00     0.063 H 
ATOM     74  H   UNL A   1      39.688  26.055  25.887  1.00  0.00     0.063 H 
BRANCH  72  75
ATOM     75  C   UNL A   1      41.524  26.583  27.771  1.00  0.00     0.031 A 
ATOM     76  C   UNL A   1      42.952  26.881  27.409  1.00  0.00     0.074 A 
ATOM     77  C   UNL A   1      40.801  27.484  28.462  1.00  0.00     0.049 A 
ATOM     78  N   UNL A   1      43.669  27.944  27.675  1.00  0.00    -0.248 NA
ATOM     79  C   UNL A   1      43.677  25.837  26.669  1.00  0.00    -0.034 C 
ATOM     80  C   UNL A   1      39.420  27.296  28.907  1.00  0.00    -0.036 A 
ATOM     81  N   UNL A   1      41.130  28.735  28.918  1.00  0.00    -0.354 N 
ATOM     82  C   UNL A   1      44.929  27.691  27.149  1.00  0.00     0.074 A 
ATOM     83  C   UNL A   1      44.894  26.356  26.589  1.00  0.00    -0.034 C 
ATOM     84  H   UNL A   1      43.330  24.935  26.307  1.00  0.00     0.065 H 
ATOM     85  C   UNL A   1      39.013  28.399  29.555  1.00  0.00    -0.036 A 
ATOM     86  H   UNL A   1      38.850  26.450  28.748  1.00  0.00     0.065 H 
ATOM     87  C   UNL A   1      40.113  29.358  29.599  1.00  0.00     0.049 A 
ATOM     88  H   UNL A   1      42.012  29.148  28.771  1.00  0.00     0.167 HD
ATOM     89  C   UNL A   1      46.010  28.505  27.117  1.00  0.00     0.037 A 
ATOM     90  H   UNL A   1      45.709  25.873  26.181  1.00  0.00     0.065 H 
ATOM     91  H   UNL A   1      38.075  28.545  29.959  1.00  0.00     0.065 H 
ATOM     92  C   UNL A   1      40.074  30.566  30.191  1.00  0.00     0.037 A 
ATOM     93  C   UNL A   1      46.036  29.842  27.649  1.00  0.00     0.049 A 
ATOM     94  C   UNL A   1      41.288  31.453  30.138  1.00  0.00     0.074 A 
ATOM     95  C   UNL A   1      47.066  30.767  27.613  1.00  0.00    -0.036 A 
ATOM     96  N   UNL A   1      44.980  30.445  28.315  1.00  0.00    -0.354 N 
ATOM     97  N   UNL A   1      42.453  31.227  29.583  1.00  0.00    -0.248 NA
ATOM     98  C   UNL A   1      41.177  32.765  30.790  1.00  0.00    -0.034 C 
ATOM     99  C   UNL A   1      46.644  31.917  28.289  1.00  0.00    -0.036 A 
ATOM    100  H   UNL A   1      47.985  30.632  27.165  1.00  0.00     0.065 H 
ATOM    101  C   UNL A   1      45.339  31.724  28.710  1.00  0.00     0.049 A 
ATOM    102  H   UNL A   1      44.105  30.027  28.483  1.00  0.00     0.167 HD
ATOM    103  C   UNL A   1      43.205  32.374  29.794  1.00  0.00     0.074 A 
ATOM    104  C   UNL A   1      42.359  33.302  30.518  1.00  0.00    -0.034 C 
ATOM    105  H   UNL A   1      40.388  33.165  31.320  1.00  0.00     0.065 H 
ATOM    106  H   UNL A   1      47.210  32.765  28.447  1.00  0.00     0.065 H 
ATOM    107  C   UNL A   1      44.481  32.636  29.423  1.00  0.00     0.037 A 
ATOM    108  H   UNL A   1      42.640  34.257  30.786  1.00  0.00     0.065 H 
BRANCH  89 109
ATOM    109  C   UNL A   1      47.259  27.974  26.477  1.00  0.00     0.064 A 
ATOM    110  C   UNL A   1      47.424  27.969  25.083  1.00  0.00     0.173 A 
ATOM    111  C   UNL A   1      48.319  27.498  27.264  1.00  0.00     0.173 A 
ATOM    112  F   UNL A   1      46.436  28.403  24.286  1.00  0.00    -0.203 F 
ATOM    113  C   UNL A   1      48.591  27.483  24.501  1.00  0.00     0.198 A 
ATOM    114  C   UNL A   1      49.496  27.039  26.680  1.00  0.00     0.198 A 
ATOM    115  F   UNL A   1      48.216  27.486  28.602  1.00  0.00    -0.203 F 
ATOM    116  F   UNL A   1      48.707  27.448  23.166  1.00  0.00    -0.200 F 
ATOM    117  C   UNL A   1      49.629  27.025  25.299  1.00  0.00     0.200 A 
ATOM    118  F   UNL A   1      50.502  26.607  27.452  1.00  0.00    -0.200 F 
ATOM    119  F   UNL A   1      50.755  26.563  24.737  1.00  0.00    -0.200 F 
ENDBRANCH  89 109
BRANCH  92 120
ATOM    120  C   UNL A   1      38.829  31.021  30.861  1.00  0.00     0.064 A 
ATOM    121  C   UNL A   1      38.638  30.814  32.235  1.00  0.00     0.173 A 
ATOM    122  C   UNL A   1      37.809  31.667  30.149  1.00  0.00     0.173 A 
ATOM    123  F   UNL A   1      39.577  30.181  32.953  1.00  0.00    -0.203 F 
ATOM    124  C   UNL A   1      37.465  31.221  32.866  1.00  0.00     0.198 A 
ATOM    125  C   UNL A   1      36.648  32.096  30.788  1.00  0.00     0.198 A 
ATOM    126  F   UNL A   1      37.947  31.892  28.835  1.00  0.00    -0.203 F 
ATOM    127  F   UNL A   1      37.290  30.975  34.172  1.00  0.00    -0.200 F 
ATOM    128  C   UNL A   1      36.473  31.866  32.144  1.00  0.00     0.200 A 
ATOM    129  F   UNL A   1      35.696  32.730  30.088  1.00  0.00    -0.200 F 
ATOM    130  F   UNL A   1      35.346  32.260  32.752  1.00  0.00    -0.200 F 
ENDBRANCH  92 120
BRANCH 107 131
ATOM    131  C   UNL A   1      45.031  33.989  29.763  1.00  0.00     0.064 A 
ATOM    132  C   UNL A   1      45.723  34.220  30.961  1.00  0.00     0.173 A 
ATOM    133  C   UNL A   1      44.896  35.058  28.864  1.00  0.00     0.173 A 
ATOM    134  F   UNL A   1      45.863  33.233  31.860  1.00  0.00    -0.203 F 
ATOM    135  C   UNL A   1      46.242  35.477  31.257  1.00  0.00     0.198 A 
ATOM    136  C   UNL A   1      45.438  36.307  29.152  1.00  0.00     0.198 A 
ATOM    137  F   UNL A   1      44.247  34.887  27.703  1.00  0.00    -0.203 F 
ATOM    138  F   UNL A   1      46.862  35.686  32.426  1.00  0.00    -0.200 F 
ATOM    139  C   UNL A   1      46.105  36.517  30.349  1.00  0.00     0.200 A 
ATOM    140  F   UNL A   1      45.314  37.309  28.269  1.00  0.00    -0.200 F 
ATOM    141  F   UNL A   1      46.609  37.726  30.633  1.00  0.00    -0.200 F 
ENDBRANCH 107 131
ENDBRANCH  72  75
ENDBRANCH  62  65
ENDBRANCH  58  61
ENDBRANCH  55  58
ENDBRANCH  52  55
ENDBRANCH  49  52
ENDBRANCH   1  49
TORSDOF 20
ENDMDL
MODEL 10
REMARK VINA RESULT:     -11.8      1.467      7.154
REMARK SMILES COc1ccc(-c2noc(CC(=O)NCCCCCCNC(=O)c3ccc(-c4c5nc(c(-c6c(F)c(F)c(F)c(F)c6F)c6ccc([nH]6)c(-c6c(F)c(F)c(F)c(F)c6F)c6nc(c(-c7c(F)c(F)c(F)c(F)c7F)c7ccc4[nH]7)C=C6)C=C5)cc3)c2-c2ccc(OC)cc2)cc1
REMARK SMILES IDX 16 1 15 4 14 7 12 8 13 9 11 11 10 14 7 15 8 16 87 17 9 18
REMARK SMILES IDX 6 19 3 20 4 21 97 22 5 23 96 25 2 29 1 30 88 34 89 35 95 36
REMARK SMILES IDX 90 37 94 39 91 41 92 44 93 45 17 49 18 52 19 55 20 58 21 61
REMARK SMILES IDX 22 62 23 64 24 65 25 66 86 67 26 68 85 70 27 72 28 75 29 76
REMARK SMILES IDX 79 77 30 78 84 79 78 80 80 81 31 82 83 83 77 85 76 87 32 89
REMARK SMILES IDX 64 92 44 93 63 94 45 95 48 96 62 97 81 98 46 99 47 101
REMARK SMILES IDX 61 103 82 104 49 107 33 109 34 110 42 111 35 112 36 113
REMARK SMILES IDX 40 114 43 115 37 116 38 117 41 118 39 119 65 120 66 121
REMARK SMILES IDX 74 122 67 123 68 124 72 125 75 126 69 127 70 128 73 129
REMARK SMILES IDX 71 130 50 131 51 132 59 133 52 134 53 135 57 136 60 137
REMARK SMILES IDX 54 138 55 139 58 140 56 141
REMARK H PARENT 16 2 16 3 15 5 15 6 14 10 11 12 11 13 4 24 97 26 5 27 96 28
REMARK H PARENT 1 31 1 32 1 33 89 38 95 40 90 42 94 43 93 46 93 47 93 48 17 50
REMARK H PARENT 17 51 18 53 18 54 19 56 19 57 20 59 20 60 21 63 25 69 86 71
REMARK H PARENT 26 73 85 74 84 84 78 86 80 88 83 90 77 91 45 100 48 102 81 105
REMARK H PARENT 46 106 82 108
REMARK Flexibility Score: inf
ROOT
ATOM      1  C   UNL A   1      33.381  20.416  25.799  1.00  0.00    -0.036 C 
ATOM      2  H   UNL A   1      32.569  20.784  25.207  1.00  0.00     0.028 H 
ATOM      3  H   UNL A   1      33.141  19.494  26.289  1.00  0.00     0.028 H 
ENDROOT
BRANCH   1   4
ATOM      4  C   UNL A   1      33.686  21.440  26.892  1.00  0.00     0.017 C 
ATOM      5  H   UNL A   1      34.093  20.934  27.743  1.00  0.00     0.049 H 
ATOM      6  H   UNL A   1      34.389  22.150  26.509  1.00  0.00     0.049 H 
BRANCH   4   7
ATOM      7  N   UNL A   1      32.485  22.145  27.290  1.00  0.00    -0.356 N 
ATOM      8  C   UNL A   1      31.970  23.308  26.795  1.00  0.00     0.227 C 
ATOM      9  O   UNL A   1      30.984  23.792  27.353  1.00  0.00    -0.275 OA
ATOM     10  H   UNL A   1      31.970  21.728  28.017  1.00  0.00     0.163 HD
BRANCH   8  11
ATOM     11  C   UNL A   1      32.534  23.916  25.527  1.00  0.00     0.088 C 
ATOM     12  H   UNL A   1      33.397  24.496  25.780  1.00  0.00     0.045 H 
ATOM     13  H   UNL A   1      32.777  23.111  24.865  1.00  0.00     0.045 H 
BRANCH  11  14
ATOM     14  C   UNL A   1      31.565  24.791  24.825  1.00  0.00     0.154 A 
ATOM     15  C   UNL A   1      30.253  26.308  23.878  1.00  0.00     0.122 A 
ATOM     16  N   UNL A   1      29.821  25.114  23.449  1.00  0.00    -0.079 NA
ATOM     17  C   UNL A   1      31.348  26.154  24.778  1.00  0.00     0.053 A 
ATOM     18  O   UNL A   1      30.657  24.174  24.021  1.00  0.00    -0.360 OA
BRANCH  15  19
ATOM     19  C   UNL A   1      29.644  27.552  23.429  1.00  0.00     0.005 A 
ATOM     20  C   UNL A   1      28.433  29.906  22.509  1.00  0.00     0.118 A 
ATOM     21  C   UNL A   1      29.817  29.743  22.414  1.00  0.00    -0.019 A 
ATOM     22  C   UNL A   1      27.649  28.884  23.038  1.00  0.00    -0.019 A 
ATOM     23  C   UNL A   1      30.426  28.577  22.887  1.00  0.00    -0.049 A 
ATOM     24  H   UNL A   1      30.393  30.488  21.991  1.00  0.00     0.066 H 
ATOM     25  C   UNL A   1      28.253  27.711  23.499  1.00  0.00    -0.049 A 
ATOM     26  H   UNL A   1      26.624  28.991  23.090  1.00  0.00     0.066 H 
ATOM     27  H   UNL A   1      31.452  28.474  22.837  1.00  0.00     0.063 H 
ATOM     28  H   UNL A   1      27.671  26.956  23.894  1.00  0.00     0.063 H 
BRANCH  20  29
ATOM     29  O   UNL A   1      27.930  31.078  22.014  1.00  0.00    -0.497 OA
BRANCH  29  30
ATOM     30  C   UNL A   1      28.030  31.197  20.597  1.00  0.00     0.078 C 
ATOM     31  H   UNL A   1      27.137  31.643  20.213  1.00  0.00     0.067 H 
ATOM     32  H   UNL A   1      28.157  30.227  20.165  1.00  0.00     0.067 H 
ATOM     33  H   UNL A   1      28.870  31.811  20.349  1.00  0.00     0.067 H 
ENDBRANCH  29  30
ENDBRANCH  20  29
ENDBRANCH  15  19
BRANCH  17  34
ATOM     34  C   UNL A   1      32.056  27.144  25.566  1.00  0.00    -0.012 A 
ATOM     35  C   UNL A   1      33.341  27.543  25.176  1.00  0.00    -0.050 A 
ATOM     36  C   UNL A   1      31.486  27.708  26.710  1.00  0.00    -0.050 A 
ATOM     37  C   UNL A   1      34.033  28.504  25.913  1.00  0.00    -0.019 A 
ATOM     38  H   UNL A   1      33.777  27.125  24.339  1.00  0.00     0.063 H 
ATOM     39  C   UNL A   1      32.185  28.672  27.449  1.00  0.00    -0.019 A 
ATOM     40  H   UNL A   1      30.544  27.414  27.013  1.00  0.00     0.063 H 
ATOM     41  C   UNL A   1      33.461  29.075  27.052  1.00  0.00     0.118 A 
ATOM     42  H   UNL A   1      34.977  28.796  25.615  1.00  0.00     0.066 H 
ATOM     43  H   UNL A   1      31.755  29.086  28.291  1.00  0.00     0.066 H 
BRANCH  41  44
ATOM     44  O   UNL A   1      34.246  30.003  27.676  1.00  0.00    -0.497 OA
BRANCH  44  45
ATOM     45  C   UNL A   1      33.809  31.355  27.628  1.00  0.00     0.078 C 
ATOM     46  H   UNL A   1      34.160  31.873  28.496  1.00  0.00     0.067 H 
ATOM     47  H   UNL A   1      32.741  31.384  27.601  1.00  0.00     0.067 H 
ATOM     48  H   UNL A   1      34.202  31.826  26.751  1.00  0.00     0.067 H 
ENDBRANCH  44  45
ENDBRANCH  41  44
ENDBRANCH  17  34
ENDBRANCH  11  14
ENDBRANCH   8  11
ENDBRANCH   4   7
ENDBRANCH   1   4
BRANCH   1  49
ATOM     49  C   UNL A   1      34.571  20.135  24.871  1.00  0.00    -0.052 C 
ATOM     50  H   UNL A   1      34.250  20.296  23.863  1.00  0.00     0.027 H 
ATOM     51  H   UNL A   1      34.871  19.128  25.066  1.00  0.00     0.027 H 
BRANCH  49  52
ATOM     52  C   UNL A   1      35.807  21.007  25.122  1.00  0.00    -0.052 C 
ATOM     53  H   UNL A   1      35.772  21.348  26.136  1.00  0.00     0.027 H 
ATOM     54  H   UNL A   1      35.764  21.799  24.403  1.00  0.00     0.027 H 
BRANCH  52  55
ATOM     55  C   UNL A   1      37.152  20.308  24.904  1.00  0.00    -0.036 C 
ATOM     56  H   UNL A   1      37.289  20.168  23.852  1.00  0.00     0.028 H 
ATOM     57  H   UNL A   1      37.107  19.389  25.449  1.00  0.00     0.028 H 
BRANCH  55  58
ATOM     58  C   UNL A   1      38.362  21.069  25.442  1.00  0.00     0.018 C 
ATOM     59  H   UNL A   1      38.022  21.814  26.130  1.00  0.00     0.049 H 
ATOM     60  H   UNL A   1      38.871  21.511  24.611  1.00  0.00     0.049 H 
BRANCH  58  61
ATOM     61  N   UNL A   1      39.298  20.190  26.127  1.00  0.00    -0.352 N 
ATOM     62  C   UNL A   1      40.494  20.483  26.725  1.00  0.00     0.251 C 
ATOM     63  H   UNL A   1      39.031  19.244  26.166  1.00  0.00     0.163 HD
ATOM     64  O   UNL A   1      41.241  19.571  27.084  1.00  0.00    -0.269 OA
BRANCH  62  65
ATOM     65  C   UNL A   1      40.910  21.886  26.932  1.00  0.00     0.039 A 
ATOM     66  C   UNL A   1      41.511  22.237  28.145  1.00  0.00    -0.049 A 
ATOM     67  C   UNL A   1      40.670  22.863  25.961  1.00  0.00    -0.049 A 
ATOM     68  C   UNL A   1      41.916  23.556  28.365  1.00  0.00    -0.053 A 
ATOM     69  H   UNL A   1      41.657  21.523  28.875  1.00  0.00     0.063 H 
ATOM     70  C   UNL A   1      41.128  24.165  26.157  1.00  0.00    -0.053 A 
ATOM     71  H   UNL A   1      40.156  22.620  25.100  1.00  0.00     0.063 H 
ATOM     72  C   UNL A   1      41.748  24.525  27.363  1.00  0.00    -0.014 A 
ATOM     73  H   UNL A   1      42.340  23.818  29.268  1.00  0.00     0.063 H 
ATOM     74  H   UNL A   1      41.010  24.868  25.410  1.00  0.00     0.063 H 
BRANCH  72  75
ATOM     75  C   UNL A   1      42.208  25.921  27.568  1.00  0.00     0.031 A 
ATOM     76  C   UNL A   1      43.536  26.368  27.024  1.00  0.00     0.074 A 
ATOM     77  C   UNL A   1      41.452  26.771  28.287  1.00  0.00     0.049 A 
ATOM     78  N   UNL A   1      44.130  27.529  27.143  1.00  0.00    -0.248 NA
ATOM     79  C   UNL A   1      44.307  25.373  26.263  1.00  0.00    -0.034 C 
ATOM     80  C   UNL A   1      40.165  26.444  28.902  1.00  0.00    -0.036 A 
ATOM     81  N   UNL A   1      41.661  28.083  28.630  1.00  0.00    -0.354 N 
ATOM     82  C   UNL A   1      45.348  27.398  26.487  1.00  0.00     0.074 A 
ATOM     83  C   UNL A   1      45.428  26.033  26.011  1.00  0.00    -0.034 C 
ATOM     84  H   UNL A   1      44.045  24.412  25.997  1.00  0.00     0.065 H 
ATOM     85  C   UNL A   1      39.689  27.531  29.531  1.00  0.00    -0.036 A 
ATOM     86  H   UNL A   1      39.698  25.525  28.859  1.00  0.00     0.065 H 
ATOM     87  C   UNL A   1      40.651  28.621  29.390  1.00  0.00     0.049 A 
ATOM     88  H   UNL A   1      42.459  28.591  28.357  1.00  0.00     0.167 HD
ATOM     89  C   UNL A   1      46.302  28.336  26.282  1.00  0.00     0.037 A 
ATOM     90  H   UNL A   1      46.251  25.628  25.538  1.00  0.00     0.065 H 
ATOM     91  H   UNL A   1      38.790  27.587  30.034  1.00  0.00     0.065 H 
ATOM     92  C   UNL A   1      40.518  29.854  29.914  1.00  0.00     0.037 A 
ATOM     93  C   UNL A   1      46.209  29.701  26.731  1.00  0.00     0.049 A 
ATOM     94  C   UNL A   1      41.590  30.879  29.668  1.00  0.00     0.074 A 
ATOM     95  C   UNL A   1      47.096  30.742  26.522  1.00  0.00    -0.036 A 
ATOM     96  N   UNL A   1      45.161  30.214  27.482  1.00  0.00    -0.354 N 
ATOM     97  N   UNL A   1      42.708  30.762  28.993  1.00  0.00    -0.248 NA
ATOM     98  C   UNL A   1      41.379  32.211  30.253  1.00  0.00    -0.034 C 
ATOM     99  C   UNL A   1      46.603  31.876  27.176  1.00  0.00    -0.036 A 
ATOM    100  H   UNL A   1      47.971  30.692  25.976  1.00  0.00     0.065 H 
ATOM    101  C   UNL A   1      45.389  31.552  27.759  1.00  0.00     0.049 A 
ATOM    102  H   UNL A   1      44.373  29.702  27.775  1.00  0.00     0.167 HD
ATOM    103  C   UNL A   1      43.319  32.006  29.049  1.00  0.00     0.074 A 
ATOM    104  C   UNL A   1      42.443  32.870  29.813  1.00  0.00    -0.034 C 
ATOM    105  H   UNL A   1      40.607  32.545  30.849  1.00  0.00     0.065 H 
ATOM    106  H   UNL A   1      47.066  32.798  27.219  1.00  0.00     0.065 H 
ATOM    107  C   UNL A   1      44.502  32.398  28.515  1.00  0.00     0.037 A 
ATOM    108  H   UNL A   1      42.622  33.870  29.992  1.00  0.00     0.065 H 
BRANCH  89 109
ATOM    109  C   UNL A   1      47.532  27.922  25.530  1.00  0.00     0.064 A 
ATOM    110  C   UNL A   1      48.709  27.550  26.197  1.00  0.00     0.173 A 
ATOM    111  C   UNL A   1      47.525  27.860  24.128  1.00  0.00     0.173 A 
ATOM    112  F   UNL A   1      48.771  27.603  27.535  1.00  0.00    -0.203 F 
ATOM    113  C   UNL A   1      49.841  27.157  25.487  1.00  0.00     0.198 A 
ATOM    114  C   UNL A   1      48.649  27.441  23.423  1.00  0.00     0.198 A 
ATOM    115  F   UNL A   1      46.422  28.199  23.441  1.00  0.00    -0.203 F 
ATOM    116  F   UNL A   1      50.968  26.849  26.145  1.00  0.00    -0.200 F 
ATOM    117  C   UNL A   1      49.809  27.096  24.102  1.00  0.00     0.200 A 
ATOM    118  F   UNL A   1      48.613  27.371  22.085  1.00  0.00    -0.200 F 
ATOM    119  F   UNL A   1      50.898  26.713  23.421  1.00  0.00    -0.200 F 
ENDBRANCH  89 109
BRANCH  92 120
ATOM    120  C   UNL A   1      39.305  30.196  30.699  1.00  0.00     0.064 A 
ATOM    121  C   UNL A   1      38.166  30.717  30.068  1.00  0.00     0.173 A 
ATOM    122  C   UNL A   1      39.258  30.015  32.088  1.00  0.00     0.173 A 
ATOM    123  F   UNL A   1      38.172  30.928  28.744  1.00  0.00    -0.203 F 
ATOM    124  C   UNL A   1      37.031  31.058  30.801  1.00  0.00     0.198 A 
ATOM    125  C   UNL A   1      38.113  30.334  32.816  1.00  0.00     0.198 A 
ATOM    126  F   UNL A   1      40.320  29.517  32.736  1.00  0.00    -0.203 F 
ATOM    127  F   UNL A   1      35.971  31.591  30.179  1.00  0.00    -0.200 F 
ATOM    128  C   UNL A   1      37.003  30.861  32.173  1.00  0.00     0.200 A 
ATOM    129  F   UNL A   1      38.086  30.131  34.141  1.00  0.00    -0.200 F 
ATOM    130  F   UNL A   1      35.911  31.187  32.877  1.00  0.00    -0.200 F 
ENDBRANCH  92 120
BRANCH 107 131
ATOM    131  C   UNL A   1      44.901  33.830  28.711  1.00  0.00     0.064 A 
ATOM    132  C   UNL A   1      44.503  34.833  27.816  1.00  0.00     0.173 A 
ATOM    133  C   UNL A   1      45.661  34.209  29.829  1.00  0.00     0.173 A 
ATOM    134  F   UNL A   1      43.790  34.518  26.723  1.00  0.00    -0.203 F 
ATOM    135  C   UNL A   1      44.868  36.161  28.020  1.00  0.00     0.198 A 
ATOM    136  C   UNL A   1      46.002  35.540  30.043  1.00  0.00     0.198 A 
ATOM    137  F   UNL A   1      46.062  33.287  30.718  1.00  0.00    -0.203 F 
ATOM    138  F   UNL A   1      44.513  37.096  27.129  1.00  0.00    -0.200 F 
ATOM    139  C   UNL A   1      45.611  36.514  29.137  1.00  0.00     0.200 A 
ATOM    140  F   UNL A   1      46.711  35.882  31.129  1.00  0.00    -0.200 F 
ATOM    141  F   UNL A   1      45.958  37.793  29.334  1.00  0.00    -0.200 F 
ENDBRANCH 107 131
ENDBRANCH  72  75
ENDBRANCH  62  65
ENDBRANCH  58  61
ENDBRANCH  55  58
ENDBRANCH  52  55
ENDBRANCH  49  52
ENDBRANCH   1  49
TORSDOF 20
ENDMDL
