MODEL 1
REMARK VINA RESULT:      -9.5      0.000      0.000
REMARK SMILES COc1ccc([C@H]2CC(c3ccc(S(C)(=O)=O)cc3)=NN2c2ccc(C(=O)NCCCCCCNC(=O)c3ccc(-c4c5nc(c(-c6c(F)c(F)c(F)c(F)c6F)c6ccc([nH]6)c(-c6c(F)c(F)c(F)c(F)c6F)c6nc(c(-c7c(F)c(F)c(F)c(F)c7F)c7ccc4[nH]7)C=C6)C=C5)cc3)cc2)cc1OC
REMARK SMILES IDX 30 1 29 4 28 7 26 8 27 9 25 11 22 12 23 13 102 14 24 15
REMARK SMILES IDX 101 17 21 21 7 22 8 23 9 25 20 28 6 29 3 30 4 31 104 32 5 33
REMARK SMILES IDX 103 35 2 38 1 39 105 43 106 44 10 48 11 49 19 50 12 51 18 53
REMARK SMILES IDX 13 55 14 58 16 59 17 60 15 61 31 65 32 68 33 71 34 74 35 77
REMARK SMILES IDX 36 78 37 80 38 81 39 82 100 83 40 84 99 86 41 88 42 91 43 92
REMARK SMILES IDX 93 93 44 94 98 95 92 96 94 97 45 98 97 99 91 101 90 103
REMARK SMILES IDX 46 105 78 108 58 109 77 110 59 111 62 112 76 113 95 114
REMARK SMILES IDX 60 115 61 117 75 119 96 120 63 123 47 125 48 126 56 127
REMARK SMILES IDX 49 128 50 129 54 130 57 131 51 132 52 133 55 134 53 135
REMARK SMILES IDX 79 136 80 137 88 138 81 139 82 140 86 141 89 142 83 143
REMARK SMILES IDX 84 144 87 145 85 146 64 147 65 148 73 149 66 150 67 151
REMARK SMILES IDX 71 152 74 153 68 154 69 155 72 156 70 157
REMARK H PARENT 30 2 30 3 29 5 29 6 28 10 23 16 102 18 24 19 101 20 7 24 8 26
REMARK H PARENT 8 27 4 34 5 36 103 37 1 40 1 41 1 42 106 45 106 46 106 47
REMARK H PARENT 11 52 19 54 12 56 18 57 15 62 15 63 15 64 31 66 31 67 32 69
REMARK H PARENT 32 70 33 72 33 73 34 75 34 76 35 79 39 85 100 87 40 89 99 90
REMARK H PARENT 98 100 92 102 94 104 97 106 91 107 59 116 62 118 95 121 60 122
REMARK H PARENT 96 124
REMARK Flexibility Score: inf
ROOT
ATOM      1  C   UNL A   1      37.983  33.298  29.632  1.00  0.00    -0.036 C 
ATOM      2  H   UNL A   1      37.077  33.823  29.854  1.00  0.00     0.028 H 
ATOM      3  H   UNL A   1      38.617  33.858  28.978  1.00  0.00     0.028 H 
ENDROOT
BRANCH   1   4
ATOM      4  C   UNL A   1      37.626  31.992  28.918  1.00  0.00     0.018 C 
ATOM      5  H   UNL A   1      36.942  32.197  28.122  1.00  0.00     0.049 H 
ATOM      6  H   UNL A   1      38.516  31.550  28.523  1.00  0.00     0.049 H 
BRANCH   4   7
ATOM      7  N   UNL A   1      37.011  31.076  29.856  1.00  0.00    -0.352 N 
ATOM      8  C   UNL A   1      37.168  29.732  30.074  1.00  0.00     0.251 C 
ATOM      9  O   UNL A   1      36.466  29.211  30.941  1.00  0.00    -0.269 OA
ATOM     10  H   UNL A   1      36.352  31.500  30.452  1.00  0.00     0.163 HD
BRANCH   8  11
ATOM     11  C   UNL A   1      38.186  28.906  29.368  1.00  0.00     0.039 A 
ATOM     12  C   UNL A   1      40.238  27.326  28.241  1.00  0.00     0.060 A 
ATOM     13  C   UNL A   1      39.809  27.110  29.554  1.00  0.00    -0.036 A 
ATOM     14  C   UNL A   1      39.583  28.293  27.478  1.00  0.00    -0.036 A 
ATOM     15  C   UNL A   1      38.808  27.903  30.120  1.00  0.00    -0.047 A 
ATOM     16  H   UNL A   1      40.238  26.356  30.113  1.00  0.00     0.065 H 
ATOM     17  C   UNL A   1      38.536  29.048  28.023  1.00  0.00    -0.047 A 
ATOM     18  H   UNL A   1      39.872  28.454  26.501  1.00  0.00     0.065 H 
ATOM     19  H   UNL A   1      38.525  27.747  31.099  1.00  0.00     0.063 H 
ATOM     20  H   UNL A   1      38.021  29.714  27.427  1.00  0.00     0.063 H 
BRANCH  12  21
ATOM     21  N   UNL A   1      41.269  26.566  27.719  1.00  0.00    -0.257 N 
ATOM     22  C   UNL A   1      41.461  25.139  27.967  1.00  0.00     0.083 C 
ATOM     23  C   UNL A   1      42.829  24.872  27.322  1.00  0.00     0.019 C 
ATOM     24  H   UNL A   1      41.426  24.877  29.003  1.00  0.00     0.061 H 
ATOM     25  C   UNL A   1      43.178  26.259  26.860  1.00  0.00     0.071 C 
ATOM     26  H   UNL A   1      42.757  24.187  26.503  1.00  0.00     0.036 H 
ATOM     27  H   UNL A   1      43.551  24.420  27.971  1.00  0.00     0.036 H 
ATOM     28  N   UNL A   1      42.307  27.184  27.109  1.00  0.00    -0.176 NA
BRANCH  22  29
ATOM     29  C   UNL A   1      40.356  24.300  27.343  1.00  0.00    -0.019 A 
ATOM     30  C   UNL A   1      38.328  22.725  26.176  1.00  0.00     0.160 A 
ATOM     31  C   UNL A   1      38.124  24.092  26.412  1.00  0.00    -0.016 A 
ATOM     32  C   UNL A   1      39.552  22.134  26.500  1.00  0.00     0.161 A 
ATOM     33  C   UNL A   1      39.126  24.873  26.998  1.00  0.00    -0.053 A 
ATOM     34  H   UNL A   1      37.225  24.527  26.151  1.00  0.00     0.066 H 
ATOM     35  C   UNL A   1      40.548  22.931  27.082  1.00  0.00    -0.011 A 
ATOM     36  H   UNL A   1      38.959  25.875  27.176  1.00  0.00     0.063 H 
ATOM     37  H   UNL A   1      41.452  22.498  27.328  1.00  0.00     0.067 H 
BRANCH  30  38
ATOM     38  O   UNL A   1      37.341  22.028  25.533  1.00  0.00    -0.493 OA
BRANCH  38  39
ATOM     39  C   UNL A   1      36.041  22.520  25.861  1.00  0.00     0.078 C 
ATOM     40  H   UNL A   1      35.320  22.100  25.191  1.00  0.00     0.067 H 
ATOM     41  H   UNL A   1      36.032  23.587  25.770  1.00  0.00     0.067 H 
ATOM     42  H   UNL A   1      35.799  22.245  26.865  1.00  0.00     0.067 H 
ENDBRANCH  38  39
ENDBRANCH  30  38
BRANCH  32  43
ATOM     43  O   UNL A   1      39.958  20.841  26.316  1.00  0.00    -0.493 OA
BRANCH  43  44
ATOM     44  C   UNL A   1      41.347  20.563  26.273  1.00  0.00     0.078 C 
ATOM     45  H   UNL A   1      41.524  19.728  25.628  1.00  0.00     0.067 H 
ATOM     46  H   UNL A   1      41.696  20.331  27.258  1.00  0.00     0.067 H 
ATOM     47  H   UNL A   1      41.871  21.418  25.902  1.00  0.00     0.067 H 
ENDBRANCH  43  44
ENDBRANCH  32  43
ENDBRANCH  22  29
BRANCH  25  48
ATOM     48  C   UNL A   1      44.458  26.545  26.208  1.00  0.00    -0.002 A 
ATOM     49  C   UNL A   1      44.877  27.875  26.116  1.00  0.00    -0.052 A 
ATOM     50  C   UNL A   1      45.214  25.509  25.655  1.00  0.00    -0.052 A 
ATOM     51  C   UNL A   1      46.080  28.176  25.481  1.00  0.00    -0.043 A 
ATOM     52  H   UNL A   1      44.299  28.630  26.517  1.00  0.00     0.063 H 
ATOM     53  C   UNL A   1      46.406  25.810  24.995  1.00  0.00    -0.043 A 
ATOM     54  H   UNL A   1      44.894  24.531  25.735  1.00  0.00     0.063 H 
ATOM     55  C   UNL A   1      46.831  27.142  24.910  1.00  0.00     0.067 A 
ATOM     56  H   UNL A   1      46.415  29.152  25.432  1.00  0.00     0.064 H 
ATOM     57  H   UNL A   1      46.971  25.057  24.573  1.00  0.00     0.064 H 
BRANCH  55  58
ATOM     58  S   UNL A   1      48.356  27.537  24.087  1.00  0.00     0.175 S 
ATOM     59  O   UNL A   1      47.999  28.191  22.843  1.00  0.00    -0.224 OA
ATOM     60  O   UNL A   1      49.221  28.189  25.053  1.00  0.00    -0.224 OA
BRANCH  58  61
ATOM     61  C   UNL A   1      49.070  25.957  23.709  1.00  0.00     0.043 C 
ATOM     62  H   UNL A   1      48.416  25.181  24.047  1.00  0.00     0.040 H 
ATOM     63  H   UNL A   1      50.016  25.866  24.201  1.00  0.00     0.040 H 
ATOM     64  H   UNL A   1      49.209  25.871  22.652  1.00  0.00     0.040 H 
ENDBRANCH  58  61
ENDBRANCH  55  58
ENDBRANCH  25  48
ENDBRANCH  12  21
ENDBRANCH   8  11
ENDBRANCH   4   7
ENDBRANCH   1   4
BRANCH   1  65
ATOM     65  C   UNL A   1      38.752  33.075  30.941  1.00  0.00    -0.052 C 
ATOM     66  H   UNL A   1      39.792  32.980  30.705  1.00  0.00     0.027 H 
ATOM     67  H   UNL A   1      38.340  32.194  31.387  1.00  0.00     0.027 H 
BRANCH  65  68
ATOM     68  C   UNL A   1      38.597  34.199  31.974  1.00  0.00    -0.052 C 
ATOM     69  H   UNL A   1      38.815  35.127  31.491  1.00  0.00     0.027 H 
ATOM     70  H   UNL A   1      39.272  33.967  32.772  1.00  0.00     0.027 H 
BRANCH  68  71
ATOM     71  C   UNL A   1      37.207  34.306  32.605  1.00  0.00    -0.036 C 
ATOM     72  H   UNL A   1      36.558  34.792  31.907  1.00  0.00     0.028 H 
ATOM     73  H   UNL A   1      37.325  34.856  33.516  1.00  0.00     0.028 H 
BRANCH  71  74
ATOM     74  C   UNL A   1      36.584  32.966  32.984  1.00  0.00     0.018 C 
ATOM     75  H   UNL A   1      37.094  32.186  32.457  1.00  0.00     0.049 H 
ATOM     76  H   UNL A   1      35.548  32.992  32.719  1.00  0.00     0.049 H 
BRANCH  74  77
ATOM     77  N   UNL A   1      36.682  32.711  34.412  1.00  0.00    -0.352 N 
ATOM     78  C   UNL A   1      37.596  31.950  35.096  1.00  0.00     0.251 C 
ATOM     79  H   UNL A   1      35.994  33.145  34.966  1.00  0.00     0.163 HD
ATOM     80  O   UNL A   1      37.403  31.658  36.272  1.00  0.00    -0.269 OA
BRANCH  78  81
ATOM     81  C   UNL A   1      38.813  31.470  34.410  1.00  0.00     0.039 A 
ATOM     82  C   UNL A   1      40.031  32.101  34.672  1.00  0.00    -0.049 A 
ATOM     83  C   UNL A   1      38.747  30.415  33.493  1.00  0.00    -0.049 A 
ATOM     84  C   UNL A   1      41.195  31.641  34.052  1.00  0.00    -0.053 A 
ATOM     85  H   UNL A   1      40.070  32.903  35.319  1.00  0.00     0.063 H 
ATOM     86  C   UNL A   1      39.917  29.917  32.927  1.00  0.00    -0.053 A 
ATOM     87  H   UNL A   1      37.835  30.007  33.238  1.00  0.00     0.063 H 
ATOM     88  C   UNL A   1      41.151  30.528  33.197  1.00  0.00    -0.014 A 
ATOM     89  H   UNL A   1      42.092  32.121  34.226  1.00  0.00     0.063 H 
ATOM     90  H   UNL A   1      39.876  29.094  32.306  1.00  0.00     0.063 H 
BRANCH  88  91
ATOM     91  C   UNL A   1      42.385  29.993  32.569  1.00  0.00     0.031 A 
ATOM     92  C   UNL A   1      43.081  28.804  33.169  1.00  0.00     0.074 A 
ATOM     93  C   UNL A   1      42.911  30.618  31.499  1.00  0.00     0.049 A 
ATOM     94  N   UNL A   1      44.208  28.239  32.814  1.00  0.00    -0.248 NA
ATOM     95  C   UNL A   1      42.441  28.184  34.339  1.00  0.00    -0.034 C 
ATOM     96  C   UNL A   1      42.351  31.808  30.856  1.00  0.00    -0.036 A 
ATOM     97  N   UNL A   1      44.042  30.349  30.771  1.00  0.00    -0.354 N 
ATOM     98  C   UNL A   1      44.418  27.211  33.725  1.00  0.00     0.074 A 
ATOM     99  C   UNL A   1      43.329  27.259  34.676  1.00  0.00    -0.034 C 
ATOM    100  H   UNL A   1      41.536  28.409  34.783  1.00  0.00     0.065 H 
ATOM    101  C   UNL A   1      43.132  32.155  29.820  1.00  0.00    -0.036 A 
ATOM    102  H   UNL A   1      41.493  32.300  31.150  1.00  0.00     0.065 H 
ATOM    103  C   UNL A   1      44.264  31.237  29.748  1.00  0.00     0.049 A 
ATOM    104  H   UNL A   1      44.639  29.590  30.965  1.00  0.00     0.167 HD
ATOM    105  C   UNL A   1      45.417  26.298  33.752  1.00  0.00     0.037 A 
ATOM    106  H   UNL A   1      43.253  26.653  35.508  1.00  0.00     0.065 H 
ATOM    107  H   UNL A   1      42.958  32.946  29.178  1.00  0.00     0.065 H 
ATOM    108  C   UNL A   1      45.272  31.308  28.858  1.00  0.00     0.037 A 
ATOM    109  C   UNL A   1      46.481  26.235  32.784  1.00  0.00     0.049 A 
ATOM    110  C   UNL A   1      46.367  30.276  28.906  1.00  0.00     0.074 A 
ATOM    111  C   UNL A   1      47.506  25.310  32.687  1.00  0.00    -0.036 A 
ATOM    112  N   UNL A   1      46.657  27.136  31.744  1.00  0.00    -0.354 N 
ATOM    113  N   UNL A   1      46.519  29.269  29.732  1.00  0.00    -0.248 NA
ATOM    114  C   UNL A   1      47.426  30.386  27.894  1.00  0.00    -0.034 C 
ATOM    115  C   UNL A   1      48.325  25.674  31.614  1.00  0.00    -0.036 A 
ATOM    116  H   UNL A   1      47.642  24.492  33.302  1.00  0.00     0.065 H 
ATOM    117  C   UNL A   1      47.784  26.798  31.013  1.00  0.00     0.049 A 
ATOM    118  H   UNL A   1      46.068  27.902  31.554  1.00  0.00     0.167 HD
ATOM    119  C   UNL A   1      47.670  28.610  29.323  1.00  0.00     0.074 A 
ATOM    120  C   UNL A   1      48.170  29.324  28.166  1.00  0.00    -0.034 C 
ATOM    121  H   UNL A   1      47.556  31.104  27.164  1.00  0.00     0.065 H 
ATOM    122  H   UNL A   1      49.187  25.188  31.320  1.00  0.00     0.065 H 
ATOM    123  C   UNL A   1      48.260  27.513  29.856  1.00  0.00     0.037 A 
ATOM    124  H   UNL A   1      49.000  29.041  27.622  1.00  0.00     0.065 H 
BRANCH 105 125
ATOM    125  C   UNL A   1      45.407  25.285  34.858  1.00  0.00     0.064 A 
ATOM    126  C   UNL A   1      44.887  23.996  34.669  1.00  0.00     0.173 A 
ATOM    127  C   UNL A   1      45.967  25.589  36.108  1.00  0.00     0.173 A 
ATOM    128  F   UNL A   1      44.329  23.658  33.497  1.00  0.00    -0.203 F 
ATOM    129  C   UNL A   1      44.907  23.057  35.697  1.00  0.00     0.198 A 
ATOM    130  C   UNL A   1      46.012  24.638  37.125  1.00  0.00     0.198 A 
ATOM    131  F   UNL A   1      46.484  26.805  36.341  1.00  0.00    -0.203 F 
ATOM    132  F   UNL A   1      44.365  21.846  35.507  1.00  0.00    -0.200 F 
ATOM    133  C   UNL A   1      45.476  23.376  36.921  1.00  0.00     0.200 A 
ATOM    134  F   UNL A   1      46.574  24.944  38.302  1.00  0.00    -0.200 F 
ATOM    135  F   UNL A   1      45.504  22.468  37.905  1.00  0.00    -0.200 F 
ENDBRANCH 105 125
BRANCH 108 136
ATOM    136  C   UNL A   1      45.285  32.381  27.830  1.00  0.00     0.064 A 
ATOM    137  C   UNL A   1      46.052  33.540  28.010  1.00  0.00     0.173 A 
ATOM    138  C   UNL A   1      44.526  32.276  26.656  1.00  0.00     0.173 A 
ATOM    139  F   UNL A   1      46.778  33.695  29.127  1.00  0.00    -0.203 F 
ATOM    140  C   UNL A   1      46.041  34.565  27.066  1.00  0.00     0.198 A 
ATOM    141  C   UNL A   1      44.537  33.288  25.699  1.00  0.00     0.198 A 
ATOM    142  F   UNL A   1      43.779  31.185  26.433  1.00  0.00    -0.203 F 
ATOM    143  F   UNL A   1      46.745  35.684  27.287  1.00  0.00    -0.200 F 
ATOM    144  C   UNL A   1      45.288  34.436  25.909  1.00  0.00     0.200 A 
ATOM    145  F   UNL A   1      43.819  33.154  24.575  1.00  0.00    -0.200 F 
ATOM    146  F   UNL A   1      45.277  35.421  25.001  1.00  0.00    -0.200 F 
ENDBRANCH 108 136
BRANCH 123 147
ATOM    147  C   UNL A   1      49.491  26.994  29.173  1.00  0.00     0.064 A 
ATOM    148  C   UNL A   1      49.411  26.138  28.065  1.00  0.00     0.173 A 
ATOM    149  C   UNL A   1      50.764  27.390  29.609  1.00  0.00     0.173 A 
ATOM    150  F   UNL A   1      48.217  25.718  27.620  1.00  0.00    -0.203 F 
ATOM    151  C   UNL A   1      50.564  25.679  27.433  1.00  0.00     0.198 A 
ATOM    152  C   UNL A   1      51.913  26.952  28.957  1.00  0.00     0.198 A 
ATOM    153  F   UNL A   1      50.892  28.212  30.661  1.00  0.00    -0.203 F 
ATOM    154  F   UNL A   1      50.466  24.826  26.404  1.00  0.00    -0.200 F 
ATOM    155  C   UNL A   1      51.812  26.092  27.873  1.00  0.00     0.200 A 
ATOM    156  F   UNL A   1      53.118  27.363  29.376  1.00  0.00    -0.200 F 
ATOM    157  F   UNL A   1      52.920  25.656  27.259  1.00  0.00    -0.200 F 
ENDBRANCH 123 147
ENDBRANCH  88  91
ENDBRANCH  78  81
ENDBRANCH  74  77
ENDBRANCH  71  74
ENDBRANCH  68  71
ENDBRANCH  65  68
ENDBRANCH   1  65
TORSDOF 22
ENDMDL
MODEL 2
REMARK VINA RESULT:      -9.5      3.939      9.770
REMARK SMILES COc1ccc([C@H]2CC(c3ccc(S(C)(=O)=O)cc3)=NN2c2ccc(C(=O)NCCCCCCNC(=O)c3ccc(-c4c5nc(c(-c6c(F)c(F)c(F)c(F)c6F)c6ccc([nH]6)c(-c6c(F)c(F)c(F)c(F)c6F)c6nc(c(-c7c(F)c(F)c(F)c(F)c7F)c7ccc4[nH]7)C=C6)C=C5)cc3)cc2)cc1OC
REMARK SMILES IDX 30 1 29 4 28 7 26 8 27 9 25 11 22 12 23 13 102 14 24 15
REMARK SMILES IDX 101 17 21 21 7 22 8 23 9 25 20 28 6 29 3 30 4 31 104 32 5 33
REMARK SMILES IDX 103 35 2 38 1 39 105 43 106 44 10 48 11 49 19 50 12 51 18 53
REMARK SMILES IDX 13 55 14 58 16 59 17 60 15 61 31 65 32 68 33 71 34 74 35 77
REMARK SMILES IDX 36 78 37 80 38 81 39 82 100 83 40 84 99 86 41 88 42 91 43 92
REMARK SMILES IDX 93 93 44 94 98 95 92 96 94 97 45 98 97 99 91 101 90 103
REMARK SMILES IDX 46 105 78 108 58 109 77 110 59 111 62 112 76 113 95 114
REMARK SMILES IDX 60 115 61 117 75 119 96 120 63 123 47 125 48 126 56 127
REMARK SMILES IDX 49 128 50 129 54 130 57 131 51 132 52 133 55 134 53 135
REMARK SMILES IDX 79 136 80 137 88 138 81 139 82 140 86 141 89 142 83 143
REMARK SMILES IDX 84 144 87 145 85 146 64 147 65 148 73 149 66 150 67 151
REMARK SMILES IDX 71 152 74 153 68 154 69 155 72 156 70 157
REMARK H PARENT 30 2 30 3 29 5 29 6 28 10 23 16 102 18 24 19 101 20 7 24 8 26
REMARK H PARENT 8 27 4 34 5 36 103 37 1 40 1 41 1 42 106 45 106 46 106 47
REMARK H PARENT 11 52 19 54 12 56 18 57 15 62 15 63 15 64 31 66 31 67 32 69
REMARK H PARENT 32 70 33 72 33 73 34 75 34 76 35 79 39 85 100 87 40 89 99 90
REMARK H PARENT 98 100 92 102 94 104 97 106 91 107 59 116 62 118 95 121 60 122
REMARK H PARENT 96 124
REMARK Flexibility Score: inf
ROOT
ATOM      1  C   UNL A   1      43.769  24.143  29.104  1.00  0.00    -0.036 C 
ATOM      2  H   UNL A   1      43.621  23.467  28.288  1.00  0.00     0.028 H 
ATOM      3  H   UNL A   1      43.814  23.631  30.042  1.00  0.00     0.028 H 
ENDROOT
BRANCH   1   4
ATOM      4  C   UNL A   1      42.577  25.102  29.165  1.00  0.00     0.018 C 
ATOM      5  H   UNL A   1      41.818  24.688  29.795  1.00  0.00     0.049 H 
ATOM      6  H   UNL A   1      42.899  26.043  29.559  1.00  0.00     0.049 H 
BRANCH   4   7
ATOM      7  N   UNL A   1      42.042  25.300  27.833  1.00  0.00    -0.352 N 
ATOM      8  C   UNL A   1      41.054  26.114  27.345  1.00  0.00     0.251 C 
ATOM      9  O   UNL A   1      40.794  26.035  26.145  1.00  0.00    -0.269 OA
ATOM     10  H   UNL A   1      42.471  24.741  27.146  1.00  0.00     0.163 HD
BRANCH   8  11
ATOM     11  C   UNL A   1      40.343  27.121  28.179  1.00  0.00     0.039 A 
ATOM     12  C   UNL A   1      39.196  29.173  29.747  1.00  0.00     0.060 A 
ATOM     13  C   UNL A   1      40.047  29.478  28.681  1.00  0.00    -0.036 A 
ATOM     14  C   UNL A   1      38.872  27.835  29.975  1.00  0.00    -0.036 A 
ATOM     15  C   UNL A   1      40.631  28.466  27.917  1.00  0.00    -0.047 A 
ATOM     16  H   UNL A   1      40.248  30.466  28.456  1.00  0.00     0.065 H 
ATOM     17  C   UNL A   1      39.406  26.820  29.171  1.00  0.00    -0.047 A 
ATOM     18  H   UNL A   1      38.230  27.590  30.745  1.00  0.00     0.065 H 
ATOM     19  H   UNL A   1      41.278  28.711  27.153  1.00  0.00     0.063 H 
ATOM     20  H   UNL A   1      39.107  25.843  29.314  1.00  0.00     0.063 H 
BRANCH  12  21
ATOM     21  N   UNL A   1      38.673  30.189  30.525  1.00  0.00    -0.257 N 
ATOM     22  C   UNL A   1      38.189  31.469  30.011  1.00  0.00     0.083 C 
ATOM     23  C   UNL A   1      37.918  32.262  31.298  1.00  0.00     0.019 C 
ATOM     24  H   UNL A   1      38.881  31.954  29.356  1.00  0.00     0.061 H 
ATOM     25  C   UNL A   1      38.360  31.257  32.324  1.00  0.00     0.071 C 
ATOM     26  H   UNL A   1      36.882  32.507  31.403  1.00  0.00     0.036 H 
ATOM     27  H   UNL A   1      38.413  33.210  31.354  1.00  0.00     0.036 H 
ATOM     28  N   UNL A   1      38.793  30.124  31.872  1.00  0.00    -0.176 NA
BRANCH  22  29
ATOM     29  C   UNL A   1      36.939  31.303  29.161  1.00  0.00    -0.019 A 
ATOM     30  C   UNL A   1      34.611  31.024  27.593  1.00  0.00     0.160 A 
ATOM     31  C   UNL A   1      35.308  29.894  28.045  1.00  0.00    -0.016 A 
ATOM     32  C   UNL A   1      35.056  32.303  27.936  1.00  0.00     0.161 A 
ATOM     33  C   UNL A   1      36.467  30.031  28.816  1.00  0.00    -0.053 A 
ATOM     34  H   UNL A   1      34.962  28.951  27.806  1.00  0.00     0.066 H 
ATOM     35  C   UNL A   1      36.216  32.424  28.712  1.00  0.00    -0.011 A 
ATOM     36  H   UNL A   1      36.976  29.191  29.133  1.00  0.00     0.063 H 
ATOM     37  H   UNL A   1      36.552  33.367  28.964  1.00  0.00     0.067 H 
BRANCH  30  38
ATOM     38  O   UNL A   1      33.443  30.829  26.906  1.00  0.00    -0.493 OA
BRANCH  38  39
ATOM     39  C   UNL A   1      33.352  29.506  26.376  1.00  0.00     0.078 C 
ATOM     40  H   UNL A   1      32.366  29.124  26.536  1.00  0.00     0.067 H 
ATOM     41  H   UNL A   1      34.064  28.876  26.869  1.00  0.00     0.067 H 
ATOM     42  H   UNL A   1      33.561  29.528  25.327  1.00  0.00     0.067 H 
ENDBRANCH  38  39
ENDBRANCH  30  38
BRANCH  32  43
ATOM     43  O   UNL A   1      34.502  33.516  27.631  1.00  0.00    -0.493 OA
BRANCH  43  44
ATOM     44  C   UNL A   1      33.390  33.967  28.384  1.00  0.00     0.078 C 
ATOM     45  H   UNL A   1      32.811  33.126  28.704  1.00  0.00     0.067 H 
ATOM     46  H   UNL A   1      32.783  34.607  27.777  1.00  0.00     0.067 H 
ATOM     47  H   UNL A   1      33.734  34.510  29.239  1.00  0.00     0.067 H 
ENDBRANCH  43  44
ENDBRANCH  32  43
ENDBRANCH  22  29
BRANCH  25  48
ATOM     48  C   UNL A   1      38.344  31.573  33.755  1.00  0.00    -0.002 A 
ATOM     49  C   UNL A   1      37.526  32.615  34.199  1.00  0.00    -0.052 A 
ATOM     50  C   UNL A   1      39.166  30.871  34.640  1.00  0.00    -0.052 A 
ATOM     51  C   UNL A   1      37.510  32.950  35.551  1.00  0.00    -0.043 A 
ATOM     52  H   UNL A   1      36.936  33.133  33.529  1.00  0.00     0.063 H 
ATOM     53  C   UNL A   1      39.171  31.222  35.991  1.00  0.00    -0.043 A 
ATOM     54  H   UNL A   1      39.761  30.101  34.299  1.00  0.00     0.063 H 
ATOM     55  C   UNL A   1      38.345  32.260  36.438  1.00  0.00     0.067 A 
ATOM     56  H   UNL A   1      36.888  33.699  35.896  1.00  0.00     0.064 H 
ATOM     57  H   UNL A   1      39.779  30.720  36.656  1.00  0.00     0.064 H 
BRANCH  55  58
ATOM     58  S   UNL A   1      38.330  32.706  38.158  1.00  0.00     0.175 S 
ATOM     59  O   UNL A   1      37.732  34.025  38.241  1.00  0.00    -0.224 OA
ATOM     60  O   UNL A   1      37.778  31.586  38.898  1.00  0.00    -0.224 OA
BRANCH  58  61
ATOM     61  C   UNL A   1      40.047  32.838  38.589  1.00  0.00     0.043 C 
ATOM     62  H   UNL A   1      40.236  32.273  39.477  1.00  0.00     0.040 H 
ATOM     63  H   UNL A   1      40.293  33.866  38.761  1.00  0.00     0.040 H 
ATOM     64  H   UNL A   1      40.646  32.457  37.788  1.00  0.00     0.040 H 
ENDBRANCH  58  61
ENDBRANCH  55  58
ENDBRANCH  25  48
ENDBRANCH  12  21
ENDBRANCH   8  11
ENDBRANCH   4   7
ENDBRANCH   1   4
BRANCH   1  65
ATOM     65  C   UNL A   1      45.109  24.864  28.907  1.00  0.00    -0.052 C 
ATOM     66  H   UNL A   1      45.570  24.981  29.865  1.00  0.00     0.027 H 
ATOM     67  H   UNL A   1      44.883  25.796  28.432  1.00  0.00     0.027 H 
BRANCH  65  68
ATOM     68  C   UNL A   1      46.097  24.136  27.987  1.00  0.00    -0.052 C 
ATOM     69  H   UNL A   1      46.611  23.400  28.567  1.00  0.00     0.027 H 
ATOM     70  H   UNL A   1      46.745  24.889  27.587  1.00  0.00     0.027 H 
BRANCH  68  71
ATOM     71  C   UNL A   1      45.462  23.435  26.784  1.00  0.00    -0.036 C 
ATOM     72  H   UNL A   1      44.719  22.754  27.146  1.00  0.00     0.028 H 
ATOM     73  H   UNL A   1      46.255  22.944  26.260  1.00  0.00     0.028 H 
BRANCH  71  74
ATOM     74  C   UNL A   1      44.798  24.379  25.786  1.00  0.00     0.018 C 
ATOM     75  H   UNL A   1      44.285  25.148  26.325  1.00  0.00     0.049 H 
ATOM     76  H   UNL A   1      44.117  23.809  25.189  1.00  0.00     0.049 H 
BRANCH  74  77
ATOM     77  N   UNL A   1      45.772  24.995  24.899  1.00  0.00    -0.352 N 
ATOM     78  C   UNL A   1      46.174  26.305  24.830  1.00  0.00     0.251 C 
ATOM     79  H   UNL A   1      46.203  24.387  24.257  1.00  0.00     0.163 HD
ATOM     80  O   UNL A   1      46.838  26.701  23.877  1.00  0.00    -0.269 OA
BRANCH  78  81
ATOM     81  C   UNL A   1      45.796  27.248  25.903  1.00  0.00     0.039 A 
ATOM     82  C   UNL A   1      44.447  27.566  26.079  1.00  0.00    -0.049 A 
ATOM     83  C   UNL A   1      46.771  27.833  26.717  1.00  0.00    -0.049 A 
ATOM     84  C   UNL A   1      44.070  28.433  27.107  1.00  0.00    -0.053 A 
ATOM     85  H   UNL A   1      43.733  27.163  25.453  1.00  0.00     0.063 H 
ATOM     86  C   UNL A   1      46.388  28.645  27.781  1.00  0.00    -0.053 A 
ATOM     87  H   UNL A   1      47.771  27.662  26.530  1.00  0.00     0.063 H 
ATOM     88  C   UNL A   1      45.035  28.957  27.983  1.00  0.00    -0.014 A 
ATOM     89  H   UNL A   1      43.077  28.689  27.224  1.00  0.00     0.063 H 
ATOM     90  H   UNL A   1      47.103  29.019  28.424  1.00  0.00     0.063 H 
BRANCH  88  91
ATOM     91  C   UNL A   1      44.649  29.839  29.112  1.00  0.00     0.031 A 
ATOM     92  C   UNL A   1      44.344  29.249  30.460  1.00  0.00     0.074 A 
ATOM     93  C   UNL A   1      44.510  31.162  28.903  1.00  0.00     0.049 A 
ATOM     94  N   UNL A   1      43.917  29.843  31.546  1.00  0.00    -0.248 NA
ATOM     95  C   UNL A   1      44.518  27.795  30.599  1.00  0.00    -0.034 C 
ATOM     96  C   UNL A   1      44.733  31.845  27.628  1.00  0.00    -0.036 A 
ATOM     97  N   UNL A   1      44.135  32.169  29.757  1.00  0.00    -0.354 N 
ATOM     98  C   UNL A   1      43.755  28.836  32.488  1.00  0.00     0.074 A 
ATOM     99  C   UNL A   1      44.085  27.588  31.835  1.00  0.00    -0.034 C 
ATOM    100  H   UNL A   1      44.882  27.114  29.915  1.00  0.00     0.065 H 
ATOM    101  C   UNL A   1      44.506  33.159  27.788  1.00  0.00    -0.036 A 
ATOM    102  H   UNL A   1      45.019  31.390  26.747  1.00  0.00     0.065 H 
ATOM    103  C   UNL A   1      44.088  33.406  29.164  1.00  0.00     0.049 A 
ATOM    104  H   UNL A   1      43.919  32.017  30.706  1.00  0.00     0.167 HD
ATOM    105  C   UNL A   1      43.387  28.946  33.786  1.00  0.00     0.037 A 
ATOM    106  H   UNL A   1      43.994  26.657  32.273  1.00  0.00     0.065 H 
ATOM    107  H   UNL A   1      44.610  33.878  27.054  1.00  0.00     0.065 H 
ATOM    108  C   UNL A   1      43.738  34.603  29.672  1.00  0.00     0.037 A 
ATOM    109  C   UNL A   1      43.092  30.193  34.441  1.00  0.00     0.049 A 
ATOM    110  C   UNL A   1      43.338  34.698  31.120  1.00  0.00     0.074 A 
ATOM    111  C   UNL A   1      42.770  30.417  35.768  1.00  0.00    -0.036 A 
ATOM    112  N   UNL A   1      43.082  31.430  33.814  1.00  0.00    -0.354 N 
ATOM    113  N   UNL A   1      43.253  33.747  32.018  1.00  0.00    -0.248 NA
ATOM    114  C   UNL A   1      42.993  36.033  31.626  1.00  0.00    -0.034 C 
ATOM    115  C   UNL A   1      42.526  31.784  35.936  1.00  0.00    -0.036 A 
ATOM    116  H   UNL A   1      42.719  29.698  36.507  1.00  0.00     0.065 H 
ATOM    117  C   UNL A   1      42.742  32.418  34.723  1.00  0.00     0.049 A 
ATOM    118  H   UNL A   1      43.287  31.584  32.863  1.00  0.00     0.167 HD
ATOM    119  C   UNL A   1      42.875  34.370  33.200  1.00  0.00     0.074 A 
ATOM    120  C   UNL A   1      42.760  35.784  32.906  1.00  0.00    -0.034 C 
ATOM    121  H   UNL A   1      42.944  36.930  31.117  1.00  0.00     0.065 H 
ATOM    122  H   UNL A   1      42.233  32.241  36.813  1.00  0.00     0.065 H 
ATOM    123  C   UNL A   1      42.644  33.822  34.417  1.00  0.00     0.037 A 
ATOM    124  H   UNL A   1      42.528  36.506  33.606  1.00  0.00     0.065 H 
BRANCH 105 125
ATOM    125  C   UNL A   1      43.288  27.684  34.593  1.00  0.00     0.064 A 
ATOM    126  C   UNL A   1      44.382  27.187  35.318  1.00  0.00     0.173 A 
ATOM    127  C   UNL A   1      42.073  26.988  34.681  1.00  0.00     0.173 A 
ATOM    128  F   UNL A   1      45.569  27.808  35.257  1.00  0.00    -0.203 F 
ATOM    129  C   UNL A   1      44.269  26.029  36.082  1.00  0.00     0.198 A 
ATOM    130  C   UNL A   1      41.955  25.846  35.470  1.00  0.00     0.198 A 
ATOM    131  F   UNL A   1      40.994  27.423  34.013  1.00  0.00    -0.203 F 
ATOM    132  F   UNL A   1      45.339  25.550  36.731  1.00  0.00    -0.200 F 
ATOM    133  C   UNL A   1      43.055  25.365  36.164  1.00  0.00     0.200 A 
ATOM    134  F   UNL A   1      40.778  25.213  35.559  1.00  0.00    -0.200 F 
ATOM    135  F   UNL A   1      42.945  24.256  36.909  1.00  0.00    -0.200 F 
ENDBRANCH 105 125
BRANCH 108 136
ATOM    136  C   UNL A   1      43.770  35.815  28.812  1.00  0.00     0.064 A 
ATOM    137  C   UNL A   1      42.612  36.269  28.166  1.00  0.00     0.173 A 
ATOM    138  C   UNL A   1      44.955  36.536  28.612  1.00  0.00     0.173 A 
ATOM    139  F   UNL A   1      41.459  35.600  28.312  1.00  0.00    -0.203 F 
ATOM    140  C   UNL A   1      42.644  37.384  27.331  1.00  0.00     0.198 A 
ATOM    141  C   UNL A   1      44.981  37.668  27.799  1.00  0.00     0.198 A 
ATOM    142  F   UNL A   1      46.090  36.147  29.212  1.00  0.00    -0.203 F 
ATOM    143  F   UNL A   1      41.533  37.767  26.687  1.00  0.00    -0.200 F 
ATOM    144  C   UNL A   1      43.826  38.086  27.153  1.00  0.00     0.200 A 
ATOM    145  F   UNL A   1      46.122  38.352  27.641  1.00  0.00    -0.200 F 
ATOM    146  F   UNL A   1      43.858  39.159  26.351  1.00  0.00    -0.200 F 
ENDBRANCH 108 136
BRANCH 123 147
ATOM    147  C   UNL A   1      42.281  34.756  35.534  1.00  0.00     0.064 A 
ATOM    148  C   UNL A   1      40.956  35.159  35.754  1.00  0.00     0.173 A 
ATOM    149  C   UNL A   1      43.266  35.220  36.419  1.00  0.00     0.173 A 
ATOM    150  F   UNL A   1      39.980  34.755  34.926  1.00  0.00    -0.203 F 
ATOM    151  C   UNL A   1      40.634  36.012  36.806  1.00  0.00     0.198 A 
ATOM    152  C   UNL A   1      42.936  36.049  37.486  1.00  0.00     0.198 A 
ATOM    153  F   UNL A   1      44.547  34.858  36.254  1.00  0.00    -0.203 F 
ATOM    154  F   UNL A   1      39.368  36.421  36.971  1.00  0.00    -0.200 F 
ATOM    155  C   UNL A   1      41.622  36.450  37.675  1.00  0.00     0.200 A 
ATOM    156  F   UNL A   1      43.890  36.461  38.333  1.00  0.00    -0.200 F 
ATOM    157  F   UNL A   1      41.309  37.265  38.692  1.00  0.00    -0.200 F 
ENDBRANCH 123 147
ENDBRANCH  88  91
ENDBRANCH  78  81
ENDBRANCH  74  77
ENDBRANCH  71  74
ENDBRANCH  68  71
ENDBRANCH  65  68
ENDBRANCH   1  65
TORSDOF 22
ENDMDL
MODEL 3
REMARK VINA RESULT:      -9.5      1.286      7.035
REMARK SMILES COc1ccc([C@H]2CC(c3ccc(S(C)(=O)=O)cc3)=NN2c2ccc(C(=O)NCCCCCCNC(=O)c3ccc(-c4c5nc(c(-c6c(F)c(F)c(F)c(F)c6F)c6ccc([nH]6)c(-c6c(F)c(F)c(F)c(F)c6F)c6nc(c(-c7c(F)c(F)c(F)c(F)c7F)c7ccc4[nH]7)C=C6)C=C5)cc3)cc2)cc1OC
REMARK SMILES IDX 30 1 29 4 28 7 26 8 27 9 25 11 22 12 23 13 102 14 24 15
REMARK SMILES IDX 101 17 21 21 7 22 8 23 9 25 20 28 6 29 3 30 4 31 104 32 5 33
REMARK SMILES IDX 103 35 2 38 1 39 105 43 106 44 10 48 11 49 19 50 12 51 18 53
REMARK SMILES IDX 13 55 14 58 16 59 17 60 15 61 31 65 32 68 33 71 34 74 35 77
REMARK SMILES IDX 36 78 37 80 38 81 39 82 100 83 40 84 99 86 41 88 42 91 43 92
REMARK SMILES IDX 93 93 44 94 98 95 92 96 94 97 45 98 97 99 91 101 90 103
REMARK SMILES IDX 46 105 78 108 58 109 77 110 59 111 62 112 76 113 95 114
REMARK SMILES IDX 60 115 61 117 75 119 96 120 63 123 47 125 48 126 56 127
REMARK SMILES IDX 49 128 50 129 54 130 57 131 51 132 52 133 55 134 53 135
REMARK SMILES IDX 79 136 80 137 88 138 81 139 82 140 86 141 89 142 83 143
REMARK SMILES IDX 84 144 87 145 85 146 64 147 65 148 73 149 66 150 67 151
REMARK SMILES IDX 71 152 74 153 68 154 69 155 72 156 70 157
REMARK H PARENT 30 2 30 3 29 5 29 6 28 10 23 16 102 18 24 19 101 20 7 24 8 26
REMARK H PARENT 8 27 4 34 5 36 103 37 1 40 1 41 1 42 106 45 106 46 106 47
REMARK H PARENT 11 52 19 54 12 56 18 57 15 62 15 63 15 64 31 66 31 67 32 69
REMARK H PARENT 32 70 33 72 33 73 34 75 34 76 35 79 39 85 100 87 40 89 99 90
REMARK H PARENT 98 100 92 102 94 104 97 106 91 107 59 116 62 118 95 121 60 122
REMARK H PARENT 96 124
REMARK Flexibility Score: inf
ROOT
ATOM      1  C   UNL A   1      37.769  31.209  28.807  1.00  0.00    -0.036 C 
ATOM      2  H   UNL A   1      36.872  30.866  29.278  1.00  0.00     0.028 H 
ATOM      3  H   UNL A   1      37.580  31.607  27.832  1.00  0.00     0.028 H 
ENDROOT
BRANCH   1   4
ATOM      4  C   UNL A   1      38.718  30.020  28.640  1.00  0.00     0.018 C 
ATOM      5  H   UNL A   1      38.587  29.594  27.668  1.00  0.00     0.049 H 
ATOM      6  H   UNL A   1      39.727  30.353  28.754  1.00  0.00     0.049 H 
BRANCH   4   7
ATOM      7  N   UNL A   1      38.427  29.019  29.646  1.00  0.00    -0.352 N 
ATOM      8  C   UNL A   1      39.035  27.836  29.975  1.00  0.00     0.251 C 
ATOM      9  O   UNL A   1      38.528  27.169  30.877  1.00  0.00    -0.269 OA
ATOM     10  H   UNL A   1      37.642  29.230  30.201  1.00  0.00     0.163 HD
BRANCH   8  11
ATOM     11  C   UNL A   1      40.300  27.368  29.347  1.00  0.00     0.039 A 
ATOM     12  C   UNL A   1      42.576  26.285  28.071  1.00  0.00     0.060 A 
ATOM     13  C   UNL A   1      41.308  26.161  27.497  1.00  0.00    -0.036 A 
ATOM     14  C   UNL A   1      42.701  27.015  29.253  1.00  0.00    -0.036 A 
ATOM     15  C   UNL A   1      40.179  26.678  28.134  1.00  0.00    -0.047 A 
ATOM     16  H   UNL A   1      41.205  25.679  26.590  1.00  0.00     0.065 H 
ATOM     17  C   UNL A   1      41.579  27.589  29.865  1.00  0.00    -0.047 A 
ATOM     18  H   UNL A   1      43.632  27.134  29.684  1.00  0.00     0.065 H 
ATOM     19  H   UNL A   1      39.248  26.551  27.709  1.00  0.00     0.063 H 
ATOM     20  H   UNL A   1      41.698  28.178  30.703  1.00  0.00     0.063 H 
BRANCH  12  21
ATOM     21  N   UNL A   1      43.673  25.716  27.450  1.00  0.00    -0.257 N 
ATOM     22  C   UNL A   1      44.317  24.473  27.868  1.00  0.00     0.083 C 
ATOM     23  C   UNL A   1      45.565  24.428  26.974  1.00  0.00     0.019 C 
ATOM     24  H   UNL A   1      44.547  24.442  28.912  1.00  0.00     0.061 H 
ATOM     25  C   UNL A   1      45.401  25.724  26.229  1.00  0.00     0.071 C 
ATOM     26  H   UNL A   1      45.550  23.586  26.313  1.00  0.00     0.036 H 
ATOM     27  H   UNL A   1      46.491  24.325  27.500  1.00  0.00     0.036 H 
ATOM     28  N   UNL A   1      44.357  26.430  26.525  1.00  0.00    -0.176 NA
BRANCH  22  29
ATOM     29  C   UNL A   1      43.414  23.267  27.660  1.00  0.00    -0.019 A 
ATOM     30  C   UNL A   1      41.745  21.031  27.243  1.00  0.00     0.160 A 
ATOM     31  C   UNL A   1      41.536  21.886  28.335  1.00  0.00    -0.016 A 
ATOM     32  C   UNL A   1      42.775  21.295  26.336  1.00  0.00     0.161 A 
ATOM     33  C   UNL A   1      42.367  22.991  28.547  1.00  0.00    -0.053 A 
ATOM     34  H   UNL A   1      40.759  21.698  28.989  1.00  0.00     0.066 H 
ATOM     35  C   UNL A   1      43.597  22.408  26.560  1.00  0.00    -0.011 A 
ATOM     36  H   UNL A   1      42.208  23.605  29.361  1.00  0.00     0.063 H 
ATOM     37  H   UNL A   1      44.363  22.605  25.897  1.00  0.00     0.067 H 
BRANCH  30  38
ATOM     38  O   UNL A   1      40.856  20.010  27.043  1.00  0.00    -0.493 OA
BRANCH  38  39
ATOM     39  C   UNL A   1      39.821  20.379  26.129  1.00  0.00     0.078 C 
ATOM     40  H   UNL A   1      38.964  20.713  26.676  1.00  0.00     0.067 H 
ATOM     41  H   UNL A   1      39.555  19.531  25.532  1.00  0.00     0.067 H 
ATOM     42  H   UNL A   1      40.170  21.166  25.495  1.00  0.00     0.067 H 
ENDBRANCH  38  39
ENDBRANCH  30  38
BRANCH  32  43
ATOM     43  O   UNL A   1      43.116  20.614  25.200  1.00  0.00    -0.493 OA
BRANCH  43  44
ATOM     44  C   UNL A   1      43.675  19.317  25.325  1.00  0.00     0.078 C 
ATOM     45  H   UNL A   1      42.963  18.589  25.000  1.00  0.00     0.067 H 
ATOM     46  H   UNL A   1      43.929  19.135  26.349  1.00  0.00     0.067 H 
ATOM     47  H   UNL A   1      44.556  19.250  24.722  1.00  0.00     0.067 H 
ENDBRANCH  43  44
ENDBRANCH  32  43
ENDBRANCH  22  29
BRANCH  25  48
ATOM     48  C   UNL A   1      46.403  26.177  25.261  1.00  0.00    -0.002 A 
ATOM     49  C   UNL A   1      46.290  27.468  24.739  1.00  0.00    -0.052 A 
ATOM     50  C   UNL A   1      47.417  25.313  24.841  1.00  0.00    -0.052 A 
ATOM     51  C   UNL A   1      47.216  27.915  23.799  1.00  0.00    -0.043 A 
ATOM     52  H   UNL A   1      45.525  28.088  25.049  1.00  0.00     0.063 H 
ATOM     53  C   UNL A   1      48.330  25.749  23.880  1.00  0.00    -0.043 A 
ATOM     54  H   UNL A   1      47.491  24.364  25.238  1.00  0.00     0.063 H 
ATOM     55  C   UNL A   1      48.224  27.046  23.364  1.00  0.00     0.067 A 
ATOM     56  H   UNL A   1      47.161  28.877  23.428  1.00  0.00     0.064 H 
ATOM     57  H   UNL A   1      49.080  25.121  23.553  1.00  0.00     0.064 H 
BRANCH  55  58
ATOM     58  S   UNL A   1      49.390  27.619  22.151  1.00  0.00     0.175 S 
ATOM     59  O   UNL A   1      49.678  26.492  21.286  1.00  0.00    -0.224 OA
ATOM     60  O   UNL A   1      48.885  28.868  21.611  1.00  0.00    -0.224 OA
BRANCH  58  61
ATOM     61  C   UNL A   1      50.847  27.994  23.092  1.00  0.00     0.043 C 
ATOM     62  H   UNL A   1      50.712  28.924  23.604  1.00  0.00     0.040 H 
ATOM     63  H   UNL A   1      51.688  28.069  22.433  1.00  0.00     0.040 H 
ATOM     64  H   UNL A   1      51.022  27.216  23.805  1.00  0.00     0.040 H 
ENDBRANCH  58  61
ENDBRANCH  55  58
ENDBRANCH  25  48
ENDBRANCH  12  21
ENDBRANCH   8  11
ENDBRANCH   4   7
ENDBRANCH   1   4
BRANCH   1  65
ATOM     65  C   UNL A   1      38.366  32.338  29.657  1.00  0.00    -0.052 C 
ATOM     66  H   UNL A   1      39.230  32.716  29.151  1.00  0.00     0.027 H 
ATOM     67  H   UNL A   1      38.593  31.910  30.612  1.00  0.00     0.027 H 
BRANCH  65  68
ATOM     68  C   UNL A   1      37.415  33.512  29.923  1.00  0.00    -0.052 C 
ATOM     69  H   UNL A   1      36.677  33.523  29.149  1.00  0.00     0.027 H 
ATOM     70  H   UNL A   1      38.023  34.392  29.941  1.00  0.00     0.027 H 
BRANCH  68  71
ATOM     71  C   UNL A   1      36.691  33.463  31.270  1.00  0.00    -0.036 C 
ATOM     72  H   UNL A   1      36.536  32.437  31.531  1.00  0.00     0.028 H 
ATOM     73  H   UNL A   1      35.776  34.003  31.147  1.00  0.00     0.028 H 
BRANCH  71  74
ATOM     74  C   UNL A   1      37.445  34.137  32.413  1.00  0.00     0.018 C 
ATOM     75  H   UNL A   1      37.216  35.183  32.409  1.00  0.00     0.049 H 
ATOM     76  H   UNL A   1      38.492  33.974  32.264  1.00  0.00     0.049 H 
BRANCH  74  77
ATOM     77  N   UNL A   1      37.077  33.580  33.704  1.00  0.00    -0.352 N 
ATOM     78  C   UNL A   1      37.610  32.503  34.367  1.00  0.00     0.251 C 
ATOM     79  H   UNL A   1      36.340  34.039  34.167  1.00  0.00     0.163 HD
ATOM     80  O   UNL A   1      37.036  32.030  35.342  1.00  0.00    -0.269 OA
BRANCH  78  81
ATOM     81  C   UNL A   1      38.876  31.905  33.898  1.00  0.00     0.039 A 
ATOM     82  C   UNL A   1      38.827  30.852  32.980  1.00  0.00    -0.049 A 
ATOM     83  C   UNL A   1      40.106  32.365  34.379  1.00  0.00    -0.049 A 
ATOM     84  C   UNL A   1      40.016  30.294  32.505  1.00  0.00    -0.053 A 
ATOM     85  H   UNL A   1      37.918  30.489  32.656  1.00  0.00     0.063 H 
ATOM     86  C   UNL A   1      41.290  31.852  33.856  1.00  0.00    -0.053 A 
ATOM     87  H   UNL A   1      40.136  33.083  35.119  1.00  0.00     0.063 H 
ATOM     88  C   UNL A   1      41.256  30.808  32.918  1.00  0.00    -0.014 A 
ATOM     89  H   UNL A   1      39.983  29.501  31.846  1.00  0.00     0.063 H 
ATOM     90  H   UNL A   1      42.195  32.241  34.160  1.00  0.00     0.063 H 
BRANCH  88  91
ATOM     91  C   UNL A   1      42.530  30.263  32.386  1.00  0.00     0.031 A 
ATOM     92  C   UNL A   1      43.171  30.887  31.178  1.00  0.00     0.074 A 
ATOM     93  C   UNL A   1      43.070  29.167  32.952  1.00  0.00     0.049 A 
ATOM     94  N   UNL A   1      44.237  30.508  30.520  1.00  0.00    -0.248 NA
ATOM     95  C   UNL A   1      42.511  32.078  30.621  1.00  0.00    -0.034 C 
ATOM     96  C   UNL A   1      42.516  28.446  34.099  1.00  0.00    -0.036 A 
ATOM     97  N   UNL A   1      44.201  28.459  32.630  1.00  0.00    -0.354 N 
ATOM     98  C   UNL A   1      44.366  31.402  29.464  1.00  0.00     0.074 A 
ATOM     99  C   UNL A   1      43.244  32.313  29.541  1.00  0.00    -0.034 C 
ATOM    100  H   UNL A   1      41.693  32.596  30.977  1.00  0.00     0.065 H 
ATOM    101  C   UNL A   1      43.316  27.409  34.394  1.00  0.00    -0.036 A 
ATOM    102  H   UNL A   1      41.649  28.696  34.600  1.00  0.00     0.065 H 
ATOM    103  C   UNL A   1      44.418  27.370  33.438  1.00  0.00     0.049 A 
ATOM    104  H   UNL A   1      44.800  28.709  31.890  1.00  0.00     0.167 HD
ATOM    105  C   UNL A   1      45.343  31.470  28.530  1.00  0.00     0.037 A 
ATOM    106  H   UNL A   1      43.041  33.050  28.847  1.00  0.00     0.065 H 
ATOM    107  H   UNL A   1      43.173  26.746  35.173  1.00  0.00     0.065 H 
ATOM    108  C   UNL A   1      45.391  26.441  33.405  1.00  0.00     0.037 A 
ATOM    109  C   UNL A   1      46.475  30.582  28.477  1.00  0.00     0.049 A 
ATOM    110  C   UNL A   1      46.469  26.544  32.359  1.00  0.00     0.074 A 
ATOM    111  C   UNL A   1      47.551  30.606  27.607  1.00  0.00    -0.036 A 
ATOM    112  N   UNL A   1      46.675  29.508  29.330  1.00  0.00    -0.354 N 
ATOM    113  N   UNL A   1      46.615  27.433  31.407  1.00  0.00    -0.248 NA
ATOM    114  C   UNL A   1      47.520  25.517  32.388  1.00  0.00    -0.034 C 
ATOM    115  C   UNL A   1      48.382  29.522  27.908  1.00  0.00    -0.036 A 
ATOM    116  H   UNL A   1      47.712  31.304  26.865  1.00  0.00     0.065 H 
ATOM    117  C   UNL A   1      47.848  28.851  28.996  1.00  0.00     0.049 A 
ATOM    118  H   UNL A   1      46.072  29.249  30.065  1.00  0.00     0.167 HD
ATOM    119  C   UNL A   1      47.787  27.093  30.744  1.00  0.00     0.074 A 
ATOM    120  C   UNL A   1      48.319  25.923  31.411  1.00  0.00    -0.034 C 
ATOM    121  H   UNL A   1      47.611  24.696  33.006  1.00  0.00     0.065 H 
ATOM    122  H   UNL A   1      49.246  29.266  27.405  1.00  0.00     0.065 H 
ATOM    123  C   UNL A   1      48.370  27.695  29.679  1.00  0.00     0.037 A 
ATOM    124  H   UNL A   1      49.208  25.463  31.159  1.00  0.00     0.065 H 
BRANCH 105 125
ATOM    125  C   UNL A   1      45.240  32.546  27.489  1.00  0.00     0.064 A 
ATOM    126  C   UNL A   1      45.993  33.726  27.575  1.00  0.00     0.173 A 
ATOM    127  C   UNL A   1      44.415  32.375  26.368  1.00  0.00     0.173 A 
ATOM    128  F   UNL A   1      46.789  33.944  28.633  1.00  0.00    -0.203 F 
ATOM    129  C   UNL A   1      45.907  34.706  26.589  1.00  0.00     0.198 A 
ATOM    130  C   UNL A   1      44.352  33.344  25.368  1.00  0.00     0.198 A 
ATOM    131  F   UNL A   1      43.677  31.263  26.233  1.00  0.00    -0.203 F 
ATOM    132  F   UNL A   1      46.603  35.844  26.714  1.00  0.00    -0.200 F 
ATOM    133  C   UNL A   1      45.093  34.510  25.483  1.00  0.00     0.200 A 
ATOM    134  F   UNL A   1      43.576  33.148  24.294  1.00  0.00    -0.200 F 
ATOM    135  F   UNL A   1      45.019  35.449  24.530  1.00  0.00    -0.200 F 
ENDBRANCH 105 125
BRANCH 108 136
ATOM    136  C   UNL A   1      45.407  25.343  34.406  1.00  0.00     0.064 A 
ATOM    137  C   UNL A   1      44.795  24.112  34.133  1.00  0.00     0.173 A 
ATOM    138  C   UNL A   1      46.023  25.502  35.655  1.00  0.00     0.173 A 
ATOM    139  F   UNL A   1      44.175  23.919  32.959  1.00  0.00    -0.203 F 
ATOM    140  C   UNL A   1      44.776  23.091  35.080  1.00  0.00     0.198 A 
ATOM    141  C   UNL A   1      46.029  24.471  36.592  1.00  0.00     0.198 A 
ATOM    142  F   UNL A   1      46.628  26.659  35.964  1.00  0.00    -0.203 F 
ATOM    143  F   UNL A   1      44.141  21.942  34.812  1.00  0.00    -0.200 F 
ATOM    144  C   UNL A   1      45.398  23.269  36.307  1.00  0.00     0.200 A 
ATOM    145  F   UNL A   1      46.643  24.643  37.771  1.00  0.00    -0.200 F 
ATOM    146  F   UNL A   1      45.381  22.287  37.219  1.00  0.00    -0.200 F 
ENDBRANCH 108 136
BRANCH 123 147
ATOM    147  C   UNL A   1      49.668  27.123  29.191  1.00  0.00     0.064 A 
ATOM    148  C   UNL A   1      49.712  26.164  28.169  1.00  0.00     0.173 A 
ATOM    149  C   UNL A   1      50.885  27.572  29.726  1.00  0.00     0.173 A 
ATOM    150  F   UNL A   1      48.574  25.692  27.636  1.00  0.00    -0.203 F 
ATOM    151  C   UNL A   1      50.927  25.657  27.717  1.00  0.00     0.198 A 
ATOM    152  C   UNL A   1      52.099  27.084  29.251  1.00  0.00     0.198 A 
ATOM    153  F   UNL A   1      50.896  28.493  30.701  1.00  0.00    -0.203 F 
ATOM    154  F   UNL A   1      50.944  24.708  26.771  1.00  0.00    -0.200 F 
ATOM    155  C   UNL A   1      52.119  26.123  28.252  1.00  0.00     0.200 A 
ATOM    156  F   UNL A   1      53.250  27.544  29.761  1.00  0.00    -0.200 F 
ATOM    157  F   UNL A   1      53.288  25.640  27.810  1.00  0.00    -0.200 F 
ENDBRANCH 123 147
ENDBRANCH  88  91
ENDBRANCH  78  81
ENDBRANCH  74  77
ENDBRANCH  71  74
ENDBRANCH  68  71
ENDBRANCH  65  68
ENDBRANCH   1  65
TORSDOF 22
ENDMDL
MODEL 4
REMARK VINA RESULT:      -9.4      0.573      6.875
REMARK SMILES COc1ccc([C@H]2CC(c3ccc(S(C)(=O)=O)cc3)=NN2c2ccc(C(=O)NCCCCCCNC(=O)c3ccc(-c4c5nc(c(-c6c(F)c(F)c(F)c(F)c6F)c6ccc([nH]6)c(-c6c(F)c(F)c(F)c(F)c6F)c6nc(c(-c7c(F)c(F)c(F)c(F)c7F)c7ccc4[nH]7)C=C6)C=C5)cc3)cc2)cc1OC
REMARK SMILES IDX 30 1 29 4 28 7 26 8 27 9 25 11 22 12 23 13 102 14 24 15
REMARK SMILES IDX 101 17 21 21 7 22 8 23 9 25 20 28 6 29 3 30 4 31 104 32 5 33
REMARK SMILES IDX 103 35 2 38 1 39 105 43 106 44 10 48 11 49 19 50 12 51 18 53
REMARK SMILES IDX 13 55 14 58 16 59 17 60 15 61 31 65 32 68 33 71 34 74 35 77
REMARK SMILES IDX 36 78 37 80 38 81 39 82 100 83 40 84 99 86 41 88 42 91 43 92
REMARK SMILES IDX 93 93 44 94 98 95 92 96 94 97 45 98 97 99 91 101 90 103
REMARK SMILES IDX 46 105 78 108 58 109 77 110 59 111 62 112 76 113 95 114
REMARK SMILES IDX 60 115 61 117 75 119 96 120 63 123 47 125 48 126 56 127
REMARK SMILES IDX 49 128 50 129 54 130 57 131 51 132 52 133 55 134 53 135
REMARK SMILES IDX 79 136 80 137 88 138 81 139 82 140 86 141 89 142 83 143
REMARK SMILES IDX 84 144 87 145 85 146 64 147 65 148 73 149 66 150 67 151
REMARK SMILES IDX 71 152 74 153 68 154 69 155 72 156 70 157
REMARK H PARENT 30 2 30 3 29 5 29 6 28 10 23 16 102 18 24 19 101 20 7 24 8 26
REMARK H PARENT 8 27 4 34 5 36 103 37 1 40 1 41 1 42 106 45 106 46 106 47
REMARK H PARENT 11 52 19 54 12 56 18 57 15 62 15 63 15 64 31 66 31 67 32 69
REMARK H PARENT 32 70 33 72 33 73 34 75 34 76 35 79 39 85 100 87 40 89 99 90
REMARK H PARENT 98 100 92 102 94 104 97 106 91 107 59 116 62 118 95 121 60 122
REMARK H PARENT 96 124
REMARK Flexibility Score: inf
ROOT
ATOM      1  C   UNL A   1      38.201  33.325  30.127  1.00  0.00    -0.036 C 
ATOM      2  H   UNL A   1      37.331  33.909  30.345  1.00  0.00     0.028 H 
ATOM      3  H   UNL A   1      38.909  33.869  29.540  1.00  0.00     0.028 H 
ENDROOT
BRANCH   1   4
ATOM      4  C   UNL A   1      37.774  32.101  29.313  1.00  0.00     0.018 C 
ATOM      5  H   UNL A   1      37.128  32.410  28.518  1.00  0.00     0.049 H 
ATOM      6  H   UNL A   1      38.641  31.626  28.906  1.00  0.00     0.049 H 
BRANCH   4   7
ATOM      7  N   UNL A   1      37.072  31.166  30.168  1.00  0.00    -0.352 N 
ATOM      8  C   UNL A   1      37.141  29.805  30.302  1.00  0.00     0.251 C 
ATOM      9  O   UNL A   1      36.378  29.274  31.109  1.00  0.00    -0.269 OA
ATOM     10  H   UNL A   1      36.418  31.592  30.769  1.00  0.00     0.163 HD
BRANCH   8  11
ATOM     11  C   UNL A   1      38.132  28.964  29.576  1.00  0.00     0.039 A 
ATOM     12  C   UNL A   1      40.147  27.368  28.404  1.00  0.00     0.060 A 
ATOM     13  C   UNL A   1      39.799  27.207  29.749  1.00  0.00    -0.036 A 
ATOM     14  C   UNL A   1      39.430  28.287  27.638  1.00  0.00    -0.036 A 
ATOM     15  C   UNL A   1      38.817  28.008  30.335  1.00  0.00    -0.047 A 
ATOM     16  H   UNL A   1      40.274  26.487  30.315  1.00  0.00     0.065 H 
ATOM     17  C   UNL A   1      38.401  29.049  28.208  1.00  0.00    -0.047 A 
ATOM     18  H   UNL A   1      39.659  28.407  26.639  1.00  0.00     0.065 H 
ATOM     19  H   UNL A   1      38.594  27.893  31.335  1.00  0.00     0.063 H 
ATOM     20  H   UNL A   1      37.840  29.677  27.613  1.00  0.00     0.063 H 
BRANCH  12  21
ATOM     21  N   UNL A   1      41.161  26.603  27.858  1.00  0.00    -0.257 N 
ATOM     22  C   UNL A   1      41.324  25.165  28.065  1.00  0.00     0.083 C 
ATOM     23  C   UNL A   1      42.686  24.889  27.410  1.00  0.00     0.019 C 
ATOM     24  H   UNL A   1      41.286  24.875  29.093  1.00  0.00     0.061 H 
ATOM     25  C   UNL A   1      43.061  26.281  26.986  1.00  0.00     0.071 C 
ATOM     26  H   UNL A   1      42.597  24.229  26.572  1.00  0.00     0.036 H 
ATOM     27  H   UNL A   1      43.399  24.404  28.043  1.00  0.00     0.036 H 
ATOM     28  N   UNL A   1      42.210  27.216  27.263  1.00  0.00    -0.176 NA
BRANCH  22  29
ATOM     29  C   UNL A   1      40.201  24.368  27.420  1.00  0.00    -0.019 A 
ATOM     30  C   UNL A   1      38.138  22.869  26.213  1.00  0.00     0.160 A 
ATOM     31  C   UNL A   1      37.943  24.218  26.542  1.00  0.00    -0.016 A 
ATOM     32  C   UNL A   1      39.371  22.260  26.463  1.00  0.00     0.161 A 
ATOM     33  C   UNL A   1      38.963  24.960  27.148  1.00  0.00    -0.053 A 
ATOM     34  H   UNL A   1      37.038  24.668  26.336  1.00  0.00     0.066 H 
ATOM     35  C   UNL A   1      40.384  23.018  27.066  1.00  0.00    -0.011 A 
ATOM     36  H   UNL A   1      38.801  25.949  27.395  1.00  0.00     0.063 H 
ATOM     37  H   UNL A   1      41.294  22.571  27.258  1.00  0.00     0.067 H 
BRANCH  30  38
ATOM     38  O   UNL A   1      37.133  22.214  25.555  1.00  0.00    -0.493 OA
BRANCH  38  39
ATOM     39  C   UNL A   1      37.059  22.598  24.181  1.00  0.00     0.078 C 
ATOM     40  H   UNL A   1      36.137  23.112  24.003  1.00  0.00     0.067 H 
ATOM     41  H   UNL A   1      37.106  21.725  23.564  1.00  0.00     0.067 H 
ATOM     42  H   UNL A   1      37.879  23.245  23.947  1.00  0.00     0.067 H 
ENDBRANCH  38  39
ENDBRANCH  30  38
BRANCH  32  43
ATOM     43  O   UNL A   1      39.771  20.982  26.184  1.00  0.00    -0.493 OA
BRANCH  43  44
ATOM     44  C   UNL A   1      41.076  20.578  26.562  1.00  0.00     0.078 C 
ATOM     45  H   UNL A   1      41.011  19.806  27.300  1.00  0.00     0.067 H 
ATOM     46  H   UNL A   1      41.605  21.415  26.967  1.00  0.00     0.067 H 
ATOM     47  H   UNL A   1      41.597  20.209  25.703  1.00  0.00     0.067 H 
ENDBRANCH  43  44
ENDBRANCH  32  43
ENDBRANCH  22  29
BRANCH  25  48
ATOM     48  C   UNL A   1      44.346  26.559  26.339  1.00  0.00    -0.002 A 
ATOM     49  C   UNL A   1      44.838  27.867  26.369  1.00  0.00    -0.052 A 
ATOM     50  C   UNL A   1      45.034  25.542  25.673  1.00  0.00    -0.052 A 
ATOM     51  C   UNL A   1      46.047  28.163  25.742  1.00  0.00    -0.043 A 
ATOM     52  H   UNL A   1      44.310  28.609  26.853  1.00  0.00     0.063 H 
ATOM     53  C   UNL A   1      46.231  25.842  25.021  1.00  0.00    -0.043 A 
ATOM     54  H   UNL A   1      44.661  24.581  25.663  1.00  0.00     0.063 H 
ATOM     55  C   UNL A   1      46.730  27.150  25.058  1.00  0.00     0.067 A 
ATOM     56  H   UNL A   1      46.436  29.118  25.781  1.00  0.00     0.064 H 
ATOM     57  H   UNL A   1      46.747  25.104  24.516  1.00  0.00     0.064 H 
BRANCH  55  58
ATOM     58  S   UNL A   1      48.262  27.540  24.246  1.00  0.00     0.175 S 
ATOM     59  O   UNL A   1      47.916  28.156  22.979  1.00  0.00    -0.224 OA
ATOM     60  O   UNL A   1      49.105  28.228  25.207  1.00  0.00    -0.224 OA
BRANCH  58  61
ATOM     61  C   UNL A   1      48.999  25.959  23.922  1.00  0.00     0.043 C 
ATOM     62  H   UNL A   1      48.741  25.278  24.706  1.00  0.00     0.040 H 
ATOM     63  H   UNL A   1      50.063  26.064  23.876  1.00  0.00     0.040 H 
ATOM     64  H   UNL A   1      48.637  25.581  22.988  1.00  0.00     0.040 H 
ENDBRANCH  58  61
ENDBRANCH  55  58
ENDBRANCH  25  48
ENDBRANCH  12  21
ENDBRANCH   8  11
ENDBRANCH   4   7
ENDBRANCH   1   4
BRANCH   1  65
ATOM     65  C   UNL A   1      38.885  32.955  31.450  1.00  0.00    -0.052 C 
ATOM     66  H   UNL A   1      39.783  32.418  31.223  1.00  0.00     0.027 H 
ATOM     67  H   UNL A   1      38.178  32.375  32.005  1.00  0.00     0.027 H 
BRANCH  65  68
ATOM     68  C   UNL A   1      39.255  34.152  32.336  1.00  0.00    -0.052 C 
ATOM     69  H   UNL A   1      39.374  35.007  31.705  1.00  0.00     0.027 H 
ATOM     70  H   UNL A   1      40.152  33.877  32.851  1.00  0.00     0.027 H 
BRANCH  68  71
ATOM     71  C   UNL A   1      38.227  34.496  33.416  1.00  0.00    -0.036 C 
ATOM     72  H   UNL A   1      37.774  35.432  33.163  1.00  0.00     0.028 H 
ATOM     73  H   UNL A   1      38.757  34.528  34.345  1.00  0.00     0.028 H 
BRANCH  71  74
ATOM     74  C   UNL A   1      37.120  33.459  33.581  1.00  0.00     0.018 C 
ATOM     75  H   UNL A   1      37.346  32.610  32.968  1.00  0.00     0.049 H 
ATOM     76  H   UNL A   1      36.195  33.908  33.287  1.00  0.00     0.049 H 
BRANCH  74  77
ATOM     77  N   UNL A   1      36.994  33.021  34.962  1.00  0.00    -0.352 N 
ATOM     78  C   UNL A   1      37.712  32.068  35.639  1.00  0.00     0.251 C 
ATOM     79  H   UNL A   1      36.294  33.472  35.486  1.00  0.00     0.163 HD
ATOM     80  O   UNL A   1      37.331  31.664  36.732  1.00  0.00    -0.269 OA
BRANCH  78  81
ATOM     81  C   UNL A   1      38.946  31.517  35.042  1.00  0.00     0.039 A 
ATOM     82  C   UNL A   1      38.841  30.515  34.074  1.00  0.00    -0.049 A 
ATOM     83  C   UNL A   1      40.204  31.972  35.452  1.00  0.00    -0.049 A 
ATOM     84  C   UNL A   1      39.997  30.004  33.479  1.00  0.00    -0.053 A 
ATOM     85  H   UNL A   1      37.914  30.155  33.800  1.00  0.00     0.063 H 
ATOM     86  C   UNL A   1      41.350  31.508  34.813  1.00  0.00    -0.053 A 
ATOM     87  H   UNL A   1      40.282  32.649  36.226  1.00  0.00     0.063 H 
ATOM     88  C   UNL A   1      41.258  30.516  33.824  1.00  0.00    -0.014 A 
ATOM     89  H   UNL A   1      39.923  29.247  32.782  1.00  0.00     0.063 H 
ATOM     90  H   UNL A   1      42.272  31.896  35.068  1.00  0.00     0.063 H 
BRANCH  88  91
ATOM     91  C   UNL A   1      42.494  30.022  33.168  1.00  0.00     0.031 A 
ATOM     92  C   UNL A   1      43.056  30.747  31.978  1.00  0.00     0.074 A 
ATOM     93  C   UNL A   1      43.068  28.885  33.604  1.00  0.00     0.049 A 
ATOM     94  N   UNL A   1      44.078  30.429  31.223  1.00  0.00    -0.248 NA
ATOM     95  C   UNL A   1      42.365  31.978  31.566  1.00  0.00    -0.034 C 
ATOM     96  C   UNL A   1      42.588  28.068  34.719  1.00  0.00    -0.036 A 
ATOM     97  N   UNL A   1      44.175  28.211  33.152  1.00  0.00    -0.354 N 
ATOM     98  C   UNL A   1      44.140  31.409  30.240  1.00  0.00     0.074 A 
ATOM     99  C   UNL A   1      43.027  32.306  30.465  1.00  0.00    -0.034 C 
ATOM    100  H   UNL A   1      41.572  32.462  32.016  1.00  0.00     0.065 H 
ATOM    101  C   UNL A   1      43.403  27.013  34.874  1.00  0.00    -0.036 A 
ATOM    102  H   UNL A   1      41.756  28.272  35.295  1.00  0.00     0.065 H 
ATOM    103  C   UNL A   1      44.441  27.059  33.850  1.00  0.00     0.049 A 
ATOM    104  H   UNL A   1      44.725  28.523  32.397  1.00  0.00     0.167 HD
ATOM    105  C   UNL A   1      45.055  31.559  29.253  1.00  0.00     0.037 A 
ATOM    106  H   UNL A   1      42.780  33.097  29.849  1.00  0.00     0.065 H 
ATOM    107  H   UNL A   1      43.310  26.287  35.603  1.00  0.00     0.065 H 
ATOM    108  C   UNL A   1      45.409  26.139  33.676  1.00  0.00     0.037 A 
ATOM    109  C   UNL A   1      46.179  30.682  29.053  1.00  0.00     0.049 A 
ATOM    110  C   UNL A   1      46.417  26.333  32.575  1.00  0.00     0.074 A 
ATOM    111  C   UNL A   1      47.197  30.784  28.121  1.00  0.00    -0.036 A 
ATOM    112  N   UNL A   1      46.432  29.541  29.799  1.00  0.00    -0.354 N 
ATOM    113  N   UNL A   1      46.503  27.299  31.694  1.00  0.00    -0.248 NA
ATOM    114  C   UNL A   1      47.466  25.312  32.450  1.00  0.00    -0.034 C 
ATOM    115  C   UNL A   1      48.044  29.682  28.276  1.00  0.00    -0.036 A 
ATOM    116  H   UNL A   1      47.311  31.542  27.431  1.00  0.00     0.065 H 
ATOM    117  C   UNL A   1      47.580  28.919  29.335  1.00  0.00     0.049 A 
ATOM    118  H   UNL A   1      45.878  29.220  30.547  1.00  0.00     0.167 HD
ATOM    119  C   UNL A   1      47.629  27.021  30.930  1.00  0.00     0.074 A 
ATOM    120  C   UNL A   1      48.201  25.801  31.462  1.00  0.00    -0.034 C 
ATOM    121  H   UNL A   1      47.596  24.442  32.990  1.00  0.00     0.065 H 
ATOM    122  H   UNL A   1      48.873  29.472  27.698  1.00  0.00     0.065 H 
ATOM    123  C   UNL A   1      48.143  27.712  29.884  1.00  0.00     0.037 A 
ATOM    124  H   UNL A   1      49.072  25.368  31.115  1.00  0.00     0.065 H 
BRANCH 105 125
ATOM    125  C   UNL A   1      44.886  32.718  28.315  1.00  0.00     0.064 A 
ATOM    126  C   UNL A   1      45.388  33.991  28.623  1.00  0.00     0.173 A 
ATOM    127  C   UNL A   1      44.258  32.543  27.073  1.00  0.00     0.173 A 
ATOM    128  F   UNL A   1      45.986  34.214  29.802  1.00  0.00    -0.203 F 
ATOM    129  C   UNL A   1      45.247  35.052  27.732  1.00  0.00     0.198 A 
ATOM    130  C   UNL A   1      44.144  33.599  26.171  1.00  0.00     0.198 A 
ATOM    131  F   UNL A   1      43.765  31.345  26.726  1.00  0.00    -0.203 F 
ATOM    132  F   UNL A   1      45.696  36.269  28.065  1.00  0.00    -0.200 F 
ATOM    133  C   UNL A   1      44.633  34.853  26.504  1.00  0.00     0.200 A 
ATOM    134  F   UNL A   1      43.563  33.402  24.981  1.00  0.00    -0.200 F 
ATOM    135  F   UNL A   1      44.507  35.872  25.644  1.00  0.00    -0.200 F 
ENDBRANCH 105 125
BRANCH 108 136
ATOM    136  C   UNL A   1      45.487  24.961  34.579  1.00  0.00     0.064 A 
ATOM    137  C   UNL A   1      44.886  23.745  34.227  1.00  0.00     0.173 A 
ATOM    138  C   UNL A   1      46.154  25.028  35.810  1.00  0.00     0.173 A 
ATOM    139  F   UNL A   1      44.219  23.639  33.068  1.00  0.00    -0.203 F 
ATOM    140  C   UNL A   1      44.926  22.647  35.084  1.00  0.00     0.198 A 
ATOM    141  C   UNL A   1      46.219  23.921  36.655  1.00  0.00     0.198 A 
ATOM    142  F   UNL A   1      46.751  26.167  36.191  1.00  0.00    -0.203 F 
ATOM    143  F   UNL A   1      44.300  21.512  34.746  1.00  0.00    -0.200 F 
ATOM    144  C   UNL A   1      45.597  22.735  36.295  1.00  0.00     0.200 A 
ATOM    145  F   UNL A   1      46.880  24.006  37.817  1.00  0.00    -0.200 F 
ATOM    146  F   UNL A   1      45.637  21.679  37.120  1.00  0.00    -0.200 F 
ENDBRANCH 108 136
BRANCH 123 147
ATOM    147  C   UNL A   1      49.406  27.188  29.268  1.00  0.00     0.064 A 
ATOM    148  C   UNL A   1      50.669  27.564  29.748  1.00  0.00     0.173 A 
ATOM    149  C   UNL A   1      49.351  26.268  28.211  1.00  0.00     0.173 A 
ATOM    150  F   UNL A   1      50.775  28.453  30.747  1.00  0.00    -0.203 F 
ATOM    151  C   UNL A   1      51.831  27.055  29.175  1.00  0.00     0.198 A 
ATOM    152  C   UNL A   1      50.514  25.739  27.659  1.00  0.00     0.198 A 
ATOM    153  F   UNL A   1      48.166  25.873  27.720  1.00  0.00    -0.203 F 
ATOM    154  F   UNL A   1      53.029  27.462  29.619  1.00  0.00    -0.200 F 
ATOM    155  C   UNL A   1      51.753  26.138  28.138  1.00  0.00     0.200 A 
ATOM    156  F   UNL A   1      50.436  24.843  26.666  1.00  0.00    -0.200 F 
ATOM    157  F   UNL A   1      52.873  25.643  27.593  1.00  0.00    -0.200 F 
ENDBRANCH 123 147
ENDBRANCH  88  91
ENDBRANCH  78  81
ENDBRANCH  74  77
ENDBRANCH  71  74
ENDBRANCH  68  71
ENDBRANCH  65  68
ENDBRANCH   1  65
TORSDOF 22
ENDMDL
MODEL 5
REMARK VINA RESULT:      -9.3      4.184     12.223
REMARK SMILES COc1ccc([C@H]2CC(c3ccc(S(C)(=O)=O)cc3)=NN2c2ccc(C(=O)NCCCCCCNC(=O)c3ccc(-c4c5nc(c(-c6c(F)c(F)c(F)c(F)c6F)c6ccc([nH]6)c(-c6c(F)c(F)c(F)c(F)c6F)c6nc(c(-c7c(F)c(F)c(F)c(F)c7F)c7ccc4[nH]7)C=C6)C=C5)cc3)cc2)cc1OC
REMARK SMILES IDX 30 1 29 4 28 7 26 8 27 9 25 11 22 12 23 13 102 14 24 15
REMARK SMILES IDX 101 17 21 21 7 22 8 23 9 25 20 28 6 29 3 30 4 31 104 32 5 33
REMARK SMILES IDX 103 35 2 38 1 39 105 43 106 44 10 48 11 49 19 50 12 51 18 53
REMARK SMILES IDX 13 55 14 58 16 59 17 60 15 61 31 65 32 68 33 71 34 74 35 77
REMARK SMILES IDX 36 78 37 80 38 81 39 82 100 83 40 84 99 86 41 88 42 91 43 92
REMARK SMILES IDX 93 93 44 94 98 95 92 96 94 97 45 98 97 99 91 101 90 103
REMARK SMILES IDX 46 105 78 108 58 109 77 110 59 111 62 112 76 113 95 114
REMARK SMILES IDX 60 115 61 117 75 119 96 120 63 123 47 125 48 126 56 127
REMARK SMILES IDX 49 128 50 129 54 130 57 131 51 132 52 133 55 134 53 135
REMARK SMILES IDX 79 136 80 137 88 138 81 139 82 140 86 141 89 142 83 143
REMARK SMILES IDX 84 144 87 145 85 146 64 147 65 148 73 149 66 150 67 151
REMARK SMILES IDX 71 152 74 153 68 154 69 155 72 156 70 157
REMARK H PARENT 30 2 30 3 29 5 29 6 28 10 23 16 102 18 24 19 101 20 7 24 8 26
REMARK H PARENT 8 27 4 34 5 36 103 37 1 40 1 41 1 42 106 45 106 46 106 47
REMARK H PARENT 11 52 19 54 12 56 18 57 15 62 15 63 15 64 31 66 31 67 32 69
REMARK H PARENT 32 70 33 72 33 73 34 75 34 76 35 79 39 85 100 87 40 89 99 90
REMARK H PARENT 98 100 92 102 94 104 97 106 91 107 59 116 62 118 95 121 60 122
REMARK H PARENT 96 124
REMARK Flexibility Score: inf
ROOT
ATOM      1  C   UNL A   1      41.729  25.871  28.828  1.00  0.00    -0.036 C 
ATOM      2  H   UNL A   1      41.889  25.548  29.835  1.00  0.00     0.028 H 
ATOM      3  H   UNL A   1      42.427  26.628  28.537  1.00  0.00     0.028 H 
ENDROOT
BRANCH   1   4
ATOM      4  C   UNL A   1      40.327  26.478  28.728  1.00  0.00     0.018 C 
ATOM      5  H   UNL A   1      39.610  25.696  28.599  1.00  0.00     0.049 H 
ATOM      6  H   UNL A   1      40.111  27.021  29.623  1.00  0.00     0.049 H 
BRANCH   4   7
ATOM      7  N   UNL A   1      40.266  27.379  27.595  1.00  0.00    -0.352 N 
ATOM      8  C   UNL A   1      39.894  28.692  27.478  1.00  0.00     0.251 C 
ATOM      9  O   UNL A   1      39.915  29.191  26.352  1.00  0.00    -0.269 OA
ATOM     10  H   UNL A   1      40.546  26.968  26.745  1.00  0.00     0.163 HD
BRANCH   8  11
ATOM     11  C   UNL A   1      39.539  29.545  28.645  1.00  0.00     0.039 A 
ATOM     12  C   UNL A   1      38.650  31.204  30.752  1.00  0.00     0.060 A 
ATOM     13  C   UNL A   1      37.762  30.350  30.090  1.00  0.00    -0.036 A 
ATOM     14  C   UNL A   1      39.998  31.167  30.394  1.00  0.00    -0.036 A 
ATOM     15  C   UNL A   1      38.195  29.544  29.036  1.00  0.00    -0.047 A 
ATOM     16  H   UNL A   1      36.774  30.317  30.385  1.00  0.00     0.065 H 
ATOM     17  C   UNL A   1      40.448  30.314  29.378  1.00  0.00    -0.047 A 
ATOM     18  H   UNL A   1      40.673  31.776  30.883  1.00  0.00     0.065 H 
ATOM     19  H   UNL A   1      37.519  28.942  28.542  1.00  0.00     0.063 H 
ATOM     20  H   UNL A   1      41.456  30.253  29.169  1.00  0.00     0.063 H 
BRANCH  12  21
ATOM     21  N   UNL A   1      38.189  32.035  31.756  1.00  0.00    -0.257 N 
ATOM     22  C   UNL A   1      37.922  33.463  31.600  1.00  0.00     0.083 C 
ATOM     23  C   UNL A   1      37.633  33.906  33.042  1.00  0.00     0.019 C 
ATOM     24  H   UNL A   1      38.729  34.001  31.149  1.00  0.00     0.061 H 
ATOM     25  C   UNL A   1      37.844  32.605  33.764  1.00  0.00     0.071 C 
ATOM     26  H   UNL A   1      36.631  34.264  33.155  1.00  0.00     0.036 H 
ATOM     27  H   UNL A   1      38.236  34.718  33.393  1.00  0.00     0.036 H 
ATOM     28  N   UNL A   1      38.171  31.587  33.034  1.00  0.00    -0.176 NA
BRANCH  22  29
ATOM     29  C   UNL A   1      36.748  33.724  30.670  1.00  0.00    -0.019 A 
ATOM     30  C   UNL A   1      34.550  34.202  28.967  1.00  0.00     0.160 A 
ATOM     31  C   UNL A   1      35.788  33.804  28.442  1.00  0.00    -0.016 A 
ATOM     32  C   UNL A   1      34.389  34.343  30.348  1.00  0.00     0.161 A 
ATOM     33  C   UNL A   1      36.881  33.575  29.285  1.00  0.00    -0.053 A 
ATOM     34  H   UNL A   1      35.894  33.680  27.423  1.00  0.00     0.066 H 
ATOM     35  C   UNL A   1      35.493  34.106  31.179  1.00  0.00    -0.011 A 
ATOM     36  H   UNL A   1      37.789  33.294  28.883  1.00  0.00     0.063 H 
ATOM     37  H   UNL A   1      35.381  34.215  32.199  1.00  0.00     0.067 H 
BRANCH  30  38
ATOM     38  O   UNL A   1      33.497  34.339  28.104  1.00  0.00    -0.493 OA
BRANCH  38  39
ATOM     39  C   UNL A   1      33.035  33.075  27.624  1.00  0.00     0.078 C 
ATOM     40  H   UNL A   1      32.085  33.199  27.148  1.00  0.00     0.067 H 
ATOM     41  H   UNL A   1      32.937  32.397  28.446  1.00  0.00     0.067 H 
ATOM     42  H   UNL A   1      33.738  32.684  26.919  1.00  0.00     0.067 H 
ENDBRANCH  38  39
ENDBRANCH  30  38
BRANCH  32  43
ATOM     43  O   UNL A   1      33.267  34.680  31.053  1.00  0.00    -0.493 OA
BRANCH  43  44
ATOM     44  C   UNL A   1      33.409  35.112  32.396  1.00  0.00     0.078 C 
ATOM     45  H   UNL A   1      34.426  35.389  32.577  1.00  0.00     0.067 H 
ATOM     46  H   UNL A   1      33.134  34.316  33.058  1.00  0.00     0.067 H 
ATOM     47  H   UNL A   1      32.773  35.954  32.569  1.00  0.00     0.067 H 
ENDBRANCH  43  44
ENDBRANCH  32  43
ENDBRANCH  22  29
BRANCH  25  48
ATOM     48  C   UNL A   1      37.732  32.517  35.222  1.00  0.00    -0.002 A 
ATOM     49  C   UNL A   1      38.153  31.343  35.854  1.00  0.00    -0.052 A 
ATOM     50  C   UNL A   1      37.175  33.570  35.951  1.00  0.00    -0.052 A 
ATOM     51  C   UNL A   1      38.036  31.225  37.238  1.00  0.00    -0.043 A 
ATOM     52  H   UNL A   1      38.549  30.568  35.299  1.00  0.00     0.063 H 
ATOM     53  C   UNL A   1      37.033  33.444  37.333  1.00  0.00    -0.043 A 
ATOM     54  H   UNL A   1      36.873  34.432  35.472  1.00  0.00     0.063 H 
ATOM     55  C   UNL A   1      37.462  32.272  37.968  1.00  0.00     0.067 A 
ATOM     56  H   UNL A   1      38.370  30.375  37.719  1.00  0.00     0.064 H 
ATOM     57  H   UNL A   1      36.614  34.209  37.885  1.00  0.00     0.064 H 
BRANCH  55  58
ATOM     58  S   UNL A   1      37.302  32.105  39.730  1.00  0.00     0.175 S 
ATOM     59  O   UNL A   1      37.514  30.704  40.037  1.00  0.00    -0.224 OA
ATOM     60  O   UNL A   1      38.116  33.137  40.345  1.00  0.00    -0.224 OA
BRANCH  58  61
ATOM     61  C   UNL A   1      35.602  32.501  40.052  1.00  0.00     0.043 C 
ATOM     62  H   UNL A   1      35.178  31.758  40.694  1.00  0.00     0.040 H 
ATOM     63  H   UNL A   1      35.061  32.527  39.129  1.00  0.00     0.040 H 
ATOM     64  H   UNL A   1      35.542  33.459  40.527  1.00  0.00     0.040 H 
ENDBRANCH  58  61
ENDBRANCH  55  58
ENDBRANCH  25  48
ENDBRANCH  12  21
ENDBRANCH   8  11
ENDBRANCH   4   7
ENDBRANCH   1   4
BRANCH   1  65
ATOM     65  C   UNL A   1      41.932  24.672  27.892  1.00  0.00    -0.052 C 
ATOM     66  H   UNL A   1      42.031  25.042  26.892  1.00  0.00     0.027 H 
ATOM     67  H   UNL A   1      41.079  24.040  28.022  1.00  0.00     0.027 H 
BRANCH  65  68
ATOM     68  C   UNL A   1      43.163  23.814  28.209  1.00  0.00    -0.052 C 
ATOM     69  H   UNL A   1      42.839  22.803  28.335  1.00  0.00     0.027 H 
ATOM     70  H   UNL A   1      43.601  24.232  29.091  1.00  0.00     0.027 H 
BRANCH  68  71
ATOM     71  C   UNL A   1      44.255  23.833  27.136  1.00  0.00    -0.036 C 
ATOM     72  H   UNL A   1      44.550  22.823  26.939  1.00  0.00     0.028 H 
ATOM     73  H   UNL A   1      45.054  24.432  27.522  1.00  0.00     0.028 H 
BRANCH  71  74
ATOM     74  C   UNL A   1      43.829  24.472  25.818  1.00  0.00     0.018 C 
ATOM     75  H   UNL A   1      43.170  25.290  26.027  1.00  0.00     0.049 H 
ATOM     76  H   UNL A   1      43.338  23.726  25.229  1.00  0.00     0.049 H 
BRANCH  74  77
ATOM     77  N   UNL A   1      44.970  24.967  25.066  1.00  0.00    -0.352 N 
ATOM     78  C   UNL A   1      45.568  26.201  25.110  1.00  0.00     0.251 C 
ATOM     79  H   UNL A   1      45.371  24.327  24.435  1.00  0.00     0.163 HD
ATOM     80  O   UNL A   1      46.379  26.529  24.250  1.00  0.00    -0.269 OA
BRANCH  78  81
ATOM     81  C   UNL A   1      45.224  27.146  26.193  1.00  0.00     0.039 A 
ATOM     82  C   UNL A   1      43.935  27.681  26.240  1.00  0.00    -0.049 A 
ATOM     83  C   UNL A   1      46.178  27.519  27.145  1.00  0.00    -0.049 A 
ATOM     84  C   UNL A   1      43.585  28.553  27.273  1.00  0.00    -0.053 A 
ATOM     85  H   UNL A   1      43.245  27.434  25.514  1.00  0.00     0.063 H 
ATOM     86  C   UNL A   1      45.810  28.336  28.210  1.00  0.00    -0.053 A 
ATOM     87  H   UNL A   1      47.152  27.189  27.059  1.00  0.00     0.063 H 
ATOM     88  C   UNL A   1      44.512  28.865  28.281  1.00  0.00    -0.014 A 
ATOM     89  H   UNL A   1      42.641  28.969  27.296  1.00  0.00     0.063 H 
ATOM     90  H   UNL A   1      46.495  28.554  28.950  1.00  0.00     0.063 H 
BRANCH  88  91
ATOM     91  C   UNL A   1      44.144  29.750  29.415  1.00  0.00     0.031 A 
ATOM     92  C   UNL A   1      44.082  31.238  29.220  1.00  0.00     0.074 A 
ATOM     93  C   UNL A   1      43.933  29.215  30.633  1.00  0.00     0.049 A 
ATOM     94  N   UNL A   1      43.857  32.180  30.102  1.00  0.00    -0.248 NA
ATOM     95  C   UNL A   1      44.330  31.738  27.859  1.00  0.00    -0.034 C 
ATOM     96  C   UNL A   1      44.011  27.790  30.956  1.00  0.00    -0.036 A 
ATOM     97  N   UNL A   1      43.623  29.810  31.830  1.00  0.00    -0.354 N 
ATOM     98  C   UNL A   1      43.954  33.379  29.408  1.00  0.00     0.074 A 
ATOM     99  C   UNL A   1      44.303  33.051  28.043  1.00  0.00    -0.034 C 
ATOM    100  H   UNL A   1      44.484  31.206  26.988  1.00  0.00     0.065 H 
ATOM    101  C   UNL A   1      43.740  27.620  32.260  1.00  0.00    -0.036 A 
ATOM    102  H   UNL A   1      44.237  27.036  30.288  1.00  0.00     0.065 H 
ATOM    103  C   UNL A   1      43.505  28.924  32.872  1.00  0.00     0.049 A 
ATOM    104  H   UNL A   1      43.498  30.781  31.932  1.00  0.00     0.167 HD
ATOM    105  C   UNL A   1      43.748  34.637  29.863  1.00  0.00     0.037 A 
ATOM    106  H   UNL A   1      44.505  33.747  27.307  1.00  0.00     0.065 H 
ATOM    107  H   UNL A   1      43.704  26.711  32.750  1.00  0.00     0.065 H 
ATOM    108  C   UNL A   1      43.244  29.140  34.175  1.00  0.00     0.037 A 
ATOM    109  C   UNL A   1      43.369  34.956  31.215  1.00  0.00     0.049 A 
ATOM    110  C   UNL A   1      43.014  30.549  34.653  1.00  0.00     0.074 A 
ATOM    111  C   UNL A   1      43.077  36.194  31.759  1.00  0.00    -0.036 A 
ATOM    112  N   UNL A   1      43.231  34.028  32.235  1.00  0.00    -0.354 N 
ATOM    113  N   UNL A   1      43.043  31.669  33.972  1.00  0.00    -0.248 NA
ATOM    114  C   UNL A   1      42.707  30.722  36.080  1.00  0.00    -0.034 C 
ATOM    115  C   UNL A   1      42.801  36.021  33.119  1.00  0.00    -0.036 A 
ATOM    116  H   UNL A   1      43.064  37.091  31.249  1.00  0.00     0.065 H 
ATOM    117  C   UNL A   1      42.875  34.669  33.411  1.00  0.00     0.049 A 
ATOM    118  H   UNL A   1      43.366  33.057  32.139  1.00  0.00     0.167 HD
ATOM    119  C   UNL A   1      42.730  32.674  34.877  1.00  0.00     0.074 A 
ATOM    120  C   UNL A   1      42.502  32.029  36.154  1.00  0.00    -0.034 C 
ATOM    121  H   UNL A   1      42.664  30.012  36.827  1.00  0.00     0.065 H 
ATOM    122  H   UNL A   1      42.581  36.772  33.791  1.00  0.00     0.065 H 
ATOM    123  C   UNL A   1      42.640  34.010  34.671  1.00  0.00     0.037 A 
ATOM    124  H   UNL A   1      42.214  32.524  37.013  1.00  0.00     0.065 H 
BRANCH 105 125
ATOM    125  C   UNL A   1      43.921  35.768  28.892  1.00  0.00     0.064 A 
ATOM    126  C   UNL A   1      42.843  36.265  28.144  1.00  0.00     0.173 A 
ATOM    127  C   UNL A   1      45.168  36.393  28.740  1.00  0.00     0.173 A 
ATOM    128  F   UNL A   1      41.633  35.695  28.243  1.00  0.00    -0.203 F 
ATOM    129  C   UNL A   1      43.012  37.332  27.265  1.00  0.00     0.198 A 
ATOM    130  C   UNL A   1      45.327  37.478  27.882  1.00  0.00     0.198 A 
ATOM    131  F   UNL A   1      46.231  35.960  29.435  1.00  0.00    -0.203 F 
ATOM    132  F   UNL A   1      41.977  37.762  26.530  1.00  0.00    -0.200 F 
ATOM    133  C   UNL A   1      44.251  37.942  27.140  1.00  0.00     0.200 A 
ATOM    134  F   UNL A   1      46.521  38.075  27.772  1.00  0.00    -0.200 F 
ATOM    135  F   UNL A   1      44.409  38.974  26.302  1.00  0.00    -0.200 F 
ENDBRANCH 105 125
BRANCH 108 136
ATOM    136  C   UNL A   1      43.166  27.995  35.119  1.00  0.00     0.064 A 
ATOM    137  C   UNL A   1      42.022  27.187  35.176  1.00  0.00     0.173 A 
ATOM    138  C   UNL A   1      44.224  27.690  35.986  1.00  0.00     0.173 A 
ATOM    139  F   UNL A   1      40.976  27.452  34.380  1.00  0.00    -0.203 F 
ATOM    140  C   UNL A   1      41.929  26.134  36.084  1.00  0.00     0.198 A 
ATOM    141  C   UNL A   1      44.142  26.619  36.874  1.00  0.00     0.198 A 
ATOM    142  F   UNL A   1      45.344  28.429  35.967  1.00  0.00    -0.203 F 
ATOM    143  F   UNL A   1      40.804  25.409  36.152  1.00  0.00    -0.200 F 
ATOM    144  C   UNL A   1      42.991  25.848  36.928  1.00  0.00     0.200 A 
ATOM    145  F   UNL A   1      45.177  26.338  37.678  1.00  0.00    -0.200 F 
ATOM    146  F   UNL A   1      42.903  24.835  37.801  1.00  0.00    -0.200 F 
ENDBRANCH 108 136
BRANCH 123 147
ATOM    147  C   UNL A   1      42.242  34.862  35.840  1.00  0.00     0.064 A 
ATOM    148  C   UNL A   1      40.902  35.197  36.083  1.00  0.00     0.173 A 
ATOM    149  C   UNL A   1      43.210  35.313  36.749  1.00  0.00     0.173 A 
ATOM    150  F   UNL A   1      39.942  34.803  35.233  1.00  0.00    -0.203 F 
ATOM    151  C   UNL A   1      40.550  35.975  37.183  1.00  0.00     0.198 A 
ATOM    152  C   UNL A   1      42.850  36.065  37.863  1.00  0.00     0.198 A 
ATOM    153  F   UNL A   1      44.504  35.013  36.563  1.00  0.00    -0.203 F 
ATOM    154  F   UNL A   1      39.269  36.322  37.372  1.00  0.00    -0.200 F 
ATOM    155  C   UNL A   1      41.521  36.401  38.076  1.00  0.00     0.200 A 
ATOM    156  F   UNL A   1      43.789  36.465  38.732  1.00  0.00    -0.200 F 
ATOM    157  F   UNL A   1      41.179  37.142  39.138  1.00  0.00    -0.200 F 
ENDBRANCH 123 147
ENDBRANCH  88  91
ENDBRANCH  78  81
ENDBRANCH  74  77
ENDBRANCH  71  74
ENDBRANCH  68  71
ENDBRANCH  65  68
ENDBRANCH   1  65
TORSDOF 22
ENDMDL
MODEL 6
REMARK VINA RESULT:      -9.3      5.082     10.126
REMARK SMILES COc1ccc([C@H]2CC(c3ccc(S(C)(=O)=O)cc3)=NN2c2ccc(C(=O)NCCCCCCNC(=O)c3ccc(-c4c5nc(c(-c6c(F)c(F)c(F)c(F)c6F)c6ccc([nH]6)c(-c6c(F)c(F)c(F)c(F)c6F)c6nc(c(-c7c(F)c(F)c(F)c(F)c7F)c7ccc4[nH]7)C=C6)C=C5)cc3)cc2)cc1OC
REMARK SMILES IDX 30 1 29 4 28 7 26 8 27 9 25 11 22 12 23 13 102 14 24 15
REMARK SMILES IDX 101 17 21 21 7 22 8 23 9 25 20 28 6 29 3 30 4 31 104 32 5 33
REMARK SMILES IDX 103 35 2 38 1 39 105 43 106 44 10 48 11 49 19 50 12 51 18 53
REMARK SMILES IDX 13 55 14 58 16 59 17 60 15 61 31 65 32 68 33 71 34 74 35 77
REMARK SMILES IDX 36 78 37 80 38 81 39 82 100 83 40 84 99 86 41 88 42 91 43 92
REMARK SMILES IDX 93 93 44 94 98 95 92 96 94 97 45 98 97 99 91 101 90 103
REMARK SMILES IDX 46 105 78 108 58 109 77 110 59 111 62 112 76 113 95 114
REMARK SMILES IDX 60 115 61 117 75 119 96 120 63 123 47 125 48 126 56 127
REMARK SMILES IDX 49 128 50 129 54 130 57 131 51 132 52 133 55 134 53 135
REMARK SMILES IDX 79 136 80 137 88 138 81 139 82 140 86 141 89 142 83 143
REMARK SMILES IDX 84 144 87 145 85 146 64 147 65 148 73 149 66 150 67 151
REMARK SMILES IDX 71 152 74 153 68 154 69 155 72 156 70 157
REMARK H PARENT 30 2 30 3 29 5 29 6 28 10 23 16 102 18 24 19 101 20 7 24 8 26
REMARK H PARENT 8 27 4 34 5 36 103 37 1 40 1 41 1 42 106 45 106 46 106 47
REMARK H PARENT 11 52 19 54 12 56 18 57 15 62 15 63 15 64 31 66 31 67 32 69
REMARK H PARENT 32 70 33 72 33 73 34 75 34 76 35 79 39 85 100 87 40 89 99 90
REMARK H PARENT 98 100 92 102 94 104 97 106 91 107 59 116 62 118 95 121 60 122
REMARK H PARENT 96 124
REMARK Flexibility Score: inf
ROOT
ATOM      1  C   UNL A   1      36.327  21.806  25.886  1.00  0.00    -0.036 C 
ATOM      2  H   UNL A   1      36.371  21.136  26.719  1.00  0.00     0.028 H 
ATOM      3  H   UNL A   1      35.580  22.560  26.020  1.00  0.00     0.028 H 
ENDROOT
BRANCH   1   4
ATOM      4  C   UNL A   1      35.951  21.005  24.637  1.00  0.00     0.018 C 
ATOM      5  H   UNL A   1      36.221  21.560  23.764  1.00  0.00     0.049 H 
ATOM      6  H   UNL A   1      36.472  20.071  24.645  1.00  0.00     0.049 H 
BRANCH   4   7
ATOM      7  N   UNL A   1      34.524  20.758  24.627  1.00  0.00    -0.352 N 
ATOM      8  C   UNL A   1      33.442  21.586  24.768  1.00  0.00     0.251 C 
ATOM      9  O   UNL A   1      32.324  21.070  24.748  1.00  0.00    -0.269 OA
ATOM     10  H   UNL A   1      34.285  19.812  24.494  1.00  0.00     0.163 HD
BRANCH   8  11
ATOM     11  C   UNL A   1      33.557  23.067  24.869  1.00  0.00     0.039 A 
ATOM     12  C   UNL A   1      33.579  25.872  25.207  1.00  0.00     0.060 A 
ATOM     13  C   UNL A   1      33.208  25.027  26.258  1.00  0.00    -0.036 A 
ATOM     14  C   UNL A   1      34.004  25.294  24.010  1.00  0.00    -0.036 A 
ATOM     15  C   UNL A   1      33.178  23.642  26.088  1.00  0.00    -0.047 A 
ATOM     16  H   UNL A   1      32.952  25.434  27.171  1.00  0.00     0.065 H 
ATOM     17  C   UNL A   1      34.034  23.902  23.856  1.00  0.00    -0.047 A 
ATOM     18  H   UNL A   1      34.300  25.900  23.229  1.00  0.00     0.065 H 
ATOM     19  H   UNL A   1      32.874  23.038  26.866  1.00  0.00     0.063 H 
ATOM     20  H   UNL A   1      34.411  23.491  22.988  1.00  0.00     0.063 H 
BRANCH  12  21
ATOM     21  N   UNL A   1      33.548  27.243  25.381  1.00  0.00    -0.257 N 
ATOM     22  C   UNL A   1      33.213  28.208  24.336  1.00  0.00     0.083 C 
ATOM     23  C   UNL A   1      33.525  29.551  25.013  1.00  0.00     0.019 C 
ATOM     24  H   UNL A   1      33.757  28.059  23.427  1.00  0.00     0.061 H 
ATOM     25  C   UNL A   1      34.037  29.065  26.340  1.00  0.00     0.071 C 
ATOM     26  H   UNL A   1      32.648  30.154  25.123  1.00  0.00     0.036 H 
ATOM     27  H   UNL A   1      34.202  30.180  24.473  1.00  0.00     0.036 H 
ATOM     28  N   UNL A   1      34.060  27.782  26.512  1.00  0.00    -0.176 NA
BRANCH  22  29
ATOM     29  C   UNL A   1      31.757  28.101  23.910  1.00  0.00    -0.019 A 
ATOM     30  C   UNL A   1      29.058  27.930  23.107  1.00  0.00     0.160 A 
ATOM     31  C   UNL A   1      29.541  27.145  24.164  1.00  0.00    -0.016 A 
ATOM     32  C   UNL A   1      29.911  28.824  22.454  1.00  0.00     0.161 A 
ATOM     33  C   UNL A   1      30.881  27.223  24.558  1.00  0.00    -0.053 A 
ATOM     34  H   UNL A   1      28.900  26.503  24.657  1.00  0.00     0.066 H 
ATOM     35  C   UNL A   1      31.250  28.893  22.863  1.00  0.00    -0.011 A 
ATOM     36  H   UNL A   1      31.225  26.631  25.330  1.00  0.00     0.063 H 
ATOM     37  H   UNL A   1      31.886  29.547  22.380  1.00  0.00     0.067 H 
BRANCH  30  38
ATOM     38  O   UNL A   1      27.723  27.868  22.814  1.00  0.00    -0.493 OA
BRANCH  38  39
ATOM     39  C   UNL A   1      26.986  28.898  23.474  1.00  0.00     0.078 C 
ATOM     40  H   UNL A   1      27.298  29.853  23.106  1.00  0.00     0.067 H 
ATOM     41  H   UNL A   1      27.167  28.846  24.528  1.00  0.00     0.067 H 
ATOM     42  H   UNL A   1      25.941  28.766  23.285  1.00  0.00     0.067 H 
ENDBRANCH  38  39
ENDBRANCH  30  38
BRANCH  32  43
ATOM     43  O   UNL A   1      29.629  29.695  21.438  1.00  0.00    -0.493 OA
BRANCH  43  44
ATOM     44  C   UNL A   1      29.248  31.021  21.763  1.00  0.00     0.078 C 
ATOM     45  H   UNL A   1      30.005  31.472  22.370  1.00  0.00     0.067 H 
ATOM     46  H   UNL A   1      28.323  31.005  22.301  1.00  0.00     0.067 H 
ATOM     47  H   UNL A   1      29.126  31.587  20.863  1.00  0.00     0.067 H 
ENDBRANCH  43  44
ENDBRANCH  32  43
ENDBRANCH  22  29
BRANCH  25  48
ATOM     48  C   UNL A   1      34.528  29.999  27.355  1.00  0.00    -0.002 A 
ATOM     49  C   UNL A   1      35.668  29.652  28.085  1.00  0.00    -0.052 A 
ATOM     50  C   UNL A   1      33.839  31.187  27.611  1.00  0.00    -0.052 A 
ATOM     51  C   UNL A   1      36.143  30.513  29.073  1.00  0.00    -0.043 A 
ATOM     52  H   UNL A   1      36.157  28.763  27.894  1.00  0.00     0.063 H 
ATOM     53  C   UNL A   1      34.297  32.038  28.617  1.00  0.00    -0.043 A 
ATOM     54  H   UNL A   1      33.002  31.432  27.061  1.00  0.00     0.063 H 
ATOM     55  C   UNL A   1      35.445  31.696  29.343  1.00  0.00     0.067 A 
ATOM     56  H   UNL A   1      37.000  30.282  29.599  1.00  0.00     0.064 H 
ATOM     57  H   UNL A   1      33.794  32.915  28.825  1.00  0.00     0.064 H 
BRANCH  55  58
ATOM     58  S   UNL A   1      36.047  32.780  30.616  1.00  0.00     0.175 S 
ATOM     59  O   UNL A   1      37.378  32.317  30.960  1.00  0.00    -0.224 OA
ATOM     60  O   UNL A   1      35.820  34.144  30.176  1.00  0.00    -0.224 OA
BRANCH  58  61
ATOM     61  C   UNL A   1      34.971  32.475  31.994  1.00  0.00     0.043 C 
ATOM     62  H   UNL A   1      35.542  32.097  32.816  1.00  0.00     0.040 H 
ATOM     63  H   UNL A   1      34.229  31.756  31.714  1.00  0.00     0.040 H 
ATOM     64  H   UNL A   1      34.492  33.387  32.282  1.00  0.00     0.040 H 
ENDBRANCH  58  61
ENDBRANCH  55  58
ENDBRANCH  25  48
ENDBRANCH  12  21
ENDBRANCH   8  11
ENDBRANCH   4   7
ENDBRANCH   1   4
BRANCH   1  65
ATOM     65  C   UNL A   1      37.681  22.516  25.758  1.00  0.00    -0.052 C 
ATOM     66  H   UNL A   1      38.013  22.423  24.744  1.00  0.00     0.027 H 
ATOM     67  H   UNL A   1      38.338  22.044  26.459  1.00  0.00     0.027 H 
BRANCH  65  68
ATOM     68  C   UNL A   1      37.659  24.007  26.118  1.00  0.00    -0.052 C 
ATOM     69  H   UNL A   1      36.701  24.233  26.535  1.00  0.00     0.027 H 
ATOM     70  H   UNL A   1      37.864  24.537  25.212  1.00  0.00     0.027 H 
BRANCH  68  71
ATOM     71  C   UNL A   1      38.729  24.443  27.122  1.00  0.00    -0.036 C 
ATOM     72  H   UNL A   1      38.856  23.660  27.839  1.00  0.00     0.028 H 
ATOM     73  H   UNL A   1      38.385  25.357  27.559  1.00  0.00     0.028 H 
BRANCH  71  74
ATOM     74  C   UNL A   1      40.089  24.744  26.497  1.00  0.00     0.018 C 
ATOM     75  H   UNL A   1      40.599  25.462  27.106  1.00  0.00     0.049 H 
ATOM     76  H   UNL A   1      39.926  25.125  25.511  1.00  0.00     0.049 H 
BRANCH  74  77
ATOM     77  N   UNL A   1      40.910  23.548  26.393  1.00  0.00    -0.352 N 
ATOM     78  C   UNL A   1      42.256  23.439  26.153  1.00  0.00     0.251 C 
ATOM     79  H   UNL A   1      40.431  22.697  26.510  1.00  0.00     0.163 HD
ATOM     80  O   UNL A   1      42.750  22.352  25.873  1.00  0.00    -0.269 OA
BRANCH  78  81
ATOM     81  C   UNL A   1      43.114  24.640  26.220  1.00  0.00     0.039 A 
ATOM     82  C   UNL A   1      43.673  25.004  27.448  1.00  0.00    -0.049 A 
ATOM     83  C   UNL A   1      43.347  25.417  25.081  1.00  0.00    -0.049 A 
ATOM     84  C   UNL A   1      44.508  26.121  27.523  1.00  0.00    -0.053 A 
ATOM     85  H   UNL A   1      43.468  24.452  28.294  1.00  0.00     0.063 H 
ATOM     86  C   UNL A   1      44.231  26.491  25.144  1.00  0.00    -0.053 A 
ATOM     87  H   UNL A   1      42.865  25.195  24.196  1.00  0.00     0.063 H 
ATOM     88  C   UNL A   1      44.816  26.855  26.366  1.00  0.00    -0.014 A 
ATOM     89  H   UNL A   1      44.903  26.406  28.433  1.00  0.00     0.063 H 
ATOM     90  H   UNL A   1      44.457  27.020  24.288  1.00  0.00     0.063 H 
BRANCH  88  91
ATOM     91  C   UNL A   1      45.742  28.014  26.416  1.00  0.00     0.031 A 
ATOM     92  C   UNL A   1      47.219  27.807  26.231  1.00  0.00     0.074 A 
ATOM     93  C   UNL A   1      45.258  29.240  26.693  1.00  0.00     0.049 A 
ATOM     94  N   UNL A   1      48.193  28.678  26.316  1.00  0.00    -0.248 NA
ATOM     95  C   UNL A   1      47.662  26.436  25.935  1.00  0.00    -0.034 C 
ATOM     96  C   UNL A   1      43.850  29.557  26.938  1.00  0.00    -0.036 A 
ATOM     97  N   UNL A   1      45.898  30.446  26.830  1.00  0.00    -0.354 N 
ATOM     98  C   UNL A   1      49.362  27.958  26.103  1.00  0.00     0.074 A 
ATOM     99  C   UNL A   1      48.981  26.573  25.931  1.00  0.00    -0.034 C 
ATOM    100  H   UNL A   1      47.096  25.589  25.773  1.00  0.00     0.065 H 
ATOM    101  C   UNL A   1      43.732  30.873  27.178  1.00  0.00    -0.036 A 
ATOM    102  H   UNL A   1      43.073  28.879  26.927  1.00  0.00     0.065 H 
ATOM    103  C   UNL A   1      45.057  31.485  27.140  1.00  0.00     0.049 A 
ATOM    104  H   UNL A   1      46.870  30.555  26.716  1.00  0.00     0.167 HD
ATOM    105  C   UNL A   1      50.635  28.415  26.036  1.00  0.00     0.037 A 
ATOM    106  H   UNL A   1      49.648  25.793  25.819  1.00  0.00     0.065 H 
ATOM    107  H   UNL A   1      42.846  31.371  27.361  1.00  0.00     0.065 H 
ATOM    108  C   UNL A   1      45.325  32.783  27.376  1.00  0.00     0.037 A 
ATOM    109  C   UNL A   1      51.005  29.799  26.176  1.00  0.00     0.049 A 
ATOM    110  C   UNL A   1      46.748  33.266  27.289  1.00  0.00     0.074 A 
ATOM    111  C   UNL A   1      52.260  30.372  26.062  1.00  0.00    -0.036 A 
ATOM    112  N   UNL A   1      50.121  30.828  26.462  1.00  0.00    -0.354 N 
ATOM    113  N   UNL A   1      47.837  32.587  27.021  1.00  0.00    -0.248 NA
ATOM    114  C   UNL A   1      46.978  34.697  27.530  1.00  0.00    -0.034 C 
ATOM    115  C   UNL A   1      52.141  31.742  26.319  1.00  0.00    -0.036 A 
ATOM    116  H   UNL A   1      53.133  29.874  25.828  1.00  0.00     0.065 H 
ATOM    117  C   UNL A   1      50.805  32.029  26.547  1.00  0.00     0.049 A 
ATOM    118  H   UNL A   1      49.150  30.721  26.587  1.00  0.00     0.167 HD
ATOM    119  C   UNL A   1      48.875  33.509  27.031  1.00  0.00     0.074 A 
ATOM    120  C   UNL A   1      48.282  34.799  27.319  1.00  0.00    -0.034 C 
ATOM    121  H   UNL A   1      46.301  35.430  27.794  1.00  0.00     0.065 H 
ATOM    122  H   UNL A   1      52.917  32.422  26.338  1.00  0.00     0.065 H 
ATOM    123  C   UNL A   1      50.198  33.307  26.822  1.00  0.00     0.037 A 
ATOM    124  H   UNL A   1      48.809  35.686  27.354  1.00  0.00     0.065 H 
BRANCH 105 125
ATOM    125  C   UNL A   1      51.724  27.413  25.793  1.00  0.00     0.064 A 
ATOM    126  C   UNL A   1      52.417  26.809  26.853  1.00  0.00     0.173 A 
ATOM    127  C   UNL A   1      52.048  27.015  24.487  1.00  0.00     0.173 A 
ATOM    128  F   UNL A   1      52.154  27.163  28.120  1.00  0.00    -0.203 F 
ATOM    129  C   UNL A   1      53.409  25.861  26.614  1.00  0.00     0.198 A 
ATOM    130  C   UNL A   1      53.020  26.046  24.252  1.00  0.00     0.198 A 
ATOM    131  F   UNL A   1      51.413  27.557  23.437  1.00  0.00    -0.203 F 
ATOM    132  F   UNL A   1      54.087  25.329  27.640  1.00  0.00    -0.200 F 
ATOM    133  C   UNL A   1      53.704  25.475  25.315  1.00  0.00     0.200 A 
ATOM    134  F   UNL A   1      53.295  25.664  22.998  1.00  0.00    -0.200 F 
ATOM    135  F   UNL A   1      54.651  24.555  25.087  1.00  0.00    -0.200 F 
ENDBRANCH 105 125
BRANCH 108 136
ATOM    136  C   UNL A   1      44.222  33.725  27.697  1.00  0.00     0.064 A 
ATOM    137  C   UNL A   1      43.695  34.577  26.716  1.00  0.00     0.173 A 
ATOM    138  C   UNL A   1      43.679  33.801  28.988  1.00  0.00     0.173 A 
ATOM    139  F   UNL A   1      44.195  34.554  25.472  1.00  0.00    -0.203 F 
ATOM    140  C   UNL A   1      42.684  35.486  27.020  1.00  0.00     0.198 A 
ATOM    141  C   UNL A   1      42.649  34.692  29.284  1.00  0.00     0.198 A 
ATOM    142  F   UNL A   1      44.144  33.005  29.961  1.00  0.00    -0.203 F 
ATOM    143  F   UNL A   1      42.233  36.323  26.075  1.00  0.00    -0.200 F 
ATOM    144  C   UNL A   1      42.159  35.540  28.302  1.00  0.00     0.200 A 
ATOM    145  F   UNL A   1      42.135  34.730  30.521  1.00  0.00    -0.200 F 
ATOM    146  F   UNL A   1      41.187  36.414  28.595  1.00  0.00    -0.200 F 
ENDBRANCH 108 136
BRANCH 123 147
ATOM    147  C   UNL A   1      51.092  34.511  26.857  1.00  0.00     0.064 A 
ATOM    148  C   UNL A   1      51.307  35.301  25.719  1.00  0.00     0.173 A 
ATOM    149  C   UNL A   1      51.708  34.901  28.056  1.00  0.00     0.173 A 
ATOM    150  F   UNL A   1      50.753  34.960  24.545  1.00  0.00    -0.203 F 
ATOM    151  C   UNL A   1      52.127  36.425  25.774  1.00  0.00     0.198 A 
ATOM    152  C   UNL A   1      52.503  36.042  28.114  1.00  0.00     0.198 A 
ATOM    153  F   UNL A   1      51.528  34.182  29.173  1.00  0.00    -0.203 F 
ATOM    154  F   UNL A   1      52.356  37.140  24.664  1.00  0.00    -0.200 F 
ATOM    155  C   UNL A   1      52.717  36.799  26.972  1.00  0.00     0.200 A 
ATOM    156  F   UNL A   1      53.062  36.409  29.275  1.00  0.00    -0.200 F 
ATOM    157  F   UNL A   1      53.499  37.886  27.025  1.00  0.00    -0.200 F 
ENDBRANCH 123 147
ENDBRANCH  88  91
ENDBRANCH  78  81
ENDBRANCH  74  77
ENDBRANCH  71  74
ENDBRANCH  68  71
ENDBRANCH  65  68
ENDBRANCH   1  65
TORSDOF 22
ENDMDL
MODEL 7
REMARK VINA RESULT:      -9.2      5.327     11.686
REMARK SMILES COc1ccc([C@H]2CC(c3ccc(S(C)(=O)=O)cc3)=NN2c2ccc(C(=O)NCCCCCCNC(=O)c3ccc(-c4c5nc(c(-c6c(F)c(F)c(F)c(F)c6F)c6ccc([nH]6)c(-c6c(F)c(F)c(F)c(F)c6F)c6nc(c(-c7c(F)c(F)c(F)c(F)c7F)c7ccc4[nH]7)C=C6)C=C5)cc3)cc2)cc1OC
REMARK SMILES IDX 30 1 29 4 28 7 26 8 27 9 25 11 22 12 23 13 102 14 24 15
REMARK SMILES IDX 101 17 21 21 7 22 8 23 9 25 20 28 6 29 3 30 4 31 104 32 5 33
REMARK SMILES IDX 103 35 2 38 1 39 105 43 106 44 10 48 11 49 19 50 12 51 18 53
REMARK SMILES IDX 13 55 14 58 16 59 17 60 15 61 31 65 32 68 33 71 34 74 35 77
REMARK SMILES IDX 36 78 37 80 38 81 39 82 100 83 40 84 99 86 41 88 42 91 43 92
REMARK SMILES IDX 93 93 44 94 98 95 92 96 94 97 45 98 97 99 91 101 90 103
REMARK SMILES IDX 46 105 78 108 58 109 77 110 59 111 62 112 76 113 95 114
REMARK SMILES IDX 60 115 61 117 75 119 96 120 63 123 47 125 48 126 56 127
REMARK SMILES IDX 49 128 50 129 54 130 57 131 51 132 52 133 55 134 53 135
REMARK SMILES IDX 79 136 80 137 88 138 81 139 82 140 86 141 89 142 83 143
REMARK SMILES IDX 84 144 87 145 85 146 64 147 65 148 73 149 66 150 67 151
REMARK SMILES IDX 71 152 74 153 68 154 69 155 72 156 70 157
REMARK H PARENT 30 2 30 3 29 5 29 6 28 10 23 16 102 18 24 19 101 20 7 24 8 26
REMARK H PARENT 8 27 4 34 5 36 103 37 1 40 1 41 1 42 106 45 106 46 106 47
REMARK H PARENT 11 52 19 54 12 56 18 57 15 62 15 63 15 64 31 66 31 67 32 69
REMARK H PARENT 32 70 33 72 33 73 34 75 34 76 35 79 39 85 100 87 40 89 99 90
REMARK H PARENT 98 100 92 102 94 104 97 106 91 107 59 116 62 118 95 121 60 122
REMARK H PARENT 96 124
REMARK Flexibility Score: inf
ROOT
ATOM      1  C   UNL A   1      40.294  19.920  26.126  1.00  0.00    -0.036 C 
ATOM      2  H   UNL A   1      40.934  19.885  25.269  1.00  0.00     0.028 H 
ATOM      3  H   UNL A   1      39.857  18.967  26.336  1.00  0.00     0.028 H 
ENDROOT
BRANCH   1   4
ATOM      4  C   UNL A   1      39.149  20.895  25.839  1.00  0.00     0.018 C 
ATOM      5  H   UNL A   1      39.059  21.037  24.782  1.00  0.00     0.049 H 
ATOM      6  H   UNL A   1      38.237  20.495  26.227  1.00  0.00     0.049 H 
BRANCH   4   7
ATOM      7  N   UNL A   1      39.422  22.168  26.473  1.00  0.00    -0.352 N 
ATOM      8  C   UNL A   1      38.803  23.388  26.401  1.00  0.00     0.251 C 
ATOM      9  O   UNL A   1      39.296  24.315  27.045  1.00  0.00    -0.269 OA
ATOM     10  H   UNL A   1      40.204  22.154  27.072  1.00  0.00     0.163 HD
BRANCH   8  11
ATOM     11  C   UNL A   1      37.541  23.618  25.647  1.00  0.00     0.039 A 
ATOM     12  C   UNL A   1      35.025  24.006  24.422  1.00  0.00     0.060 A 
ATOM     13  C   UNL A   1      35.244  24.398  25.745  1.00  0.00    -0.036 A 
ATOM     14  C   UNL A   1      36.096  23.481  23.698  1.00  0.00    -0.036 A 
ATOM     15  C   UNL A   1      36.481  24.190  26.359  1.00  0.00    -0.047 A 
ATOM     16  H   UNL A   1      34.481  24.847  26.276  1.00  0.00     0.065 H 
ATOM     17  C   UNL A   1      37.356  23.328  24.292  1.00  0.00    -0.047 A 
ATOM     18  H   UNL A   1      35.960  23.203  22.714  1.00  0.00     0.065 H 
ATOM     19  H   UNL A   1      36.614  24.461  27.345  1.00  0.00     0.063 H 
ATOM     20  H   UNL A   1      38.153  22.998  23.725  1.00  0.00     0.063 H 
BRANCH  12  21
ATOM     21  N   UNL A   1      33.776  24.170  23.851  1.00  0.00    -0.257 N 
ATOM     22  C   UNL A   1      33.194  23.282  22.847  1.00  0.00     0.083 C 
ATOM     23  C   UNL A   1      31.919  24.034  22.439  1.00  0.00     0.019 C 
ATOM     24  H   UNL A   1      33.847  23.083  22.024  1.00  0.00     0.061 H 
ATOM     25  C   UNL A   1      32.056  25.266  23.288  1.00  0.00     0.071 C 
ATOM     26  H   UNL A   1      31.036  23.480  22.682  1.00  0.00     0.036 H 
ATOM     27  H   UNL A   1      31.824  24.219  21.388  1.00  0.00     0.036 H 
ATOM     28  N   UNL A   1      33.103  25.328  24.047  1.00  0.00    -0.176 NA
BRANCH  22  29
ATOM     29  C   UNL A   1      32.894  21.903  23.415  1.00  0.00    -0.019 A 
ATOM     30  C   UNL A   1      32.358  19.350  24.489  1.00  0.00     0.160 A 
ATOM     31  C   UNL A   1      32.108  19.623  23.137  1.00  0.00    -0.016 A 
ATOM     32  C   UNL A   1      32.899  20.341  25.314  1.00  0.00     0.161 A 
ATOM     33  C   UNL A   1      32.366  20.891  22.604  1.00  0.00    -0.053 A 
ATOM     34  H   UNL A   1      31.729  18.881  22.528  1.00  0.00     0.066 H 
ATOM     35  C   UNL A   1      33.155  21.605  24.765  1.00  0.00    -0.011 A 
ATOM     36  H   UNL A   1      32.166  21.081  21.610  1.00  0.00     0.063 H 
ATOM     37  H   UNL A   1      33.549  22.341  25.371  1.00  0.00     0.067 H 
BRANCH  30  38
ATOM     38  O   UNL A   1      32.158  18.073  24.937  1.00  0.00    -0.493 OA
BRANCH  38  39
ATOM     39  C   UNL A   1      33.215  17.198  24.539  1.00  0.00     0.078 C 
ATOM     40  H   UNL A   1      33.280  16.380  25.226  1.00  0.00     0.067 H 
ATOM     41  H   UNL A   1      34.140  17.736  24.536  1.00  0.00     0.067 H 
ATOM     42  H   UNL A   1      33.016  16.824  23.556  1.00  0.00     0.067 H 
ENDBRANCH  38  39
ENDBRANCH  30  38
BRANCH  32  43
ATOM     43  O   UNL A   1      33.247  20.264  26.634  1.00  0.00    -0.493 OA
BRANCH  43  44
ATOM     44  C   UNL A   1      33.657  21.446  27.301  1.00  0.00     0.078 C 
ATOM     45  H   UNL A   1      34.704  21.599  27.147  1.00  0.00     0.067 H 
ATOM     46  H   UNL A   1      33.462  21.350  28.349  1.00  0.00     0.067 H 
ATOM     47  H   UNL A   1      33.112  22.281  26.913  1.00  0.00     0.067 H 
ENDBRANCH  43  44
ENDBRANCH  32  43
ENDBRANCH  22  29
BRANCH  25  48
ATOM     48  C   UNL A   1      31.078  26.354  23.214  1.00  0.00    -0.002 A 
ATOM     49  C   UNL A   1      29.850  26.192  23.862  1.00  0.00    -0.052 A 
ATOM     50  C   UNL A   1      31.359  27.505  22.474  1.00  0.00    -0.052 A 
ATOM     51  C   UNL A   1      28.893  27.202  23.788  1.00  0.00    -0.043 A 
ATOM     52  H   UNL A   1      29.653  25.329  24.392  1.00  0.00     0.063 H 
ATOM     53  C   UNL A   1      30.392  28.507  22.377  1.00  0.00    -0.043 A 
ATOM     54  H   UNL A   1      32.271  27.613  22.005  1.00  0.00     0.063 H 
ATOM     55  C   UNL A   1      29.165  28.349  23.033  1.00  0.00     0.067 A 
ATOM     56  H   UNL A   1      27.994  27.107  24.286  1.00  0.00     0.064 H 
ATOM     57  H   UNL A   1      30.580  29.359  21.826  1.00  0.00     0.064 H 
BRANCH  55  58
ATOM     58  S   UNL A   1      27.932  29.625  22.930  1.00  0.00     0.175 S 
ATOM     59  O   UNL A   1      26.648  28.979  23.127  1.00  0.00    -0.224 OA
ATOM     60  O   UNL A   1      28.358  30.718  23.785  1.00  0.00    -0.224 OA
BRANCH  58  61
ATOM     61  C   UNL A   1      28.028  30.190  21.251  1.00  0.00     0.043 C 
ATOM     62  H   UNL A   1      28.833  30.887  21.155  1.00  0.00     0.040 H 
ATOM     63  H   UNL A   1      27.108  30.667  20.982  1.00  0.00     0.040 H 
ATOM     64  H   UNL A   1      28.199  29.356  20.602  1.00  0.00     0.040 H 
ENDBRANCH  58  61
ENDBRANCH  55  58
ENDBRANCH  25  48
ENDBRANCH  12  21
ENDBRANCH   8  11
ENDBRANCH   4   7
ENDBRANCH   1   4
BRANCH   1  65
ATOM     65  C   UNL A   1      41.132  20.323  27.346  1.00  0.00    -0.052 C 
ATOM     66  H   UNL A   1      41.209  19.474  27.994  1.00  0.00     0.027 H 
ATOM     67  H   UNL A   1      40.629  21.152  27.798  1.00  0.00     0.027 H 
BRANCH  65  68
ATOM     68  C   UNL A   1      42.552  20.803  27.018  1.00  0.00    -0.052 C 
ATOM     69  H   UNL A   1      42.731  20.623  25.979  1.00  0.00     0.027 H 
ATOM     70  H   UNL A   1      43.209  20.257  27.663  1.00  0.00     0.027 H 
BRANCH  68  71
ATOM     71  C   UNL A   1      42.811  22.285  27.296  1.00  0.00    -0.036 C 
ATOM     72  H   UNL A   1      43.769  22.377  27.763  1.00  0.00     0.028 H 
ATOM     73  H   UNL A   1      42.011  22.626  27.918  1.00  0.00     0.028 H 
BRANCH  71  74
ATOM     74  C   UNL A   1      42.800  23.168  26.051  1.00  0.00     0.018 C 
ATOM     75  H   UNL A   1      42.605  24.179  26.345  1.00  0.00     0.049 H 
ATOM     76  H   UNL A   1      42.038  22.807  25.392  1.00  0.00     0.049 H 
BRANCH  74  77
ATOM     77  N   UNL A   1      44.071  23.120  25.346  1.00  0.00    -0.352 N 
ATOM     78  C   UNL A   1      44.935  24.142  25.045  1.00  0.00     0.251 C 
ATOM     79  H   UNL A   1      44.350  22.228  25.039  1.00  0.00     0.163 HD
ATOM     80  O   UNL A   1      45.852  23.966  24.250  1.00  0.00    -0.269 OA
BRANCH  78  81
ATOM     81  C   UNL A   1      44.753  25.467  25.674  1.00  0.00     0.039 A 
ATOM     82  C   UNL A   1      45.314  25.702  26.931  1.00  0.00    -0.049 A 
ATOM     83  C   UNL A   1      44.010  26.465  25.035  1.00  0.00    -0.049 A 
ATOM     84  C   UNL A   1      45.175  26.957  27.527  1.00  0.00    -0.053 A 
ATOM     85  H   UNL A   1      45.829  24.952  27.417  1.00  0.00     0.063 H 
ATOM     86  C   UNL A   1      43.927  27.735  25.600  1.00  0.00    -0.053 A 
ATOM     87  H   UNL A   1      43.525  26.262  24.147  1.00  0.00     0.063 H 
ATOM     88  C   UNL A   1      44.504  27.991  26.853  1.00  0.00    -0.014 A 
ATOM     89  H   UNL A   1      45.568  27.126  28.466  1.00  0.00     0.063 H 
ATOM     90  H   UNL A   1      43.439  28.490  25.094  1.00  0.00     0.063 H 
BRANCH  88  91
ATOM     91  C   UNL A   1      44.389  29.347  27.447  1.00  0.00     0.031 A 
ATOM     92  C   UNL A   1      45.518  30.329  27.307  1.00  0.00     0.074 A 
ATOM     93  C   UNL A   1      43.297  29.666  28.166  1.00  0.00     0.049 A 
ATOM     94  N   UNL A   1      45.638  31.529  27.818  1.00  0.00    -0.248 NA
ATOM     95  C   UNL A   1      46.675  29.898  26.508  1.00  0.00    -0.034 C 
ATOM     96  C   UNL A   1      42.157  28.781  28.412  1.00  0.00    -0.036 A 
ATOM     97  N   UNL A   1      42.971  30.819  28.836  1.00  0.00    -0.354 N 
ATOM     98  C   UNL A   1      46.888  31.986  27.418  1.00  0.00     0.074 A 
ATOM     99  C   UNL A   1      47.506  30.919  26.661  1.00  0.00    -0.034 C 
ATOM    100  H   UNL A   1      46.806  29.027  25.968  1.00  0.00     0.065 H 
ATOM    101  C   UNL A   1      41.252  29.428  29.163  1.00  0.00    -0.036 A 
ATOM    102  H   UNL A   1      42.064  27.815  28.062  1.00  0.00     0.065 H 
ATOM    103  C   UNL A   1      41.761  30.758  29.482  1.00  0.00     0.049 A 
ATOM    104  H   UNL A   1      43.552  31.614  28.853  1.00  0.00     0.167 HD
ATOM    105  C   UNL A   1      47.457  33.193  27.643  1.00  0.00     0.037 A 
ATOM    106  H   UNL A   1      48.469  30.948  26.289  1.00  0.00     0.065 H 
ATOM    107  H   UNL A   1      40.342  29.046  29.466  1.00  0.00     0.065 H 
ATOM    108  C   UNL A   1      41.137  31.670  30.252  1.00  0.00     0.037 A 
ATOM    109  C   UNL A   1      46.824  34.263  28.369  1.00  0.00     0.049 A 
ATOM    110  C   UNL A   1      41.790  33.007  30.481  1.00  0.00     0.074 A 
ATOM    111  C   UNL A   1      47.292  35.545  28.597  1.00  0.00    -0.036 A 
ATOM    112  N   UNL A   1      45.585  34.174  28.984  1.00  0.00    -0.354 N 
ATOM    113  N   UNL A   1      42.943  33.451  30.041  1.00  0.00    -0.248 NA
ATOM    114  C   UNL A   1      41.051  33.972  31.306  1.00  0.00    -0.034 C 
ATOM    115  C   UNL A   1      46.354  36.219  29.386  1.00  0.00    -0.036 A 
ATOM    116  H   UNL A   1      48.180  35.937  28.246  1.00  0.00     0.065 H 
ATOM    117  C   UNL A   1      45.280  35.372  29.608  1.00  0.00     0.049 A 
ATOM    118  H   UNL A   1      45.007  33.377  28.979  1.00  0.00     0.167 HD
ATOM    119  C   UNL A   1      43.055  34.752  30.510  1.00  0.00     0.074 A 
ATOM    120  C   UNL A   1      41.846  35.032  31.257  1.00  0.00    -0.034 C 
ATOM    121  H   UNL A   1      40.151  33.855  31.796  1.00  0.00     0.065 H 
ATOM    122  H   UNL A   1      46.446  37.183  29.743  1.00  0.00     0.065 H 
ATOM    123  C   UNL A   1      44.066  35.637  30.338  1.00  0.00     0.037 A 
ATOM    124  H   UNL A   1      41.629  35.941  31.695  1.00  0.00     0.065 H 
BRANCH 105 125
ATOM    125  C   UNL A   1      48.833  33.429  27.092  1.00  0.00     0.064 A 
ATOM    126  C   UNL A   1      49.035  34.140  25.900  1.00  0.00     0.173 A 
ATOM    127  C   UNL A   1      49.965  32.982  27.789  1.00  0.00     0.173 A 
ATOM    128  F   UNL A   1      47.985  34.579  25.189  1.00  0.00    -0.203 F 
ATOM    129  C   UNL A   1      50.319  34.374  25.414  1.00  0.00     0.198 A 
ATOM    130  C   UNL A   1      51.249  33.243  27.315  1.00  0.00     0.198 A 
ATOM    131  F   UNL A   1      49.829  32.302  28.938  1.00  0.00    -0.203 F 
ATOM    132  F   UNL A   1      50.486  35.018  24.250  1.00  0.00    -0.200 F 
ATOM    133  C   UNL A   1      51.424  33.933  26.125  1.00  0.00     0.200 A 
ATOM    134  F   UNL A   1      52.316  32.827  28.011  1.00  0.00    -0.200 F 
ATOM    135  F   UNL A   1      52.658  34.168  25.662  1.00  0.00    -0.200 F 
ENDBRANCH 105 125
BRANCH 108 136
ATOM    136  C   UNL A   1      39.811  31.360  30.847  1.00  0.00     0.064 A 
ATOM    137  C   UNL A   1      38.627  31.759  30.211  1.00  0.00     0.173 A 
ATOM    138  C   UNL A   1      39.700  30.671  32.062  1.00  0.00     0.173 A 
ATOM    139  F   UNL A   1      38.684  32.438  29.056  1.00  0.00    -0.203 F 
ATOM    140  C   UNL A   1      37.382  31.502  30.781  1.00  0.00     0.198 A 
ATOM    141  C   UNL A   1      38.454  30.389  32.619  1.00  0.00     0.198 A 
ATOM    142  F   UNL A   1      40.802  30.263  32.708  1.00  0.00    -0.203 F 
ATOM    143  F   UNL A   1      36.268  31.938  30.177  1.00  0.00    -0.200 F 
ATOM    144  C   UNL A   1      37.296  30.813  31.982  1.00  0.00     0.200 A 
ATOM    145  F   UNL A   1      38.374  29.711  33.771  1.00  0.00    -0.200 F 
ATOM    146  F   UNL A   1      36.099  30.565  32.531  1.00  0.00    -0.200 F 
ENDBRANCH 108 136
BRANCH 123 147
ATOM    147  C   UNL A   1      43.895  37.003  30.935  1.00  0.00     0.064 A 
ATOM    148  C   UNL A   1      44.141  37.248  32.294  1.00  0.00     0.173 A 
ATOM    149  C   UNL A   1      43.520  38.087  30.128  1.00  0.00     0.173 A 
ATOM    150  F   UNL A   1      44.487  36.240  33.109  1.00  0.00    -0.203 F 
ATOM    151  C   UNL A   1      43.994  38.525  32.827  1.00  0.00     0.198 A 
ATOM    152  C   UNL A   1      43.402  39.368  30.659  1.00  0.00     0.198 A 
ATOM    153  F   UNL A   1      43.280  37.905  28.821  1.00  0.00    -0.203 F 
ATOM    154  F   UNL A   1      44.190  38.728  34.137  1.00  0.00    -0.200 F 
ATOM    155  C   UNL A   1      43.633  39.585  32.009  1.00  0.00     0.200 A 
ATOM    156  F   UNL A   1      43.066  40.393  29.864  1.00  0.00    -0.200 F 
ATOM    157  F   UNL A   1      43.499  40.815  32.523  1.00  0.00    -0.200 F 
ENDBRANCH 123 147
ENDBRANCH  88  91
ENDBRANCH  78  81
ENDBRANCH  74  77
ENDBRANCH  71  74
ENDBRANCH  68  71
ENDBRANCH  65  68
ENDBRANCH   1  65
TORSDOF 22
ENDMDL
MODEL 8
REMARK VINA RESULT:      -9.2      5.202     10.652
REMARK SMILES COc1ccc([C@H]2CC(c3ccc(S(C)(=O)=O)cc3)=NN2c2ccc(C(=O)NCCCCCCNC(=O)c3ccc(-c4c5nc(c(-c6c(F)c(F)c(F)c(F)c6F)c6ccc([nH]6)c(-c6c(F)c(F)c(F)c(F)c6F)c6nc(c(-c7c(F)c(F)c(F)c(F)c7F)c7ccc4[nH]7)C=C6)C=C5)cc3)cc2)cc1OC
REMARK SMILES IDX 30 1 29 4 28 7 26 8 27 9 25 11 22 12 23 13 102 14 24 15
REMARK SMILES IDX 101 17 21 21 7 22 8 23 9 25 20 28 6 29 3 30 4 31 104 32 5 33
REMARK SMILES IDX 103 35 2 38 1 39 105 43 106 44 10 48 11 49 19 50 12 51 18 53
REMARK SMILES IDX 13 55 14 58 16 59 17 60 15 61 31 65 32 68 33 71 34 74 35 77
REMARK SMILES IDX 36 78 37 80 38 81 39 82 100 83 40 84 99 86 41 88 42 91 43 92
REMARK SMILES IDX 93 93 44 94 98 95 92 96 94 97 45 98 97 99 91 101 90 103
REMARK SMILES IDX 46 105 78 108 58 109 77 110 59 111 62 112 76 113 95 114
REMARK SMILES IDX 60 115 61 117 75 119 96 120 63 123 47 125 48 126 56 127
REMARK SMILES IDX 49 128 50 129 54 130 57 131 51 132 52 133 55 134 53 135
REMARK SMILES IDX 79 136 80 137 88 138 81 139 82 140 86 141 89 142 83 143
REMARK SMILES IDX 84 144 87 145 85 146 64 147 65 148 73 149 66 150 67 151
REMARK SMILES IDX 71 152 74 153 68 154 69 155 72 156 70 157
REMARK H PARENT 30 2 30 3 29 5 29 6 28 10 23 16 102 18 24 19 101 20 7 24 8 26
REMARK H PARENT 8 27 4 34 5 36 103 37 1 40 1 41 1 42 106 45 106 46 106 47
REMARK H PARENT 11 52 19 54 12 56 18 57 15 62 15 63 15 64 31 66 31 67 32 69
REMARK H PARENT 32 70 33 72 33 73 34 75 34 76 35 79 39 85 100 87 40 89 99 90
REMARK H PARENT 98 100 92 102 94 104 97 106 91 107 59 116 62 118 95 121 60 122
REMARK H PARENT 96 124
REMARK Flexibility Score: inf
ROOT
ATOM      1  C   UNL A   1      40.586  25.331  27.958  1.00  0.00    -0.036 C 
ATOM      2  H   UNL A   1      40.067  24.818  28.740  1.00  0.00     0.028 H 
ATOM      3  H   UNL A   1      40.449  26.390  28.016  1.00  0.00     0.028 H 
ENDROOT
BRANCH   1   4
ATOM      4  C   UNL A   1      40.020  24.870  26.612  1.00  0.00     0.018 C 
ATOM      5  H   UNL A   1      38.987  25.142  26.549  1.00  0.00     0.049 H 
ATOM      6  H   UNL A   1      40.564  25.337  25.820  1.00  0.00     0.049 H 
BRANCH   4   7
ATOM      7  N   UNL A   1      40.146  23.432  26.498  1.00  0.00    -0.352 N 
ATOM      8  C   UNL A   1      39.256  22.450  26.149  1.00  0.00     0.251 C 
ATOM      9  O   UNL A   1      39.655  21.286  26.174  1.00  0.00    -0.269 OA
ATOM     10  H   UNL A   1      41.046  23.093  26.711  1.00  0.00     0.163 HD
BRANCH   8  11
ATOM     11  C   UNL A   1      37.872  22.736  25.682  1.00  0.00     0.039 A 
ATOM     12  C   UNL A   1      35.319  23.214  24.570  1.00  0.00     0.060 A 
ATOM     13  C   UNL A   1      36.117  22.166  24.103  1.00  0.00    -0.036 A 
ATOM     14  C   UNL A   1      35.783  23.975  25.643  1.00  0.00    -0.036 A 
ATOM     15  C   UNL A   1      37.387  21.939  24.637  1.00  0.00    -0.047 A 
ATOM     16  H   UNL A   1      35.763  21.552  23.352  1.00  0.00     0.065 H 
ATOM     17  C   UNL A   1      37.031  23.711  26.224  1.00  0.00    -0.047 A 
ATOM     18  H   UNL A   1      35.200  24.742  26.015  1.00  0.00     0.065 H 
ATOM     19  H   UNL A   1      37.972  21.178  24.260  1.00  0.00     0.063 H 
ATOM     20  H   UNL A   1      37.331  24.242  27.056  1.00  0.00     0.063 H 
BRANCH  12  21
ATOM     21  N   UNL A   1      34.088  23.455  23.988  1.00  0.00    -0.257 N 
ATOM     22  C   UNL A   1      33.433  22.573  23.025  1.00  0.00     0.083 C 
ATOM     23  C   UNL A   1      32.225  23.409  22.578  1.00  0.00     0.019 C 
ATOM     24  H   UNL A   1      34.067  22.283  22.213  1.00  0.00     0.061 H 
ATOM     25  C   UNL A   1      32.465  24.663  23.369  1.00  0.00     0.071 C 
ATOM     26  H   UNL A   1      31.299  22.943  22.843  1.00  0.00     0.036 H 
ATOM     27  H   UNL A   1      32.145  23.553  21.520  1.00  0.00     0.036 H 
ATOM     28  N   UNL A   1      33.514  24.673  24.128  1.00  0.00    -0.176 NA
BRANCH  22  29
ATOM     29  C   UNL A   1      33.020  21.252  23.654  1.00  0.00    -0.019 A 
ATOM     30  C   UNL A   1      32.248  18.789  24.793  1.00  0.00     0.160 A 
ATOM     31  C   UNL A   1      32.211  19.970  25.550  1.00  0.00    -0.016 A 
ATOM     32  C   UNL A   1      32.650  18.829  23.455  1.00  0.00     0.161 A 
ATOM     33  C   UNL A   1      32.601  21.190  24.988  1.00  0.00    -0.053 A 
ATOM     34  H   UNL A   1      31.893  19.938  26.531  1.00  0.00     0.066 H 
ATOM     35  C   UNL A   1      33.034  20.060  22.906  1.00  0.00    -0.011 A 
ATOM     36  H   UNL A   1      32.580  22.049  25.560  1.00  0.00     0.063 H 
ATOM     37  H   UNL A   1      33.336  20.093  21.920  1.00  0.00     0.067 H 
BRANCH  30  38
ATOM     38  O   UNL A   1      31.784  17.638  25.371  1.00  0.00    -0.493 OA
BRANCH  38  39
ATOM     39  C   UNL A   1      32.847  16.844  25.900  1.00  0.00     0.078 C 
ATOM     40  H   UNL A   1      32.913  16.993  26.957  1.00  0.00     0.067 H 
ATOM     41  H   UNL A   1      33.770  17.132  25.440  1.00  0.00     0.067 H 
ATOM     42  H   UNL A   1      32.655  15.811  25.697  1.00  0.00     0.067 H 
ENDBRANCH  38  39
ENDBRANCH  30  38
BRANCH  32  43
ATOM     43  O   UNL A   1      32.717  17.808  22.548  1.00  0.00    -0.493 OA
BRANCH  43  44
ATOM     44  C   UNL A   1      33.817  16.916  22.605  1.00  0.00     0.078 C 
ATOM     45  H   UNL A   1      34.441  17.063  21.749  1.00  0.00     0.067 H 
ATOM     46  H   UNL A   1      33.459  15.907  22.616  1.00  0.00     0.067 H 
ATOM     47  H   UNL A   1      34.381  17.102  23.495  1.00  0.00     0.067 H 
ENDBRANCH  43  44
ENDBRANCH  32  43
ENDBRANCH  22  29
BRANCH  25  48
ATOM     48  C   UNL A   1      31.580  25.824  23.243  1.00  0.00    -0.002 A 
ATOM     49  C   UNL A   1      30.273  25.723  23.727  1.00  0.00    -0.052 A 
ATOM     50  C   UNL A   1      32.029  26.986  22.611  1.00  0.00    -0.052 A 
ATOM     51  C   UNL A   1      29.405  26.805  23.599  1.00  0.00    -0.043 A 
ATOM     52  H   UNL A   1      29.953  24.852  24.178  1.00  0.00     0.063 H 
ATOM     53  C   UNL A   1      31.153  28.062  22.458  1.00  0.00    -0.043 A 
ATOM     54  H   UNL A   1      32.998  27.048  22.263  1.00  0.00     0.063 H 
ATOM     55  C   UNL A   1      29.846  27.964  22.950  1.00  0.00     0.067 A 
ATOM     56  H   UNL A   1      28.446  26.753  23.978  1.00  0.00     0.064 H 
ATOM     57  H   UNL A   1      31.466  28.924  21.985  1.00  0.00     0.064 H 
BRANCH  55  58
ATOM     58  S   UNL A   1      28.726  29.333  22.776  1.00  0.00     0.175 S 
ATOM     59  O   UNL A   1      29.122  30.323  23.759  1.00  0.00    -0.224 OA
ATOM     60  O   UNL A   1      28.657  29.667  21.365  1.00  0.00    -0.224 OA
BRANCH  58  61
ATOM     61  C   UNL A   1      27.150  28.669  23.247  1.00  0.00     0.043 C 
ATOM     62  H   UNL A   1      26.375  29.170  22.705  1.00  0.00     0.040 H 
ATOM     63  H   UNL A   1      27.001  28.813  24.297  1.00  0.00     0.040 H 
ATOM     64  H   UNL A   1      27.122  27.622  23.024  1.00  0.00     0.040 H 
ENDBRANCH  58  61
ENDBRANCH  55  58
ENDBRANCH  25  48
ENDBRANCH  12  21
ENDBRANCH   8  11
ENDBRANCH   4   7
ENDBRANCH   1   4
BRANCH   1  65
ATOM     65  C   UNL A   1      42.088  25.052  28.103  1.00  0.00    -0.052 C 
ATOM     66  H   UNL A   1      42.573  25.966  28.379  1.00  0.00     0.027 H 
ATOM     67  H   UNL A   1      42.417  24.671  27.159  1.00  0.00     0.027 H 
BRANCH  65  68
ATOM     68  C   UNL A   1      42.444  23.988  29.148  1.00  0.00    -0.052 C 
ATOM     69  H   UNL A   1      41.540  23.683  29.632  1.00  0.00     0.027 H 
ATOM     70  H   UNL A   1      43.148  24.444  29.813  1.00  0.00     0.027 H 
BRANCH  68  71
ATOM     71  C   UNL A   1      43.128  22.738  28.589  1.00  0.00    -0.036 C 
ATOM     72  H   UNL A   1      42.505  21.894  28.793  1.00  0.00     0.028 H 
ATOM     73  H   UNL A   1      44.085  22.674  29.064  1.00  0.00     0.028 H 
BRANCH  71  74
ATOM     74  C   UNL A   1      43.390  22.786  27.086  1.00  0.00     0.018 C 
ATOM     75  H   UNL A   1      43.075  23.738  26.710  1.00  0.00     0.049 H 
ATOM     76  H   UNL A   1      42.842  21.991  26.626  1.00  0.00     0.049 H 
BRANCH  74  77
ATOM     77  N   UNL A   1      44.800  22.603  26.780  1.00  0.00    -0.352 N 
ATOM     78  C   UNL A   1      45.786  23.546  26.639  1.00  0.00     0.251 C 
ATOM     79  H   UNL A   1      45.086  21.670  26.654  1.00  0.00     0.163 HD
ATOM     80  O   UNL A   1      46.873  23.240  26.159  1.00  0.00    -0.269 OA
BRANCH  78  81
ATOM     81  C   UNL A   1      45.535  24.940  27.058  1.00  0.00     0.039 A 
ATOM     82  C   UNL A   1      45.850  25.322  28.365  1.00  0.00    -0.049 A 
ATOM     83  C   UNL A   1      44.967  25.862  26.172  1.00  0.00    -0.049 A 
ATOM     84  C   UNL A   1      45.645  26.643  28.768  1.00  0.00    -0.053 A 
ATOM     85  H   UNL A   1      46.233  24.631  29.028  1.00  0.00     0.063 H 
ATOM     86  C   UNL A   1      44.823  27.192  26.555  1.00  0.00    -0.053 A 
ATOM     87  H   UNL A   1      44.657  25.556  25.237  1.00  0.00     0.063 H 
ATOM     88  C   UNL A   1      45.156  27.594  27.858  1.00  0.00    -0.014 A 
ATOM     89  H   UNL A   1      45.854  26.921  29.739  1.00  0.00     0.063 H 
ATOM     90  H   UNL A   1      44.471  27.885  25.877  1.00  0.00     0.063 H 
BRANCH  88  91
ATOM     91  C   UNL A   1      44.978  29.014  28.252  1.00  0.00     0.031 A 
ATOM     92  C   UNL A   1      43.693  29.464  28.887  1.00  0.00     0.074 A 
ATOM     93  C   UNL A   1      45.948  29.906  27.976  1.00  0.00     0.049 A 
ATOM     94  N   UNL A   1      43.318  30.671  29.230  1.00  0.00    -0.248 NA
ATOM     95  C   UNL A   1      42.686  28.425  29.150  1.00  0.00    -0.034 C 
ATOM     96  C   UNL A   1      47.219  29.598  27.320  1.00  0.00    -0.036 A 
ATOM     97  N   UNL A   1      46.010  31.259  28.200  1.00  0.00    -0.354 N 
ATOM     98  C   UNL A   1      42.029  30.538  29.730  1.00  0.00     0.074 A 
ATOM     99  C   UNL A   1      41.668  29.142  29.604  1.00  0.00    -0.034 C 
ATOM    100  H   UNL A   1      42.753  27.404  29.016  1.00  0.00     0.065 H 
ATOM    101  C   UNL A   1      47.941  30.724  27.210  1.00  0.00    -0.036 A 
ATOM    102  H   UNL A   1      47.514  28.664  26.995  1.00  0.00     0.065 H 
ATOM    103  C   UNL A   1      47.171  31.839  27.753  1.00  0.00     0.049 A 
ATOM    104  H   UNL A   1      45.289  31.765  28.639  1.00  0.00     0.167 HD
ATOM    105  C   UNL A   1      41.229  31.490  30.266  1.00  0.00     0.037 A 
ATOM    106  H   UNL A   1      40.739  28.755  29.838  1.00  0.00     0.065 H 
ATOM    107  H   UNL A   1      48.889  30.791  26.805  1.00  0.00     0.065 H 
ATOM    108  C   UNL A   1      47.566  33.126  27.772  1.00  0.00     0.037 A 
ATOM    109  C   UNL A   1      41.605  32.871  30.418  1.00  0.00     0.049 A 
ATOM    110  C   UNL A   1      46.659  34.163  28.378  1.00  0.00     0.074 A 
ATOM    111  C   UNL A   1      40.890  33.900  31.005  1.00  0.00    -0.036 A 
ATOM    112  N   UNL A   1      42.802  33.415  29.979  1.00  0.00    -0.354 N 
ATOM    113  N   UNL A   1      45.470  34.013  28.909  1.00  0.00    -0.248 NA
ATOM    114  C   UNL A   1      47.154  35.547  28.396  1.00  0.00    -0.034 C 
ATOM    115  C   UNL A   1      41.637  35.076  30.885  1.00  0.00    -0.036 A 
ATOM    116  H   UNL A   1      39.964  33.814  31.454  1.00  0.00     0.065 H 
ATOM    117  C   UNL A   1      42.837  34.770  30.265  1.00  0.00     0.049 A 
ATOM    118  H   UNL A   1      43.520  32.914  29.530  1.00  0.00     0.167 HD
ATOM    119  C   UNL A   1      45.086  35.272  29.349  1.00  0.00     0.074 A 
ATOM    120  C   UNL A   1      46.176  36.173  29.035  1.00  0.00    -0.034 C 
ATOM    121  H   UNL A   1      48.031  35.929  28.011  1.00  0.00     0.065 H 
ATOM    122  H   UNL A   1      41.342  36.013  31.203  1.00  0.00     0.065 H 
ATOM    123  C   UNL A   1      43.936  35.650  29.957  1.00  0.00     0.037 A 
ATOM    124  H   UNL A   1      46.191  37.176  29.279  1.00  0.00     0.065 H 
BRANCH 105 125
ATOM    125  C   UNL A   1      39.866  31.072  30.735  1.00  0.00     0.064 A 
ATOM    126  C   UNL A   1      39.655  30.578  32.031  1.00  0.00     0.173 A 
ATOM    127  C   UNL A   1      38.750  31.212  29.897  1.00  0.00     0.173 A 
ATOM    128  F   UNL A   1      40.690  30.414  32.868  1.00  0.00    -0.203 F 
ATOM    129  C   UNL A   1      38.381  30.218  32.463  1.00  0.00     0.198 A 
ATOM    130  C   UNL A   1      37.472  30.879  30.341  1.00  0.00     0.198 A 
ATOM    131  F   UNL A   1      38.894  31.685  28.650  1.00  0.00    -0.203 F 
ATOM    132  F   UNL A   1      38.210  29.708  33.690  1.00  0.00    -0.200 F 
ATOM    133  C   UNL A   1      37.290  30.376  31.621  1.00  0.00     0.200 A 
ATOM    134  F   UNL A   1      36.418  31.044  29.532  1.00  0.00    -0.200 F 
ATOM    135  F   UNL A   1      36.064  30.039  32.041  1.00  0.00    -0.200 F 
ENDBRANCH 105 125
BRANCH 108 136
ATOM    136  C   UNL A   1      48.891  33.507  27.218  1.00  0.00     0.064 A 
ATOM    137  C   UNL A   1      50.070  33.247  27.931  1.00  0.00     0.173 A 
ATOM    138  C   UNL A   1      49.007  34.144  25.974  1.00  0.00     0.173 A 
ATOM    139  F   UNL A   1      50.008  32.658  29.133  1.00  0.00    -0.203 F 
ATOM    140  C   UNL A   1      51.313  33.633  27.432  1.00  0.00     0.198 A 
ATOM    141  C   UNL A   1      50.252  34.504  25.463  1.00  0.00     0.198 A 
ATOM    142  F   UNL A   1      47.910  34.410  25.250  1.00  0.00    -0.203 F 
ATOM    143  F   UNL A   1      52.419  33.417  28.156  1.00  0.00    -0.200 F 
ATOM    144  C   UNL A   1      51.403  34.257  26.197  1.00  0.00     0.200 A 
ATOM    145  F   UNL A   1      50.336  35.094  24.263  1.00  0.00    -0.200 F 
ATOM    146  F   UNL A   1      52.598  34.628  25.716  1.00  0.00    -0.200 F 
ENDBRANCH 108 136
BRANCH 123 147
ATOM    147  C   UNL A   1      43.810  37.090  30.359  1.00  0.00     0.064 A 
ATOM    148  C   UNL A   1      44.141  37.524  31.651  1.00  0.00     0.173 A 
ATOM    149  C   UNL A   1      43.393  38.052  29.427  1.00  0.00     0.173 A 
ATOM    150  F   UNL A   1      44.531  36.640  32.582  1.00  0.00    -0.203 F 
ATOM    151  C   UNL A   1      44.035  38.868  32.001  1.00  0.00     0.198 A 
ATOM    152  C   UNL A   1      43.316  39.398  29.773  1.00  0.00     0.198 A 
ATOM    153  F   UNL A   1      43.071  37.687  28.177  1.00  0.00    -0.203 F 
ATOM    154  F   UNL A   1      44.313  39.255  33.254  1.00  0.00    -0.200 F 
ATOM    155  C   UNL A   1      43.631  39.803  31.061  1.00  0.00     0.200 A 
ATOM    156  F   UNL A   1      42.937  40.302  28.860  1.00  0.00    -0.200 F 
ATOM    157  F   UNL A   1      43.537  41.097  31.398  1.00  0.00    -0.200 F 
ENDBRANCH 123 147
ENDBRANCH  88  91
ENDBRANCH  78  81
ENDBRANCH  74  77
ENDBRANCH  71  74
ENDBRANCH  68  71
ENDBRANCH  65  68
ENDBRANCH   1  65
TORSDOF 22
ENDMDL
MODEL 9
REMARK VINA RESULT:      -9.2      3.797     11.766
REMARK SMILES COc1ccc([C@H]2CC(c3ccc(S(C)(=O)=O)cc3)=NN2c2ccc(C(=O)NCCCCCCNC(=O)c3ccc(-c4c5nc(c(-c6c(F)c(F)c(F)c(F)c6F)c6ccc([nH]6)c(-c6c(F)c(F)c(F)c(F)c6F)c6nc(c(-c7c(F)c(F)c(F)c(F)c7F)c7ccc4[nH]7)C=C6)C=C5)cc3)cc2)cc1OC
REMARK SMILES IDX 30 1 29 4 28 7 26 8 27 9 25 11 22 12 23 13 102 14 24 15
REMARK SMILES IDX 101 17 21 21 7 22 8 23 9 25 20 28 6 29 3 30 4 31 104 32 5 33
REMARK SMILES IDX 103 35 2 38 1 39 105 43 106 44 10 48 11 49 19 50 12 51 18 53
REMARK SMILES IDX 13 55 14 58 16 59 17 60 15 61 31 65 32 68 33 71 34 74 35 77
REMARK SMILES IDX 36 78 37 80 38 81 39 82 100 83 40 84 99 86 41 88 42 91 43 92
REMARK SMILES IDX 93 93 44 94 98 95 92 96 94 97 45 98 97 99 91 101 90 103
REMARK SMILES IDX 46 105 78 108 58 109 77 110 59 111 62 112 76 113 95 114
REMARK SMILES IDX 60 115 61 117 75 119 96 120 63 123 47 125 48 126 56 127
REMARK SMILES IDX 49 128 50 129 54 130 57 131 51 132 52 133 55 134 53 135
REMARK SMILES IDX 79 136 80 137 88 138 81 139 82 140 86 141 89 142 83 143
REMARK SMILES IDX 84 144 87 145 85 146 64 147 65 148 73 149 66 150 67 151
REMARK SMILES IDX 71 152 74 153 68 154 69 155 72 156 70 157
REMARK H PARENT 30 2 30 3 29 5 29 6 28 10 23 16 102 18 24 19 101 20 7 24 8 26
REMARK H PARENT 8 27 4 34 5 36 103 37 1 40 1 41 1 42 106 45 106 46 106 47
REMARK H PARENT 11 52 19 54 12 56 18 57 15 62 15 63 15 64 31 66 31 67 32 69
REMARK H PARENT 32 70 33 72 33 73 34 75 34 76 35 79 39 85 100 87 40 89 99 90
REMARK H PARENT 98 100 92 102 94 104 97 106 91 107 59 116 62 118 95 121 60 122
REMARK H PARENT 96 124
REMARK Flexibility Score: inf
ROOT
ATOM      1  C   UNL A   1      44.172  24.680  27.607  1.00  0.00    -0.036 C 
ATOM      2  H   UNL A   1      44.588  24.125  28.421  1.00  0.00     0.028 H 
ATOM      3  H   UNL A   1      44.841  25.438  27.257  1.00  0.00     0.028 H 
ENDROOT
BRANCH   1   4
ATOM      4  C   UNL A   1      42.901  25.381  28.095  1.00  0.00     0.018 C 
ATOM      5  H   UNL A   1      42.621  24.986  29.049  1.00  0.00     0.049 H 
ATOM      6  H   UNL A   1      43.086  26.431  28.180  1.00  0.00     0.049 H 
BRANCH   4   7
ATOM      7  N   UNL A   1      41.827  25.158  27.149  1.00  0.00    -0.352 N 
ATOM      8  C   UNL A   1      40.594  25.735  26.999  1.00  0.00     0.251 C 
ATOM      9  O   UNL A   1      39.870  25.303  26.101  1.00  0.00    -0.269 OA
ATOM     10  H   UNL A   1      42.021  24.457  26.486  1.00  0.00     0.163 HD
BRANCH   8  11
ATOM     11  C   UNL A   1      40.129  26.889  27.816  1.00  0.00     0.039 A 
ATOM     12  C   UNL A   1      39.055  28.944  29.430  1.00  0.00     0.060 A 
ATOM     13  C   UNL A   1      38.935  27.602  29.806  1.00  0.00    -0.036 A 
ATOM     14  C   UNL A   1      39.776  29.248  28.276  1.00  0.00    -0.036 A 
ATOM     15  C   UNL A   1      39.449  26.584  29.000  1.00  0.00    -0.047 A 
ATOM     16  H   UNL A   1      38.461  27.362  30.690  1.00  0.00     0.065 H 
ATOM     17  C   UNL A   1      40.346  28.233  27.497  1.00  0.00    -0.047 A 
ATOM     18  H   UNL A   1      39.892  30.234  27.991  1.00  0.00     0.065 H 
ATOM     19  H   UNL A   1      39.325  25.599  29.280  1.00  0.00     0.063 H 
ATOM     20  H   UNL A   1      40.929  28.478  26.682  1.00  0.00     0.063 H 
BRANCH  12  21
ATOM     21  N   UNL A   1      38.491  29.932  30.215  1.00  0.00    -0.257 N 
ATOM     22  C   UNL A   1      37.946  31.191  29.708  1.00  0.00     0.083 C 
ATOM     23  C   UNL A   1      37.647  31.966  30.999  1.00  0.00     0.019 C 
ATOM     24  H   UNL A   1      38.612  31.709  29.051  1.00  0.00     0.061 H 
ATOM     25  C   UNL A   1      38.139  30.979  32.020  1.00  0.00     0.071 C 
ATOM     26  H   UNL A   1      36.601  32.164  31.110  1.00  0.00     0.036 H 
ATOM     27  H   UNL A   1      38.098  32.935  31.056  1.00  0.00     0.036 H 
ATOM     28  N   UNL A   1      38.621  29.869  31.561  1.00  0.00    -0.176 NA
BRANCH  22  29
ATOM     29  C   UNL A   1      36.701  30.972  28.864  1.00  0.00    -0.019 A 
ATOM     30  C   UNL A   1      34.376  30.588  27.312  1.00  0.00     0.160 A 
ATOM     31  C   UNL A   1      35.288  29.540  27.504  1.00  0.00    -0.016 A 
ATOM     32  C   UNL A   1      34.603  31.831  27.909  1.00  0.00     0.161 A 
ATOM     33  C   UNL A   1      36.445  29.731  28.267  1.00  0.00    -0.053 A 
ATOM     34  H   UNL A   1      35.104  28.618  27.079  1.00  0.00     0.066 H 
ATOM     35  C   UNL A   1      35.765  32.005  28.674  1.00  0.00    -0.011 A 
ATOM     36  H   UNL A   1      37.113  28.954  28.391  1.00  0.00     0.063 H 
ATOM     37  H   UNL A   1      35.941  32.923  29.112  1.00  0.00     0.067 H 
BRANCH  30  38
ATOM     38  O   UNL A   1      33.225  30.323  26.620  1.00  0.00    -0.493 OA
BRANCH  38  39
ATOM     39  C   UNL A   1      33.322  29.110  25.873  1.00  0.00     0.078 C 
ATOM     40  H   UNL A   1      32.623  29.132  25.063  1.00  0.00     0.067 H 
ATOM     41  H   UNL A   1      33.102  28.279  26.512  1.00  0.00     0.067 H 
ATOM     42  H   UNL A   1      34.314  29.009  25.485  1.00  0.00     0.067 H 
ENDBRANCH  38  39
ENDBRANCH  30  38
BRANCH  32  43
ATOM     43  O   UNL A   1      33.826  32.956  27.876  1.00  0.00    -0.493 OA
BRANCH  43  44
ATOM     44  C   UNL A   1      34.458  34.223  27.922  1.00  0.00     0.078 C 
ATOM     45  H   UNL A   1      35.479  34.103  28.219  1.00  0.00     0.067 H 
ATOM     46  H   UNL A   1      33.954  34.849  28.629  1.00  0.00     0.067 H 
ATOM     47  H   UNL A   1      34.419  34.677  26.954  1.00  0.00     0.067 H 
ENDBRANCH  43  44
ENDBRANCH  32  43
ENDBRANCH  22  29
BRANCH  25  48
ATOM     48  C   UNL A   1      38.117  31.289  33.451  1.00  0.00    -0.002 A 
ATOM     49  C   UNL A   1      38.849  30.477  34.321  1.00  0.00    -0.052 A 
ATOM     50  C   UNL A   1      37.342  32.348  33.930  1.00  0.00    -0.052 A 
ATOM     51  C   UNL A   1      38.825  30.736  35.690  1.00  0.00    -0.043 A 
ATOM     52  H   UNL A   1      39.404  29.689  33.952  1.00  0.00     0.063 H 
ATOM     53  C   UNL A   1      37.296  32.594  35.303  1.00  0.00    -0.043 A 
ATOM     54  H   UNL A   1      36.810  32.942  33.276  1.00  0.00     0.063 H 
ATOM     55  C   UNL A   1      38.036  31.786  36.175  1.00  0.00     0.067 A 
ATOM     56  H   UNL A   1      39.385  30.161  36.340  1.00  0.00     0.064 H 
ATOM     57  H   UNL A   1      36.721  33.366  35.674  1.00  0.00     0.064 H 
BRANCH  55  58
ATOM     58  S   UNL A   1      37.999  32.099  37.924  1.00  0.00     0.175 S 
ATOM     59  O   UNL A   1      37.301  30.982  38.532  1.00  0.00    -0.224 OA
ATOM     60  O   UNL A   1      39.345  32.453  38.336  1.00  0.00    -0.224 OA
BRANCH  58  61
ATOM     61  C   UNL A   1      36.990  33.549  38.086  1.00  0.00     0.043 C 
ATOM     62  H   UNL A   1      37.509  34.392  37.681  1.00  0.00     0.040 H 
ATOM     63  H   UNL A   1      36.780  33.724  39.121  1.00  0.00     0.040 H 
ATOM     64  H   UNL A   1      36.071  33.407  37.555  1.00  0.00     0.040 H 
ENDBRANCH  58  61
ENDBRANCH  55  58
ENDBRANCH  25  48
ENDBRANCH  12  21
ENDBRANCH   8  11
ENDBRANCH   4   7
ENDBRANCH   1   4
BRANCH   1  65
ATOM     65  C   UNL A   1      43.914  23.718  26.439  1.00  0.00    -0.052 C 
ATOM     66  H   UNL A   1      42.878  23.778  26.179  1.00  0.00     0.027 H 
ATOM     67  H   UNL A   1      44.206  22.746  26.779  1.00  0.00     0.027 H 
BRANCH  65  68
ATOM     68  C   UNL A   1      44.742  24.005  25.180  1.00  0.00    -0.052 C 
ATOM     69  H   UNL A   1      44.752  25.062  25.023  1.00  0.00     0.027 H 
ATOM     70  H   UNL A   1      44.274  23.462  24.384  1.00  0.00     0.027 H 
BRANCH  68  71
ATOM     71  C   UNL A   1      46.192  23.518  25.236  1.00  0.00    -0.036 C 
ATOM     72  H   UNL A   1      46.462  23.155  24.267  1.00  0.00     0.028 H 
ATOM     73  H   UNL A   1      46.232  22.761  25.991  1.00  0.00     0.028 H 
BRANCH  71  74
ATOM     74  C   UNL A   1      47.198  24.592  25.642  1.00  0.00     0.018 C 
ATOM     75  H   UNL A   1      48.119  24.118  25.914  1.00  0.00     0.049 H 
ATOM     76  H   UNL A   1      46.789  25.137  26.467  1.00  0.00     0.049 H 
BRANCH  74  77
ATOM     77  N   UNL A   1      47.451  25.528  24.559  1.00  0.00    -0.352 N 
ATOM     78  C   UNL A   1      47.072  26.842  24.442  1.00  0.00     0.251 C 
ATOM     79  H   UNL A   1      47.967  25.169  23.802  1.00  0.00     0.163 HD
ATOM     80  O   UNL A   1      47.174  27.423  23.367  1.00  0.00    -0.269 OA
BRANCH  78  81
ATOM     81  C   UNL A   1      46.528  27.556  25.615  1.00  0.00     0.039 A 
ATOM     82  C   UNL A   1      47.414  28.074  26.564  1.00  0.00    -0.049 A 
ATOM     83  C   UNL A   1      45.147  27.695  25.791  1.00  0.00    -0.049 A 
ATOM     84  C   UNL A   1      46.917  28.776  27.664  1.00  0.00    -0.053 A 
ATOM     85  H   UNL A   1      48.430  27.937  26.452  1.00  0.00     0.063 H 
ATOM     86  C   UNL A   1      44.656  28.450  26.852  1.00  0.00    -0.053 A 
ATOM     87  H   UNL A   1      44.494  27.239  25.135  1.00  0.00     0.063 H 
ATOM     88  C   UNL A   1      45.536  28.993  27.801  1.00  0.00    -0.014 A 
ATOM     89  H   UNL A   1      47.568  29.138  28.378  1.00  0.00     0.063 H 
ATOM     90  H   UNL A   1      43.641  28.611  26.941  1.00  0.00     0.063 H 
BRANCH  88  91
ATOM     91  C   UNL A   1      44.992  29.780  28.936  1.00  0.00     0.031 A 
ATOM     92  C   UNL A   1      44.867  31.274  28.826  1.00  0.00     0.074 A 
ATOM     93  C   UNL A   1      44.673  29.156  30.085  1.00  0.00     0.049 A 
ATOM     94  N   UNL A   1      44.489  32.141  29.731  1.00  0.00    -0.248 NA
ATOM     95  C   UNL A   1      45.240  31.875  27.536  1.00  0.00    -0.034 C 
ATOM     96  C   UNL A   1      44.795  27.717  30.328  1.00  0.00    -0.036 A 
ATOM     97  N   UNL A   1      44.195  29.652  31.271  1.00  0.00    -0.354 N 
ATOM     98  C   UNL A   1      44.596  33.388  29.127  1.00  0.00     0.074 A 
ATOM     99  C   UNL A   1      45.117  33.170  27.795  1.00  0.00    -0.034 C 
ATOM    100  H   UNL A   1      45.523  31.412  26.658  1.00  0.00     0.065 H 
ATOM    101  C   UNL A   1      44.387  27.447  31.577  1.00  0.00    -0.036 A 
ATOM    102  H   UNL A   1      45.139  27.022  29.647  1.00  0.00     0.065 H 
ATOM    103  C   UNL A   1      44.009  28.693  32.236  1.00  0.00     0.049 A 
ATOM    104  H   UNL A   1      44.003  30.607  31.417  1.00  0.00     0.167 HD
ATOM    105  C   UNL A   1      44.267  34.601  29.631  1.00  0.00     0.037 A 
ATOM    106  H   UNL A   1      45.362  33.923  27.132  1.00  0.00     0.065 H 
ATOM    107  H   UNL A   1      44.347  26.507  32.004  1.00  0.00     0.065 H 
ATOM    108  C   UNL A   1      43.589  28.808  33.510  1.00  0.00     0.037 A 
ATOM    109  C   UNL A   1      43.718  34.809  30.945  1.00  0.00     0.049 A 
ATOM    110  C   UNL A   1      43.225  30.168  34.042  1.00  0.00     0.074 A 
ATOM    111  C   UNL A   1      43.295  35.992  31.525  1.00  0.00    -0.036 A 
ATOM    112  N   UNL A   1      43.517  33.809  31.883  1.00  0.00    -0.354 N 
ATOM    113  N   UNL A   1      43.267  31.331  33.439  1.00  0.00    -0.248 NA
ATOM    114  C   UNL A   1      42.747  30.230  35.431  1.00  0.00    -0.034 C 
ATOM    115  C   UNL A   1      42.875  35.713  32.830  1.00  0.00    -0.036 A 
ATOM    116  H   UNL A   1      43.289  36.919  31.073  1.00  0.00     0.065 H 
ATOM    117  C   UNL A   1      42.993  34.350  33.046  1.00  0.00     0.049 A 
ATOM    118  H   UNL A   1      43.718  32.854  31.745  1.00  0.00     0.167 HD
ATOM    119  C   UNL A   1      42.796  32.257  34.360  1.00  0.00     0.074 A 
ATOM    120  C   UNL A   1      42.460  31.517  35.559  1.00  0.00    -0.034 C 
ATOM    121  H   UNL A   1      42.660  29.470  36.123  1.00  0.00     0.065 H 
ATOM    122  H   UNL A   1      42.537  36.406  33.516  1.00  0.00     0.065 H 
ATOM    123  C   UNL A   1      42.653  33.597  34.226  1.00  0.00     0.037 A 
ATOM    124  H   UNL A   1      42.048  31.939  36.407  1.00  0.00     0.065 H 
BRANCH 105 125
ATOM    125  C   UNL A   1      44.485  35.801  28.757  1.00  0.00     0.064 A 
ATOM    126  C   UNL A   1      45.734  36.436  28.678  1.00  0.00     0.173 A 
ATOM    127  C   UNL A   1      43.447  36.294  27.953  1.00  0.00     0.173 A 
ATOM    128  F   UNL A   1      46.756  36.011  29.435  1.00  0.00    -0.203 F 
ATOM    129  C   UNL A   1      45.929  37.534  27.844  1.00  0.00     0.198 A 
ATOM    130  C   UNL A   1      43.653  37.375  27.098  1.00  0.00     0.198 A 
ATOM    131  F   UNL A   1      42.234  35.722  27.985  1.00  0.00    -0.203 F 
ATOM    132  F   UNL A   1      47.118  38.150  27.817  1.00  0.00    -0.200 F 
ATOM    133  C   UNL A   1      44.891  37.997  27.049  1.00  0.00     0.200 A 
ATOM    134  F   UNL A   1      42.653  37.813  26.320  1.00  0.00    -0.200 F 
ATOM    135  F   UNL A   1      45.083  39.047  26.239  1.00  0.00    -0.200 F 
ENDBRANCH 105 125
BRANCH 108 136
ATOM    136  C   UNL A   1      43.469  27.600  34.366  1.00  0.00     0.064 A 
ATOM    137  C   UNL A   1      42.242  26.935  34.505  1.00  0.00     0.173 A 
ATOM    138  C   UNL A   1      44.570  27.091  35.069  1.00  0.00     0.173 A 
ATOM    139  F   UNL A   1      41.156  27.397  33.867  1.00  0.00    -0.203 F 
ATOM    140  C   UNL A   1      42.116  25.823  35.334  1.00  0.00     0.198 A 
ATOM    141  C   UNL A   1      44.450  25.961  35.876  1.00  0.00     0.198 A 
ATOM    142  F   UNL A   1      45.767  27.687  34.967  1.00  0.00    -0.203 F 
ATOM    143  F   UNL A   1      40.920  25.236  35.486  1.00  0.00    -0.200 F 
ATOM    144  C   UNL A   1      43.220  25.333  36.015  1.00  0.00     0.200 A 
ATOM    145  F   UNL A   1      45.522  25.484  36.521  1.00  0.00    -0.200 F 
ATOM    146  F   UNL A   1      43.099  24.263  36.812  1.00  0.00    -0.200 F 
ENDBRANCH 108 136
BRANCH 123 147
ATOM    147  C   UNL A   1      42.076  34.348  35.390  1.00  0.00     0.064 A 
ATOM    148  C   UNL A   1      40.711  34.658  35.461  1.00  0.00     0.173 A 
ATOM    149  C   UNL A   1      42.894  34.724  36.466  1.00  0.00     0.173 A 
ATOM    150  F   UNL A   1      39.891  34.333  34.450  1.00  0.00    -0.203 F 
ATOM    151  C   UNL A   1      40.189  35.341  36.557  1.00  0.00     0.198 A 
ATOM    152  C   UNL A   1      42.364  35.381  37.573  1.00  0.00     0.198 A 
ATOM    153  F   UNL A   1      44.206  34.445  36.448  1.00  0.00    -0.203 F 
ATOM    154  F   UNL A   1      38.890  35.667  36.583  1.00  0.00    -0.200 F 
ATOM    155  C   UNL A   1      41.013  35.694  37.614  1.00  0.00     0.200 A 
ATOM    156  F   UNL A   1      43.159  35.710  38.600  1.00  0.00    -0.200 F 
ATOM    157  F   UNL A   1      40.508  36.343  38.672  1.00  0.00    -0.200 F 
ENDBRANCH 123 147
ENDBRANCH  88  91
ENDBRANCH  78  81
ENDBRANCH  74  77
ENDBRANCH  71  74
ENDBRANCH  68  71
ENDBRANCH  65  68
ENDBRANCH   1  65
TORSDOF 22
ENDMDL
MODEL 10
REMARK VINA RESULT:      -9.2      4.108     10.338
REMARK SMILES COc1ccc([C@H]2CC(c3ccc(S(C)(=O)=O)cc3)=NN2c2ccc(C(=O)NCCCCCCNC(=O)c3ccc(-c4c5nc(c(-c6c(F)c(F)c(F)c(F)c6F)c6ccc([nH]6)c(-c6c(F)c(F)c(F)c(F)c6F)c6nc(c(-c7c(F)c(F)c(F)c(F)c7F)c7ccc4[nH]7)C=C6)C=C5)cc3)cc2)cc1OC
REMARK SMILES IDX 30 1 29 4 28 7 26 8 27 9 25 11 22 12 23 13 102 14 24 15
REMARK SMILES IDX 101 17 21 21 7 22 8 23 9 25 20 28 6 29 3 30 4 31 104 32 5 33
REMARK SMILES IDX 103 35 2 38 1 39 105 43 106 44 10 48 11 49 19 50 12 51 18 53
REMARK SMILES IDX 13 55 14 58 16 59 17 60 15 61 31 65 32 68 33 71 34 74 35 77
REMARK SMILES IDX 36 78 37 80 38 81 39 82 100 83 40 84 99 86 41 88 42 91 43 92
REMARK SMILES IDX 93 93 44 94 98 95 92 96 94 97 45 98 97 99 91 101 90 103
REMARK SMILES IDX 46 105 78 108 58 109 77 110 59 111 62 112 76 113 95 114
REMARK SMILES IDX 60 115 61 117 75 119 96 120 63 123 47 125 48 126 56 127
REMARK SMILES IDX 49 128 50 129 54 130 57 131 51 132 52 133 55 134 53 135
REMARK SMILES IDX 79 136 80 137 88 138 81 139 82 140 86 141 89 142 83 143
REMARK SMILES IDX 84 144 87 145 85 146 64 147 65 148 73 149 66 150 67 151
REMARK SMILES IDX 71 152 74 153 68 154 69 155 72 156 70 157
REMARK H PARENT 30 2 30 3 29 5 29 6 28 10 23 16 102 18 24 19 101 20 7 24 8 26
REMARK H PARENT 8 27 4 34 5 36 103 37 1 40 1 41 1 42 106 45 106 46 106 47
REMARK H PARENT 11 52 19 54 12 56 18 57 15 62 15 63 15 64 31 66 31 67 32 69
REMARK H PARENT 32 70 33 72 33 73 34 75 34 76 35 79 39 85 100 87 40 89 99 90
REMARK H PARENT 98 100 92 102 94 104 97 106 91 107 59 116 62 118 95 121 60 122
REMARK H PARENT 96 124
REMARK Flexibility Score: inf
ROOT
ATOM      1  C   UNL A   1      43.725  24.282  24.999  1.00  0.00    -0.036 C 
ATOM      2  H   UNL A   1      44.037  24.138  23.986  1.00  0.00     0.028 H 
ATOM      3  H   UNL A   1      42.742  24.700  25.057  1.00  0.00     0.028 H 
ENDROOT
BRANCH   1   4
ATOM      4  C   UNL A   1      44.683  25.272  25.667  1.00  0.00     0.018 C 
ATOM      5  H   UNL A   1      44.902  26.069  24.988  1.00  0.00     0.049 H 
ATOM      6  H   UNL A   1      44.226  25.666  26.550  1.00  0.00     0.049 H 
BRANCH   4   7
ATOM      7  N   UNL A   1      45.912  24.594  26.026  1.00  0.00    -0.352 N 
ATOM      8  C   UNL A   1      46.514  24.349  27.232  1.00  0.00     0.251 C 
ATOM      9  O   UNL A   1      47.597  23.764  27.217  1.00  0.00    -0.269 OA
ATOM     10  H   UNL A   1      46.411  24.241  25.254  1.00  0.00     0.163 HD
BRANCH   8  11
ATOM     11  C   UNL A   1      45.890  24.693  28.539  1.00  0.00     0.039 A 
ATOM     12  C   UNL A   1      44.931  25.353  31.113  1.00  0.00     0.060 A 
ATOM     13  C   UNL A   1      46.128  25.895  30.634  1.00  0.00    -0.036 A 
ATOM     14  C   UNL A   1      44.188  24.533  30.264  1.00  0.00    -0.036 A 
ATOM     15  C   UNL A   1      46.614  25.556  29.370  1.00  0.00    -0.047 A 
ATOM     16  H   UNL A   1      46.659  26.555  31.224  1.00  0.00     0.065 H 
ATOM     17  C   UNL A   1      44.641  24.239  28.971  1.00  0.00    -0.047 A 
ATOM     18  H   UNL A   1      43.292  24.138  30.591  1.00  0.00     0.065 H 
ATOM     19  H   UNL A   1      47.512  25.944  29.047  1.00  0.00     0.063 H 
ATOM     20  H   UNL A   1      44.049  23.683  28.334  1.00  0.00     0.063 H 
BRANCH  12  21
ATOM     21  N   UNL A   1      44.497  25.659  32.389  1.00  0.00    -0.257 N 
ATOM     22  C   UNL A   1      44.145  24.674  33.410  1.00  0.00     0.083 C 
ATOM     23  C   UNL A   1      43.558  25.548  34.527  1.00  0.00     0.019 C 
ATOM     24  H   UNL A   1      43.466  23.924  33.062  1.00  0.00     0.061 H 
ATOM     25  C   UNL A   1      43.654  26.902  33.880  1.00  0.00     0.071 C 
ATOM     26  H   UNL A   1      44.142  25.495  35.422  1.00  0.00     0.036 H 
ATOM     27  H   UNL A   1      42.574  25.271  34.845  1.00  0.00     0.036 H 
ATOM     28  N   UNL A   1      44.158  26.935  32.688  1.00  0.00    -0.176 NA
BRANCH  22  29
ATOM     29  C   UNL A   1      45.356  23.880  33.874  1.00  0.00    -0.019 A 
ATOM     30  C   UNL A   1      47.585  22.385  34.745  1.00  0.00     0.160 A 
ATOM     31  C   UNL A   1      47.662  23.780  34.627  1.00  0.00    -0.016 A 
ATOM     32  C   UNL A   1      46.389  21.724  34.450  1.00  0.00     0.161 A 
ATOM     33  C   UNL A   1      46.560  24.522  34.188  1.00  0.00    -0.053 A 
ATOM     34  H   UNL A   1      48.541  24.265  34.867  1.00  0.00     0.066 H 
ATOM     35  C   UNL A   1      45.293  22.481  34.015  1.00  0.00    -0.011 A 
ATOM     36  H   UNL A   1      46.635  25.547  34.095  1.00  0.00     0.063 H 
ATOM     37  H   UNL A   1      44.410  21.997  33.791  1.00  0.00     0.067 H 
BRANCH  30  38
ATOM     38  O   UNL A   1      48.668  21.719  35.250  1.00  0.00    -0.493 OA
BRANCH  38  39
ATOM     39  C   UNL A   1      49.584  21.337  34.223  1.00  0.00     0.078 C 
ATOM     40  H   UNL A   1      49.098  20.670  33.542  1.00  0.00     0.067 H 
ATOM     41  H   UNL A   1      50.427  20.846  34.663  1.00  0.00     0.067 H 
ATOM     42  H   UNL A   1      49.913  22.208  33.697  1.00  0.00     0.067 H 
ENDBRANCH  38  39
ENDBRANCH  30  38
BRANCH  32  43
ATOM     43  O   UNL A   1      46.101  20.390  34.537  1.00  0.00    -0.493 OA
BRANCH  43  44
ATOM     44  C   UNL A   1      45.655  19.868  35.777  1.00  0.00     0.078 C 
ATOM     45  H   UNL A   1      45.562  20.663  36.487  1.00  0.00     0.067 H 
ATOM     46  H   UNL A   1      46.363  19.151  36.138  1.00  0.00     0.067 H 
ATOM     47  H   UNL A   1      44.705  19.394  35.644  1.00  0.00     0.067 H 
ENDBRANCH  43  44
ENDBRANCH  32  43
ENDBRANCH  22  29
BRANCH  25  48
ATOM     48  C   UNL A   1      43.153  28.104  34.551  1.00  0.00    -0.002 A 
ATOM     49  C   UNL A   1      44.011  29.198  34.686  1.00  0.00    -0.052 A 
ATOM     50  C   UNL A   1      41.861  28.128  35.080  1.00  0.00    -0.052 A 
ATOM     51  C   UNL A   1      43.567  30.346  35.341  1.00  0.00    -0.043 A 
ATOM     52  H   UNL A   1      44.968  29.158  34.302  1.00  0.00     0.063 H 
ATOM     53  C   UNL A   1      41.423  29.266  35.760  1.00  0.00    -0.043 A 
ATOM     54  H   UNL A   1      41.237  27.314  34.969  1.00  0.00     0.063 H 
ATOM     55  C   UNL A   1      42.279  30.367  35.887  1.00  0.00     0.067 A 
ATOM     56  H   UNL A   1      44.181  31.172  35.421  1.00  0.00     0.064 H 
ATOM     57  H   UNL A   1      40.474  29.296  36.165  1.00  0.00     0.064 H 
BRANCH  55  58
ATOM     58  S   UNL A   1      41.727  31.828  36.736  1.00  0.00     0.175 S 
ATOM     59  O   UNL A   1      41.903  31.577  38.153  1.00  0.00    -0.224 OA
ATOM     60  O   UNL A   1      42.352  32.970  36.095  1.00  0.00    -0.224 OA
BRANCH  58  61
ATOM     61  C   UNL A   1      39.988  31.903  36.388  1.00  0.00     0.043 C 
ATOM     62  H   UNL A   1      39.591  30.911  36.341  1.00  0.00     0.040 H 
ATOM     63  H   UNL A   1      39.833  32.395  35.450  1.00  0.00     0.040 H 
ATOM     64  H   UNL A   1      39.492  32.450  37.163  1.00  0.00     0.040 H 
ENDBRANCH  58  61
ENDBRANCH  55  58
ENDBRANCH  25  48
ENDBRANCH  12  21
ENDBRANCH   8  11
ENDBRANCH   4   7
ENDBRANCH   1   4
BRANCH   1  65
ATOM     65  C   UNL A   1      43.689  22.917  25.699  1.00  0.00    -0.052 C 
ATOM     66  H   UNL A   1      43.939  23.063  26.729  1.00  0.00     0.027 H 
ATOM     67  H   UNL A   1      44.387  22.294  25.181  1.00  0.00     0.027 H 
BRANCH  65  68
ATOM     68  C   UNL A   1      42.334  22.200  25.633  1.00  0.00    -0.052 C 
ATOM     69  H   UNL A   1      42.322  21.592  24.754  1.00  0.00     0.027 H 
ATOM     70  H   UNL A   1      41.589  22.968  25.628  1.00  0.00     0.027 H 
BRANCH  68  71
ATOM     71  C   UNL A   1      42.020  21.305  26.835  1.00  0.00    -0.036 C 
ATOM     72  H   UNL A   1      42.856  21.332  27.501  1.00  0.00     0.028 H 
ATOM     73  H   UNL A   1      41.829  20.326  26.446  1.00  0.00     0.028 H 
BRANCH  71  74
ATOM     74  C   UNL A   1      40.774  21.716  27.614  1.00  0.00     0.018 C 
ATOM     75  H   UNL A   1      40.979  22.625  28.141  1.00  0.00     0.049 H 
ATOM     76  H   UNL A   1      40.530  20.926  28.293  1.00  0.00     0.049 H 
BRANCH  74  77
ATOM     77  N   UNL A   1      39.635  21.927  26.736  1.00  0.00    -0.352 N 
ATOM     78  C   UNL A   1      38.917  23.074  26.508  1.00  0.00     0.251 C 
ATOM     79  H   UNL A   1      39.336  21.136  26.233  1.00  0.00     0.163 HD
ATOM     80  O   UNL A   1      37.848  23.027  25.909  1.00  0.00    -0.269 OA
BRANCH  78  81
ATOM     81  C   UNL A   1      39.428  24.370  26.999  1.00  0.00     0.039 A 
ATOM     82  C   UNL A   1      40.118  25.204  26.115  1.00  0.00    -0.049 A 
ATOM     83  C   UNL A   1      39.248  24.751  28.333  1.00  0.00    -0.049 A 
ATOM     84  C   UNL A   1      40.583  26.445  26.556  1.00  0.00    -0.053 A 
ATOM     85  H   UNL A   1      40.283  24.904  25.142  1.00  0.00     0.063 H 
ATOM     86  C   UNL A   1      39.654  26.015  28.753  1.00  0.00    -0.053 A 
ATOM     87  H   UNL A   1      38.814  24.098  29.003  1.00  0.00     0.063 H 
ATOM     88  C   UNL A   1      40.330  26.871  27.870  1.00  0.00    -0.014 A 
ATOM     89  H   UNL A   1      41.113  27.052  25.912  1.00  0.00     0.063 H 
ATOM     90  H   UNL A   1      39.458  26.322  29.718  1.00  0.00     0.063 H 
BRANCH  88  91
ATOM     91  C   UNL A   1      40.772  28.207  28.343  1.00  0.00     0.031 A 
ATOM     92  C   UNL A   1      42.237  28.511  28.480  1.00  0.00     0.074 A 
ATOM     93  C   UNL A   1      39.852  29.119  28.711  1.00  0.00     0.049 A 
ATOM     94  N   UNL A   1      42.818  29.587  28.948  1.00  0.00    -0.248 NA
ATOM     95  C   UNL A   1      43.173  27.457  28.059  1.00  0.00    -0.034 C 
ATOM     96  C   UNL A   1      38.402  28.922  28.667  1.00  0.00    -0.036 A 
ATOM     97  N   UNL A   1      40.000  30.389  29.207  1.00  0.00    -0.354 N 
ATOM     98  C   UNL A   1      44.183  29.333  28.894  1.00  0.00     0.074 A 
ATOM     99  C   UNL A   1      44.343  27.985  28.392  1.00  0.00    -0.034 C 
ATOM    100  H   UNL A   1      42.973  26.545  27.619  1.00  0.00     0.065 H 
ATOM    101  C   UNL A   1      37.795  30.038  29.102  1.00  0.00    -0.036 A 
ATOM    102  H   UNL A   1      37.923  28.065  28.351  1.00  0.00     0.065 H 
ATOM    103  C   UNL A   1      38.809  31.013  29.489  1.00  0.00     0.049 A 
ATOM    104  H   UNL A   1      40.877  30.813  29.349  1.00  0.00     0.167 HD
ATOM    105  C   UNL A   1      45.208  30.157  29.213  1.00  0.00     0.037 A 
ATOM    106  H   UNL A   1      45.249  27.498  28.305  1.00  0.00     0.065 H 
ATOM    107  H   UNL A   1      36.773  30.182  29.155  1.00  0.00     0.065 H 
ATOM    108  C   UNL A   1      38.565  32.230  30.009  1.00  0.00     0.037 A 
ATOM    109  C   UNL A   1      45.044  31.509  29.681  1.00  0.00     0.049 A 
ATOM    110  C   UNL A   1      39.724  33.129  30.349  1.00  0.00     0.074 A 
ATOM    111  C   UNL A   1      46.020  32.445  29.971  1.00  0.00    -0.036 A 
ATOM    112  N   UNL A   1      43.822  32.116  29.926  1.00  0.00    -0.354 N 
ATOM    113  N   UNL A   1      41.010  32.901  30.231  1.00  0.00    -0.248 NA
ATOM    114  C   UNL A   1      39.397  34.457  30.888  1.00  0.00    -0.034 C 
ATOM    115  C   UNL A   1      45.390  33.606  30.432  1.00  0.00    -0.036 A 
ATOM    116  H   UNL A   1      47.038  32.311  29.866  1.00  0.00     0.065 H 
ATOM    117  C   UNL A   1      44.020  33.408  30.383  1.00  0.00     0.049 A 
ATOM    118  H   UNL A   1      42.943  31.691  29.796  1.00  0.00     0.167 HD
ATOM    119  C   UNL A   1      41.643  34.063  30.651  1.00  0.00     0.074 A 
ATOM    120  C   UNL A   1      40.600  34.999  31.014  1.00  0.00    -0.034 C 
ATOM    121  H   UNL A   1      38.474  34.860  31.110  1.00  0.00     0.065 H 
ATOM    122  H   UNL A   1      45.866  34.463  30.754  1.00  0.00     0.065 H 
ATOM    123  C   UNL A   1      42.969  34.331  30.729  1.00  0.00     0.037 A 
ATOM    124  H   UNL A   1      40.770  35.967  31.330  1.00  0.00     0.065 H 
BRANCH 105 125
ATOM    125  C   UNL A   1      46.604  29.626  29.061  1.00  0.00     0.064 A 
ATOM    126  C   UNL A   1      47.267  29.647  27.825  1.00  0.00     0.173 A 
ATOM    127  C   UNL A   1      47.304  29.135  30.172  1.00  0.00     0.173 A 
ATOM    128  F   UNL A   1      46.638  30.095  26.728  1.00  0.00    -0.203 F 
ATOM    129  C   UNL A   1      48.571  29.174  27.703  1.00  0.00     0.198 A 
ATOM    130  C   UNL A   1      48.618  28.689  30.053  1.00  0.00     0.198 A 
ATOM    131  F   UNL A   1      46.718  29.097  31.379  1.00  0.00    -0.203 F 
ATOM    132  F   UNL A   1      49.169  29.164  26.504  1.00  0.00    -0.200 F 
ATOM    133  C   UNL A   1      49.248  28.703  28.818  1.00  0.00     0.200 A 
ATOM    134  F   UNL A   1      49.275  28.248  31.134  1.00  0.00    -0.200 F 
ATOM    135  F   UNL A   1      50.506  28.259  28.701  1.00  0.00    -0.200 F 
ENDBRANCH 105 125
BRANCH 108 136
ATOM    136  C   UNL A   1      37.166  32.683  30.221  1.00  0.00     0.064 A 
ATOM    137  C   UNL A   1      36.448  33.309  29.192  1.00  0.00     0.173 A 
ATOM    138  C   UNL A   1      36.521  32.509  31.454  1.00  0.00     0.173 A 
ATOM    139  F   UNL A   1      37.030  33.515  28.001  1.00  0.00    -0.203 F 
ATOM    140  C   UNL A   1      35.148  33.766  29.396  1.00  0.00     0.198 A 
ATOM    141  C   UNL A   1      35.211  32.941  31.649  1.00  0.00     0.198 A 
ATOM    142  F   UNL A   1      37.162  31.911  32.469  1.00  0.00    -0.203 F 
ATOM    143  F   UNL A   1      34.503  34.405  28.411  1.00  0.00    -0.200 F 
ATOM    144  C   UNL A   1      34.529  33.577  30.622  1.00  0.00     0.200 A 
ATOM    145  F   UNL A   1      34.612  32.744  32.831  1.00  0.00    -0.200 F 
ATOM    146  F   UNL A   1      33.278  34.017  30.819  1.00  0.00    -0.200 F 
ENDBRANCH 108 136
BRANCH 123 147
ATOM    147  C   UNL A   1      43.368  35.702  31.189  1.00  0.00     0.064 A 
ATOM    148  C   UNL A   1      43.665  36.726  30.278  1.00  0.00     0.173 A 
ATOM    149  C   UNL A   1      43.414  36.005  32.558  1.00  0.00     0.173 A 
ATOM    150  F   UNL A   1      43.649  36.482  28.959  1.00  0.00    -0.203 F 
ATOM    151  C   UNL A   1      44.016  37.998  30.723  1.00  0.00     0.198 A 
ATOM    152  C   UNL A   1      43.738  37.284  32.998  1.00  0.00     0.198 A 
ATOM    153  F   UNL A   1      43.134  35.061  33.468  1.00  0.00    -0.203 F 
ATOM    154  F   UNL A   1      44.340  38.950  29.836  1.00  0.00    -0.200 F 
ATOM    155  C   UNL A   1      44.045  38.278  32.080  1.00  0.00     0.200 A 
ATOM    156  F   UNL A   1      43.754  37.557  34.310  1.00  0.00    -0.200 F 
ATOM    157  F   UNL A   1      44.376  39.504  32.506  1.00  0.00    -0.200 F 
ENDBRANCH 123 147
ENDBRANCH  88  91
ENDBRANCH  78  81
ENDBRANCH  74  77
ENDBRANCH  71  74
ENDBRANCH  68  71
ENDBRANCH  65  68
ENDBRANCH   1  65
TORSDOF 22
ENDMDL
