MODEL 1
REMARK VINA RESULT:     -11.0      0.000      0.000
REMARK SMILES O=C(NCCCCCCNC(=O)[C@H]1C[C@](O)(c2ccccc2Cl)[C@@H](c2ccccc2Cl)O1)c1ccc(-c2c3nc(c(-c4c(F)c(F)c(F)c(F)c4F)c4ccc([nH]4)c(-c4c(F)c(F)c(F)c(F)c4F)c4nc(c(-c5c(F)c(F)c(F)c(F)c5F)c5ccc2[nH]5)C=C4)C=C3)cc1
REMARK SMILES IDX 6 1 5 4 4 7 3 10 1 11 2 12 33 14 34 15 95 16 35 17 94 19
REMARK SMILES IDX 36 21 37 24 38 25 88 26 39 27 93 28 87 29 89 30 40 31 92 32
REMARK SMILES IDX 86 34 85 36 41 38 73 41 53 42 72 43 54 44 57 45 71 46 90 47
REMARK SMILES IDX 55 48 56 50 70 52 91 53 58 56 42 58 43 59 51 60 44 61 45 62
REMARK SMILES IDX 49 63 52 64 46 65 47 66 50 67 48 68 74 69 75 70 83 71 76 72
REMARK SMILES IDX 77 73 81 74 84 75 78 76 79 77 82 78 80 79 59 80 60 81 68 82
REMARK SMILES IDX 61 83 62 84 66 85 69 86 63 87 64 88 67 89 65 90 7 91 8 94
REMARK SMILES IDX 9 97 10 100 11 101 12 103 13 104 14 105 32 106 15 108 24 111
REMARK SMILES IDX 17 113 18 114 22 115 19 116 21 118 23 119 20 120 16 124
REMARK SMILES IDX 25 126 26 127 30 128 27 129 29 131 31 132 28 133
REMARK H PARENT 6 2 6 3 5 5 5 6 4 8 4 9 3 13 34 18 95 20 35 22 94 23 93 33
REMARK H PARENT 87 35 89 37 92 39 86 40 54 49 57 51 90 54 55 55 91 57 7 92
REMARK H PARENT 7 93 8 95 8 96 9 98 9 99 10 102 13 107 14 109 14 110 24 112
REMARK H PARENT 18 117 19 121 21 122 20 123 16 125 26 130 27 134 29 135 28 136
REMARK Flexibility Score: inf
ROOT
ATOM      1  C   UNL A   1      42.252  19.667  27.199  1.00  0.00    -0.052 C 
ATOM      2  H   UNL A   1      42.033  18.755  27.713  1.00  0.00     0.027 H 
ATOM      3  H   UNL A   1      43.126  20.176  27.549  1.00  0.00     0.027 H 
ENDROOT
BRANCH   1   4
ATOM      4  C   UNL A   1      41.094  20.633  27.453  1.00  0.00    -0.036 C 
ATOM      5  H   UNL A   1      40.190  20.060  27.471  1.00  0.00     0.028 H 
ATOM      6  H   UNL A   1      41.325  21.119  28.377  1.00  0.00     0.028 H 
BRANCH   4   7
ATOM      7  C   UNL A   1      40.915  21.752  26.435  1.00  0.00     0.018 C 
ATOM      8  H   UNL A   1      41.287  22.659  26.864  1.00  0.00     0.049 H 
ATOM      9  H   UNL A   1      41.454  21.461  25.557  1.00  0.00     0.049 H 
BRANCH   7  10
ATOM     10  N   UNL A   1      39.538  21.968  26.031  1.00  0.00    -0.352 N 
ATOM     11  O   UNL A   1      37.584  23.081  25.831  1.00  0.00    -0.269 OA
ATOM     12  C   UNL A   1      38.759  23.094  26.175  1.00  0.00     0.251 C 
ATOM     13  H   UNL A   1      39.100  21.203  25.594  1.00  0.00     0.163 HD
BRANCH  12  14
ATOM     14  C   UNL A   1      39.332  24.314  26.788  1.00  0.00     0.039 A 
ATOM     15  C   UNL A   1      39.199  24.571  28.155  1.00  0.00    -0.049 A 
ATOM     16  C   UNL A   1      40.009  25.223  25.969  1.00  0.00    -0.049 A 
ATOM     17  C   UNL A   1      39.611  25.795  28.673  1.00  0.00    -0.053 A 
ATOM     18  H   UNL A   1      38.798  23.854  28.779  1.00  0.00     0.063 H 
ATOM     19  C   UNL A   1      40.493  26.419  26.506  1.00  0.00    -0.053 A 
ATOM     20  H   UNL A   1      40.152  25.010  24.970  1.00  0.00     0.063 H 
ATOM     21  C   UNL A   1      40.263  26.733  27.855  1.00  0.00    -0.014 A 
ATOM     22  H   UNL A   1      39.436  26.017  29.665  1.00  0.00     0.063 H 
ATOM     23  H   UNL A   1      41.020  27.075  25.909  1.00  0.00     0.063 H 
BRANCH  21  24
ATOM     24  C   UNL A   1      40.728  28.018  28.436  1.00  0.00     0.031 A 
ATOM     25  C   UNL A   1      42.192  28.296  28.637  1.00  0.00     0.074 A 
ATOM     26  C   UNL A   1      39.815  28.952  28.762  1.00  0.00     0.049 A 
ATOM     27  N   UNL A   1      42.772  29.371  29.111  1.00  0.00    -0.248 NA
ATOM     28  C   UNL A   1      43.128  27.224  28.268  1.00  0.00    -0.034 C 
ATOM     29  C   UNL A   1      38.366  28.794  28.622  1.00  0.00    -0.036 A 
ATOM     30  N   UNL A   1      39.965  30.219  29.264  1.00  0.00    -0.354 N 
ATOM     31  C   UNL A   1      44.133  29.098  29.119  1.00  0.00     0.074 A 
ATOM     32  C   UNL A   1      44.293  27.747  28.624  1.00  0.00    -0.034 C 
ATOM     33  H   UNL A   1      42.930  26.304  27.844  1.00  0.00     0.065 H 
ATOM     34  C   UNL A   1      37.764  29.936  28.984  1.00  0.00    -0.036 A 
ATOM     35  H   UNL A   1      37.885  27.941  28.298  1.00  0.00     0.065 H 
ATOM     36  C   UNL A   1      38.777  30.886  29.430  1.00  0.00     0.049 A 
ATOM     37  H   UNL A   1      40.841  30.613  29.482  1.00  0.00     0.167 HD
ATOM     38  C   UNL A   1      45.155  29.905  29.498  1.00  0.00     0.037 A 
ATOM     39  H   UNL A   1      45.198  27.255  28.558  1.00  0.00     0.065 H 
ATOM     40  H   UNL A   1      36.748  30.115  28.950  1.00  0.00     0.065 H 
ATOM     41  C   UNL A   1      38.529  32.122  29.901  1.00  0.00     0.037 A 
ATOM     42  C   UNL A   1      44.992  31.257  29.971  1.00  0.00     0.049 A 
ATOM     43  C   UNL A   1      39.678  32.988  30.329  1.00  0.00     0.074 A 
ATOM     44  C   UNL A   1      45.967  32.169  30.334  1.00  0.00    -0.036 A 
ATOM     45  N   UNL A   1      43.769  31.887  30.155  1.00  0.00    -0.354 N 
ATOM     46  N   UNL A   1      40.962  32.735  30.292  1.00  0.00    -0.248 NA
ATOM     47  C   UNL A   1      39.340  34.313  30.865  1.00  0.00    -0.034 C 
ATOM     48  C   UNL A   1      45.335  33.335  30.780  1.00  0.00    -0.036 A 
ATOM     49  H   UNL A   1      46.986  32.016  30.285  1.00  0.00     0.065 H 
ATOM     50  C   UNL A   1      43.965  33.168  30.649  1.00  0.00     0.049 A 
ATOM     51  H   UNL A   1      42.891  31.484  29.964  1.00  0.00     0.167 HD
ATOM     52  C   UNL A   1      41.589  33.872  30.780  1.00  0.00     0.074 A 
ATOM     53  C   UNL A   1      40.541  34.823  31.092  1.00  0.00    -0.034 C 
ATOM     54  H   UNL A   1      38.411  34.735  31.023  1.00  0.00     0.065 H 
ATOM     55  H   UNL A   1      45.807  34.177  31.145  1.00  0.00     0.065 H 
ATOM     56  C   UNL A   1      42.913  34.105  30.952  1.00  0.00     0.037 A 
ATOM     57  H   UNL A   1      40.711  35.778  31.446  1.00  0.00     0.065 H 
BRANCH  38  58
ATOM     58  C   UNL A   1      46.545  29.339  29.438  1.00  0.00     0.064 A 
ATOM     59  C   UNL A   1      47.154  28.754  30.558  1.00  0.00     0.173 A 
ATOM     60  C   UNL A   1      47.265  29.354  28.234  1.00  0.00     0.173 A 
ATOM     61  F   UNL A   1      46.513  28.721  31.736  1.00  0.00    -0.203 F 
ATOM     62  C   UNL A   1      48.446  28.235  30.483  1.00  0.00     0.198 A 
ATOM     63  C   UNL A   1      48.546  28.811  28.155  1.00  0.00     0.198 A 
ATOM     64  F   UNL A   1      46.727  29.894  27.130  1.00  0.00    -0.203 F 
ATOM     65  F   UNL A   1      49.026  27.726  31.578  1.00  0.00    -0.200 F 
ATOM     66  C   UNL A   1      49.137  28.259  29.281  1.00  0.00     0.200 A 
ATOM     67  F   UNL A   1      49.207  28.824  26.990  1.00  0.00    -0.200 F 
ATOM     68  F   UNL A   1      50.378  27.759  29.210  1.00  0.00    -0.200 F 
ENDBRANCH  38  58
BRANCH  41  69
ATOM     69  C   UNL A   1      37.128  32.611  29.965  1.00  0.00     0.064 A 
ATOM     70  C   UNL A   1      36.343  32.390  31.103  1.00  0.00     0.173 A 
ATOM     71  C   UNL A   1      36.561  33.336  28.907  1.00  0.00     0.173 A 
ATOM     72  F   UNL A   1      36.839  31.686  32.133  1.00  0.00    -0.203 F 
ATOM     73  C   UNL A   1      35.038  32.872  31.179  1.00  0.00     0.198 A 
ATOM     74  C   UNL A   1      35.267  33.839  28.995  1.00  0.00     0.198 A 
ATOM     75  F   UNL A   1      37.276  33.577  27.799  1.00  0.00    -0.203 F 
ATOM     76  F   UNL A   1      34.298  32.624  32.268  1.00  0.00    -0.200 F 
ATOM     77  C   UNL A   1      34.504  33.604  30.130  1.00  0.00     0.200 A 
ATOM     78  F   UNL A   1      34.760  34.561  27.985  1.00  0.00    -0.200 F 
ATOM     79  F   UNL A   1      33.255  34.080  30.210  1.00  0.00    -0.200 F 
ENDBRANCH  41  69
BRANCH  56  80
ATOM     80  C   UNL A   1      43.304  35.457  31.472  1.00  0.00     0.064 A 
ATOM     81  C   UNL A   1      43.322  35.740  32.846  1.00  0.00     0.173 A 
ATOM     82  C   UNL A   1      43.687  36.475  30.585  1.00  0.00     0.173 A 
ATOM     83  F   UNL A   1      42.948  34.807  33.733  1.00  0.00    -0.203 F 
ATOM     84  C   UNL A   1      43.684  37.002  33.311  1.00  0.00     0.198 A 
ATOM     85  C   UNL A   1      44.074  37.726  31.055  1.00  0.00     0.198 A 
ATOM     86  F   UNL A   1      43.689  36.252  29.262  1.00  0.00    -0.203 F 
ATOM     87  F   UNL A   1      43.647  37.267  34.624  1.00  0.00    -0.200 F 
ATOM     88  C   UNL A   1      44.065  37.992  32.416  1.00  0.00     0.200 A 
ATOM     89  F   UNL A   1      44.450  38.677  30.189  1.00  0.00    -0.200 F 
ATOM     90  F   UNL A   1      44.414  39.205  32.865  1.00  0.00    -0.200 F 
ENDBRANCH  56  80
ENDBRANCH  21  24
ENDBRANCH  12  14
ENDBRANCH   7  10
ENDBRANCH   4   7
ENDBRANCH   1   4
BRANCH   1  91
ATOM     91  C   UNL A   1      42.545  19.319  25.736  1.00  0.00    -0.052 C 
ATOM     92  H   UNL A   1      42.281  20.169  25.143  1.00  0.00     0.027 H 
ATOM     93  H   UNL A   1      41.971  18.438  25.539  1.00  0.00     0.027 H 
BRANCH  91  94
ATOM     94  C   UNL A   1      43.992  18.943  25.387  1.00  0.00    -0.036 C 
ATOM     95  H   UNL A   1      43.962  18.152  24.668  1.00  0.00     0.028 H 
ATOM     96  H   UNL A   1      44.455  18.669  26.312  1.00  0.00     0.028 H 
BRANCH  94  97
ATOM     97  C   UNL A   1      44.845  20.071  24.811  1.00  0.00     0.017 C 
ATOM     98  H   UNL A   1      45.201  19.771  23.848  1.00  0.00     0.049 H 
ATOM     99  H   UNL A   1      45.646  20.247  25.497  1.00  0.00     0.049 H 
BRANCH  97 100
ATOM    100  N   UNL A   1      44.120  21.314  24.669  1.00  0.00    -0.354 N 
ATOM    101  C   UNL A   1      44.529  22.611  24.635  1.00  0.00     0.249 C 
ATOM    102  H   UNL A   1      43.147  21.200  24.578  1.00  0.00     0.163 HD
ATOM    103  O   UNL A   1      43.622  23.433  24.445  1.00  0.00    -0.272 OA
BRANCH 101 104
ATOM    104  C   UNL A   1      45.994  23.083  24.863  1.00  0.00     0.140 C 
ATOM    105  C   UNL A   1      46.367  24.547  24.723  1.00  0.00     0.019 C 
ATOM    106  O   UNL A   1      46.423  22.675  26.174  1.00  0.00    -0.357 OA
ATOM    107  H   UNL A   1      46.483  22.615  24.034  1.00  0.00     0.071 H 
ATOM    108  C   UNL A   1      46.930  25.015  26.070  1.00  0.00     0.124 C 
ATOM    109  H   UNL A   1      45.501  25.121  24.470  1.00  0.00     0.033 H 
ATOM    110  H   UNL A   1      47.093  24.676  23.948  1.00  0.00     0.033 H 
ATOM    111  C   UNL A   1      46.592  23.833  27.016  1.00  0.00     0.118 C 
ATOM    112  H   UNL A   1      47.408  23.792  27.706  1.00  0.00     0.069 H 
BRANCH 108 113
ATOM    113  C   UNL A   1      48.367  25.530  25.850  1.00  0.00     0.005 A 
ATOM    114  C   UNL A   1      49.323  25.101  26.818  1.00  0.00    -0.055 A 
ATOM    115  C   UNL A   1      48.855  26.387  24.846  1.00  0.00     0.047 A 
ATOM    116  C   UNL A   1      50.671  25.458  26.769  1.00  0.00    -0.062 A 
ATOM    117  H   UNL A   1      49.001  24.497  27.591  1.00  0.00     0.063 H 
ATOM    118  C   UNL A   1      50.225  26.714  24.781  1.00  0.00    -0.043 A 
ATOM    119  Cl  UNL A   1      47.895  27.189  23.660  1.00  0.00    -0.084 Cl
ATOM    120  C   UNL A   1      51.129  26.253  25.733  1.00  0.00    -0.061 A 
ATOM    121  H   UNL A   1      51.322  25.131  27.500  1.00  0.00     0.062 H 
ATOM    122  H   UNL A   1      50.565  27.308  24.009  1.00  0.00     0.064 H 
ATOM    123  H   UNL A   1      52.128  26.501  25.667  1.00  0.00     0.062 H 
ENDBRANCH 108 113
BRANCH 108 124
ATOM    124  O   UNL A   1      46.173  26.184  26.464  1.00  0.00    -0.382 OA
ATOM    125  H   UNL A   1      45.226  26.014  26.340  1.00  0.00     0.212 HD
ENDBRANCH 108 124
BRANCH 111 126
ATOM    126  C   UNL A   1      45.389  23.946  27.957  1.00  0.00     0.003 A 
ATOM    127  C   UNL A   1      44.125  23.448  27.587  1.00  0.00    -0.055 A 
ATOM    128  C   UNL A   1      45.499  24.505  29.247  1.00  0.00     0.046 A 
ATOM    129  C   UNL A   1      43.045  23.437  28.475  1.00  0.00    -0.062 A 
ATOM    130  H   UNL A   1      43.991  23.081  26.631  1.00  0.00     0.063 H 
ATOM    131  C   UNL A   1      44.411  24.506  30.132  1.00  0.00    -0.043 A 
ATOM    132  Cl  UNL A   1      46.948  25.255  29.828  1.00  0.00    -0.084 Cl
ATOM    133  C   UNL A   1      43.191  23.956  29.753  1.00  0.00    -0.061 A 
ATOM    134  H   UNL A   1      42.139  23.041  28.179  1.00  0.00     0.062 H 
ATOM    135  H   UNL A   1      44.517  24.917  31.073  1.00  0.00     0.064 H 
ATOM    136  H   UNL A   1      42.401  23.934  30.417  1.00  0.00     0.062 H 
ENDBRANCH 111 126
ENDBRANCH 101 104
ENDBRANCH  97 100
ENDBRANCH  94  97
ENDBRANCH  91  94
ENDBRANCH   1  91
TORSDOF 16
ENDMDL
MODEL 2
REMARK VINA RESULT:     -10.6      0.419      7.164
REMARK SMILES O=C(NCCCCCCNC(=O)[C@H]1C[C@](O)(c2ccccc2Cl)[C@@H](c2ccccc2Cl)O1)c1ccc(-c2c3nc(c(-c4c(F)c(F)c(F)c(F)c4F)c4ccc([nH]4)c(-c4c(F)c(F)c(F)c(F)c4F)c4nc(c(-c5c(F)c(F)c(F)c(F)c5F)c5ccc2[nH]5)C=C4)C=C3)cc1
REMARK SMILES IDX 6 1 5 4 4 7 3 10 1 11 2 12 33 14 34 15 95 16 35 17 94 19
REMARK SMILES IDX 36 21 37 24 38 25 88 26 39 27 93 28 87 29 89 30 40 31 92 32
REMARK SMILES IDX 86 34 85 36 41 38 73 41 53 42 72 43 54 44 57 45 71 46 90 47
REMARK SMILES IDX 55 48 56 50 70 52 91 53 58 56 42 58 43 59 51 60 44 61 45 62
REMARK SMILES IDX 49 63 52 64 46 65 47 66 50 67 48 68 74 69 75 70 83 71 76 72
REMARK SMILES IDX 77 73 81 74 84 75 78 76 79 77 82 78 80 79 59 80 60 81 68 82
REMARK SMILES IDX 61 83 62 84 66 85 69 86 63 87 64 88 67 89 65 90 7 91 8 94
REMARK SMILES IDX 9 97 10 100 11 101 12 103 13 104 14 105 32 106 15 108 24 111
REMARK SMILES IDX 17 113 18 114 22 115 19 116 21 118 23 119 20 120 16 124
REMARK SMILES IDX 25 126 26 127 30 128 27 129 29 131 31 132 28 133
REMARK H PARENT 6 2 6 3 5 5 5 6 4 8 4 9 3 13 34 18 95 20 35 22 94 23 93 33
REMARK H PARENT 87 35 89 37 92 39 86 40 54 49 57 51 90 54 55 55 91 57 7 92
REMARK H PARENT 7 93 8 95 8 96 9 98 9 99 10 102 13 107 14 109 14 110 24 112
REMARK H PARENT 18 117 19 121 21 122 20 123 16 125 26 130 27 134 29 135 28 136
REMARK Flexibility Score: inf
ROOT
ATOM      1  C   UNL A   1      42.167  19.585  27.197  1.00  0.00    -0.052 C 
ATOM      2  H   UNL A   1      41.823  18.673  27.637  1.00  0.00     0.027 H 
ATOM      3  H   UNL A   1      43.054  19.987  27.639  1.00  0.00     0.027 H 
ENDROOT
BRANCH   1   4
ATOM      4  C   UNL A   1      41.087  20.644  27.424  1.00  0.00    -0.036 C 
ATOM      5  H   UNL A   1      40.163  20.135  27.599  1.00  0.00     0.028 H 
ATOM      6  H   UNL A   1      41.431  21.230  28.250  1.00  0.00     0.028 H 
BRANCH   4   7
ATOM      7  C   UNL A   1      40.864  21.633  26.286  1.00  0.00     0.018 C 
ATOM      8  H   UNL A   1      41.295  22.572  26.568  1.00  0.00     0.049 H 
ATOM      9  H   UNL A   1      41.326  21.213  25.417  1.00  0.00     0.049 H 
BRANCH   7  10
ATOM     10  N   UNL A   1      39.468  21.851  25.958  1.00  0.00    -0.352 N 
ATOM     11  O   UNL A   1      37.511  22.971  25.849  1.00  0.00    -0.269 OA
ATOM     12  C   UNL A   1      38.704  22.984  26.125  1.00  0.00     0.251 C 
ATOM     13  H   UNL A   1      39.001  21.080  25.560  1.00  0.00     0.163 HD
BRANCH  12  14
ATOM     14  C   UNL A   1      39.318  24.211  26.682  1.00  0.00     0.039 A 
ATOM     15  C   UNL A   1      39.248  24.503  28.046  1.00  0.00    -0.049 A 
ATOM     16  C   UNL A   1      39.968  25.091  25.812  1.00  0.00    -0.049 A 
ATOM     17  C   UNL A   1      39.696  25.734  28.515  1.00  0.00    -0.053 A 
ATOM     18  H   UNL A   1      38.866  23.806  28.705  1.00  0.00     0.063 H 
ATOM     19  C   UNL A   1      40.489  26.294  26.297  1.00  0.00    -0.053 A 
ATOM     20  H   UNL A   1      40.065  24.852  24.812  1.00  0.00     0.063 H 
ATOM     21  C   UNL A   1      40.322  26.644  27.646  1.00  0.00    -0.014 A 
ATOM     22  H   UNL A   1      39.568  25.982  29.508  1.00  0.00     0.063 H 
ATOM     23  H   UNL A   1      40.996  26.928  25.661  1.00  0.00     0.063 H 
BRANCH  21  24
ATOM     24  C   UNL A   1      40.827  27.937  28.173  1.00  0.00     0.031 A 
ATOM     25  C   UNL A   1      39.881  29.016  28.621  1.00  0.00     0.074 A 
ATOM     26  C   UNL A   1      42.156  28.125  28.268  1.00  0.00     0.049 A 
ATOM     27  N   UNL A   1      40.150  30.194  29.126  1.00  0.00    -0.248 NA
ATOM     28  C   UNL A   1      38.443  28.742  28.476  1.00  0.00    -0.034 C 
ATOM     29  C   UNL A   1      43.173  27.156  27.856  1.00  0.00    -0.036 A 
ATOM     30  N   UNL A   1      42.881  29.184  28.752  1.00  0.00    -0.354 N 
ATOM     31  C   UNL A   1      38.923  30.810  29.336  1.00  0.00     0.074 A 
ATOM     32  C   UNL A   1      37.907  29.884  28.883  1.00  0.00    -0.034 C 
ATOM     33  H   UNL A   1      37.975  27.885  28.143  1.00  0.00     0.065 H 
ATOM     34  C   UNL A   1      44.388  27.645  28.146  1.00  0.00    -0.036 A 
ATOM     35  H   UNL A   1      42.986  26.244  27.413  1.00  0.00     0.065 H 
ATOM     36  C   UNL A   1      44.238  28.980  28.715  1.00  0.00     0.049 A 
ATOM     37  H   UNL A   1      42.469  30.010  29.094  1.00  0.00     0.167 HD
ATOM     38  C   UNL A   1      38.670  32.032  29.865  1.00  0.00     0.037 A 
ATOM     39  H   UNL A   1      36.895  30.087  28.877  1.00  0.00     0.065 H 
ATOM     40  H   UNL A   1      45.283  27.155  27.994  1.00  0.00     0.065 H 
ATOM     41  C   UNL A   1      45.252  29.783  29.087  1.00  0.00     0.037 A 
ATOM     42  C   UNL A   1      39.685  32.943  30.333  1.00  0.00     0.049 A 
ATOM     43  C   UNL A   1      44.943  31.138  29.655  1.00  0.00     0.074 A 
ATOM     44  C   UNL A   1      39.527  34.183  30.927  1.00  0.00    -0.036 A 
ATOM     45  N   UNL A   1      41.051  32.712  30.251  1.00  0.00    -0.354 N 
ATOM     46  N   UNL A   1      43.779  31.691  29.887  1.00  0.00    -0.248 NA
ATOM     47  C   UNL A   1      46.092  31.980  30.011  1.00  0.00    -0.034 C 
ATOM     48  C   UNL A   1      40.796  34.722  31.164  1.00  0.00    -0.036 A 
ATOM     49  H   UNL A   1      38.627  34.632  31.156  1.00  0.00     0.065 H 
ATOM     50  C   UNL A   1      41.747  33.798  30.761  1.00  0.00     0.049 A 
ATOM     51  H   UNL A   1      41.466  31.899  29.883  1.00  0.00     0.167 HD
ATOM     52  C   UNL A   1      44.051  32.936  30.435  1.00  0.00     0.074 A 
ATOM     53  C   UNL A   1      45.493  33.051  30.513  1.00  0.00    -0.034 C 
ATOM     54  H   UNL A   1      47.101  31.789  29.899  1.00  0.00     0.065 H 
ATOM     55  H   UNL A   1      40.991  35.651  31.568  1.00  0.00     0.065 H 
ATOM     56  C   UNL A   1      43.183  33.896  30.836  1.00  0.00     0.037 A 
ATOM     57  H   UNL A   1      45.990  33.863  30.910  1.00  0.00     0.065 H 
BRANCH  38  58
ATOM     58  C   UNL A   1      37.235  32.469  29.947  1.00  0.00     0.064 A 
ATOM     59  C   UNL A   1      36.448  32.215  31.080  1.00  0.00     0.173 A 
ATOM     60  C   UNL A   1      36.648  33.176  28.887  1.00  0.00     0.173 A 
ATOM     61  F   UNL A   1      36.957  31.534  32.118  1.00  0.00    -0.203 F 
ATOM     62  C   UNL A   1      35.118  32.628  31.137  1.00  0.00     0.198 A 
ATOM     63  C   UNL A   1      35.326  33.611  28.957  1.00  0.00     0.198 A 
ATOM     64  F   UNL A   1      37.357  33.453  27.783  1.00  0.00    -0.203 F 
ATOM     65  F   UNL A   1      34.372  32.331  32.210  1.00  0.00    -0.200 F 
ATOM     66  C   UNL A   1      34.560  33.329  30.078  1.00  0.00     0.200 A 
ATOM     67  F   UNL A   1      34.793  34.299  27.939  1.00  0.00    -0.200 F 
ATOM     68  F   UNL A   1      33.282  33.725  30.134  1.00  0.00    -0.200 F 
ENDBRANCH  38  58
BRANCH  41  69
ATOM     69  C   UNL A   1      46.650  29.304  28.951  1.00  0.00     0.064 A 
ATOM     70  C   UNL A   1      47.363  29.499  27.761  1.00  0.00     0.173 A 
ATOM     71  C   UNL A   1      47.311  28.674  30.016  1.00  0.00     0.173 A 
ATOM     72  F   UNL A   1      46.765  30.082  26.710  1.00  0.00    -0.203 F 
ATOM     73  C   UNL A   1      48.685  29.078  27.639  1.00  0.00     0.198 A 
ATOM     74  C   UNL A   1      48.640  28.277  29.901  1.00  0.00     0.198 A 
ATOM     75  F   UNL A   1      46.672  28.470  31.176  1.00  0.00    -0.203 F 
ATOM     76  F   UNL A   1      49.336  29.252  26.481  1.00  0.00    -0.200 F 
ATOM     77  C   UNL A   1      49.326  28.476  28.711  1.00  0.00     0.200 A 
ATOM     78  F   UNL A   1      49.261  27.711  30.945  1.00  0.00    -0.200 F 
ATOM     79  F   UNL A   1      50.601  28.084  28.597  1.00  0.00    -0.200 F 
ENDBRANCH  41  69
BRANCH  56  80
ATOM     80  C   UNL A   1      43.772  35.143  31.428  1.00  0.00     0.064 A 
ATOM     81  C   UNL A   1      44.056  36.268  30.642  1.00  0.00     0.173 A 
ATOM     82  C   UNL A   1      44.035  35.218  32.804  1.00  0.00     0.173 A 
ATOM     83  F   UNL A   1      43.839  36.240  29.318  1.00  0.00    -0.203 F 
ATOM     84  C   UNL A   1      44.606  37.416  31.208  1.00  0.00     0.198 A 
ATOM     85  C   UNL A   1      44.560  36.375  33.371  1.00  0.00     0.198 A 
ATOM     86  F   UNL A   1      43.778  34.168  33.600  1.00  0.00    -0.203 F 
ATOM     87  F   UNL A   1      44.916  38.463  30.430  1.00  0.00    -0.200 F 
ATOM     88  C   UNL A   1      44.853  37.470  32.572  1.00  0.00     0.200 A 
ATOM     89  F   UNL A   1      44.789  36.429  34.690  1.00  0.00    -0.200 F 
ATOM     90  F   UNL A   1      45.381  38.576  33.115  1.00  0.00    -0.200 F 
ENDBRANCH  56  80
ENDBRANCH  21  24
ENDBRANCH  12  14
ENDBRANCH   7  10
ENDBRANCH   4   7
ENDBRANCH   1   4
BRANCH   1  91
ATOM     91  C   UNL A   1      42.539  19.289  25.741  1.00  0.00    -0.052 C 
ATOM     92  H   UNL A   1      42.332  20.169  25.168  1.00  0.00     0.027 H 
ATOM     93  H   UNL A   1      41.958  18.431  25.473  1.00  0.00     0.027 H 
BRANCH  91  94
ATOM     94  C   UNL A   1      43.996  18.889  25.463  1.00  0.00    -0.036 C 
ATOM     95  H   UNL A   1      43.986  18.042  24.810  1.00  0.00     0.028 H 
ATOM     96  H   UNL A   1      44.433  18.693  26.420  1.00  0.00     0.028 H 
BRANCH  94  97
ATOM     97  C   UNL A   1      44.863  19.969  24.820  1.00  0.00     0.017 C 
ATOM     98  H   UNL A   1      45.223  19.602  23.882  1.00  0.00     0.049 H 
ATOM     99  H   UNL A   1      45.661  20.183  25.500  1.00  0.00     0.049 H 
BRANCH  97 100
ATOM    100  N   UNL A   1      44.151  21.206  24.590  1.00  0.00    -0.354 N 
ATOM    101  C   UNL A   1      44.566  22.500  24.518  1.00  0.00     0.249 C 
ATOM    102  H   UNL A   1      43.183  21.090  24.459  1.00  0.00     0.163 HD
ATOM    103  O   UNL A   1      43.674  23.314  24.250  1.00  0.00    -0.272 OA
BRANCH 101 104
ATOM    104  C   UNL A   1      46.021  22.978  24.794  1.00  0.00     0.140 C 
ATOM    105  C   UNL A   1      46.398  24.440  24.647  1.00  0.00     0.019 C 
ATOM    106  O   UNL A   1      46.403  22.590  26.126  1.00  0.00    -0.357 OA
ATOM    107  H   UNL A   1      46.542  22.499  23.991  1.00  0.00     0.071 H 
ATOM    108  C   UNL A   1      46.909  24.929  26.007  1.00  0.00     0.124 C 
ATOM    109  H   UNL A   1      45.540  25.009  24.353  1.00  0.00     0.033 H 
ATOM    110  H   UNL A   1      47.152  24.560  23.897  1.00  0.00     0.033 H 
ATOM    111  C   UNL A   1      46.538  23.760  26.957  1.00  0.00     0.118 C 
ATOM    112  H   UNL A   1      47.327  23.731  27.677  1.00  0.00     0.069 H 
BRANCH 108 113
ATOM    113  C   UNL A   1      48.353  25.444  25.833  1.00  0.00     0.005 A 
ATOM    114  C   UNL A   1      49.277  25.013  26.830  1.00  0.00    -0.055 A 
ATOM    115  C   UNL A   1      48.873  26.302  24.846  1.00  0.00     0.047 A 
ATOM    116  C   UNL A   1      50.627  25.369  26.824  1.00  0.00    -0.062 A 
ATOM    117  H   UNL A   1      48.932  24.408  27.592  1.00  0.00     0.063 H 
ATOM    118  C   UNL A   1      50.244  26.628  24.825  1.00  0.00    -0.043 A 
ATOM    119  Cl  UNL A   1      47.951  27.106  23.631  1.00  0.00    -0.084 Cl
ATOM    120  C   UNL A   1      51.117  26.165  25.804  1.00  0.00    -0.061 A 
ATOM    121  H   UNL A   1      51.254  25.041  27.575  1.00  0.00     0.062 H 
ATOM    122  H   UNL A   1      50.609  27.223  24.064  1.00  0.00     0.064 H 
ATOM    123  H   UNL A   1      52.118  26.413  25.770  1.00  0.00     0.062 H 
ENDBRANCH 108 113
BRANCH 108 124
ATOM    124  O   UNL A   1      46.137  26.102  26.355  1.00  0.00    -0.382 OA
ATOM    125  H   UNL A   1      45.932  26.605  25.552  1.00  0.00     0.212 HD
ENDBRANCH 108 124
BRANCH 111 126
ATOM    126  C   UNL A   1      45.300  23.885  27.851  1.00  0.00     0.003 A 
ATOM    127  C   UNL A   1      44.049  23.388  27.436  1.00  0.00    -0.055 A 
ATOM    128  C   UNL A   1      45.364  24.453  29.140  1.00  0.00     0.046 A 
ATOM    129  C   UNL A   1      42.937  23.387  28.283  1.00  0.00    -0.062 A 
ATOM    130  H   UNL A   1      43.951  23.013  26.479  1.00  0.00     0.063 H 
ATOM    131  C   UNL A   1      44.243  24.464  29.983  1.00  0.00    -0.043 A 
ATOM    132  Cl  UNL A   1      46.793  25.203  29.769  1.00  0.00    -0.084 Cl
ATOM    133  C   UNL A   1      43.036  23.915  29.562  1.00  0.00    -0.061 A 
ATOM    134  H   UNL A   1      42.041  22.992  27.956  1.00  0.00     0.062 H 
ATOM    135  H   UNL A   1      44.314  24.882  30.924  1.00  0.00     0.064 H 
ATOM    136  H   UNL A   1      42.221  23.901  30.195  1.00  0.00     0.062 H 
ENDBRANCH 111 126
ENDBRANCH 101 104
ENDBRANCH  97 100
ENDBRANCH  94  97
ENDBRANCH  91  94
ENDBRANCH   1  91
TORSDOF 16
ENDMDL
MODEL 3
REMARK VINA RESULT:     -10.6      6.360     12.174
REMARK SMILES O=C(NCCCCCCNC(=O)[C@H]1C[C@](O)(c2ccccc2Cl)[C@@H](c2ccccc2Cl)O1)c1ccc(-c2c3nc(c(-c4c(F)c(F)c(F)c(F)c4F)c4ccc([nH]4)c(-c4c(F)c(F)c(F)c(F)c4F)c4nc(c(-c5c(F)c(F)c(F)c(F)c5F)c5ccc2[nH]5)C=C4)C=C3)cc1
REMARK SMILES IDX 6 1 5 4 4 7 3 10 1 11 2 12 33 14 34 15 95 16 35 17 94 19
REMARK SMILES IDX 36 21 37 24 38 25 88 26 39 27 93 28 87 29 89 30 40 31 92 32
REMARK SMILES IDX 86 34 85 36 41 38 73 41 53 42 72 43 54 44 57 45 71 46 90 47
REMARK SMILES IDX 55 48 56 50 70 52 91 53 58 56 42 58 43 59 51 60 44 61 45 62
REMARK SMILES IDX 49 63 52 64 46 65 47 66 50 67 48 68 74 69 75 70 83 71 76 72
REMARK SMILES IDX 77 73 81 74 84 75 78 76 79 77 82 78 80 79 59 80 60 81 68 82
REMARK SMILES IDX 61 83 62 84 66 85 69 86 63 87 64 88 67 89 65 90 7 91 8 94
REMARK SMILES IDX 9 97 10 100 11 101 12 103 13 104 14 105 32 106 15 108 24 111
REMARK SMILES IDX 17 113 18 114 22 115 19 116 21 118 23 119 20 120 16 124
REMARK SMILES IDX 25 126 26 127 30 128 27 129 29 131 31 132 28 133
REMARK H PARENT 6 2 6 3 5 5 5 6 4 8 4 9 3 13 34 18 95 20 35 22 94 23 93 33
REMARK H PARENT 87 35 89 37 92 39 86 40 54 49 57 51 90 54 55 55 91 57 7 92
REMARK H PARENT 7 93 8 95 8 96 9 98 9 99 10 102 13 107 14 109 14 110 24 112
REMARK H PARENT 18 117 19 121 21 122 20 123 16 125 26 130 27 134 29 135 28 136
REMARK Flexibility Score: inf
ROOT
ATOM      1  C   UNL A   1      31.779  30.514  27.157  1.00  0.00    -0.052 C 
ATOM      2  H   UNL A   1      31.314  29.918  26.400  1.00  0.00     0.027 H 
ATOM      3  H   UNL A   1      31.430  30.324  28.151  1.00  0.00     0.027 H 
ENDROOT
BRANCH   1   4
ATOM      4  C   UNL A   1      31.424  31.976  26.878  1.00  0.00    -0.036 C 
ATOM      5  H   UNL A   1      30.922  32.014  25.934  1.00  0.00     0.028 H 
ATOM      6  H   UNL A   1      30.827  32.288  27.708  1.00  0.00     0.028 H 
BRANCH   4   7
ATOM      7  C   UNL A   1      32.592  32.952  26.823  1.00  0.00     0.018 C 
ATOM      8  H   UNL A   1      33.454  32.469  27.235  1.00  0.00     0.049 H 
ATOM      9  H   UNL A   1      32.723  33.221  25.796  1.00  0.00     0.049 H 
BRANCH   7  10
ATOM     10  N   UNL A   1      32.366  34.184  27.556  1.00  0.00    -0.352 N 
ATOM     11  O   UNL A   1      32.689  35.729  29.170  1.00  0.00    -0.269 OA
ATOM     12  C   UNL A   1      33.061  34.696  28.629  1.00  0.00     0.251 C 
ATOM     13  H   UNL A   1      31.609  34.731  27.242  1.00  0.00     0.163 HD
BRANCH  12  14
ATOM     14  C   UNL A   1      34.239  33.971  29.157  1.00  0.00     0.039 A 
ATOM     15  C   UNL A   1      34.094  32.816  29.930  1.00  0.00    -0.049 A 
ATOM     16  C   UNL A   1      35.515  34.469  28.878  1.00  0.00    -0.049 A 
ATOM     17  C   UNL A   1      35.208  32.248  30.540  1.00  0.00    -0.053 A 
ATOM     18  H   UNL A   1      33.164  32.385  30.046  1.00  0.00     0.063 H 
ATOM     19  C   UNL A   1      36.641  33.851  29.427  1.00  0.00    -0.053 A 
ATOM     20  H   UNL A   1      35.625  35.293  28.265  1.00  0.00     0.063 H 
ATOM     21  C   UNL A   1      36.494  32.757  30.296  1.00  0.00    -0.014 A 
ATOM     22  H   UNL A   1      35.089  31.445  31.178  1.00  0.00     0.063 H 
ATOM     23  H   UNL A   1      37.584  34.199  29.195  1.00  0.00     0.063 H 
BRANCH  21  24
ATOM     24  C   UNL A   1      37.673  32.113  30.927  1.00  0.00     0.031 A 
ATOM     25  C   UNL A   1      38.094  32.464  32.327  1.00  0.00     0.074 A 
ATOM     26  C   UNL A   1      38.356  31.184  30.233  1.00  0.00     0.049 A 
ATOM     27  N   UNL A   1      39.084  31.983  33.039  1.00  0.00    -0.248 NA
ATOM     28  C   UNL A   1      37.307  33.497  33.019  1.00  0.00    -0.034 C 
ATOM     29  C   UNL A   1      38.050  30.767  28.863  1.00  0.00    -0.036 A 
ATOM     30  N   UNL A   1      39.435  30.413  30.583  1.00  0.00    -0.354 N 
ATOM     31  C   UNL A   1      39.054  32.667  34.246  1.00  0.00     0.074 A 
ATOM     32  C   UNL A   1      37.962  33.613  34.165  1.00  0.00    -0.034 C 
ATOM     33  H   UNL A   1      36.466  33.998  32.695  1.00  0.00     0.065 H 
ATOM     34  C   UNL A   1      38.890  29.785  28.506  1.00  0.00    -0.036 A 
ATOM     35  H   UNL A   1      37.307  31.165  28.268  1.00  0.00     0.065 H 
ATOM     36  C   UNL A   1      39.825  29.540  29.598  1.00  0.00     0.049 A 
ATOM     37  H   UNL A   1      39.885  30.478  31.456  1.00  0.00     0.167 HD
ATOM     38  C   UNL A   1      39.860  32.513  35.325  1.00  0.00     0.037 A 
ATOM     39  H   UNL A   1      37.724  34.293  34.905  1.00  0.00     0.065 H 
ATOM     40  H   UNL A   1      38.876  29.282  27.604  1.00  0.00     0.065 H 
ATOM     41  C   UNL A   1      40.833  28.648  29.572  1.00  0.00     0.037 A 
ATOM     42  C   UNL A   1      40.934  31.555  35.409  1.00  0.00     0.049 A 
ATOM     43  C   UNL A   1      41.720  28.509  30.775  1.00  0.00     0.074 A 
ATOM     44  C   UNL A   1      41.776  31.290  36.475  1.00  0.00    -0.036 A 
ATOM     45  N   UNL A   1      41.319  30.708  34.378  1.00  0.00    -0.354 N 
ATOM     46  N   UNL A   1      41.656  29.132  31.926  1.00  0.00    -0.248 NA
ATOM     47  C   UNL A   1      42.821  27.543  30.673  1.00  0.00    -0.034 C 
ATOM     48  C   UNL A   1      42.699  30.317  36.076  1.00  0.00    -0.036 A 
ATOM     49  H   UNL A   1      41.732  31.735  37.404  1.00  0.00     0.065 H 
ATOM     50  C   UNL A   1      42.401  29.938  34.776  1.00  0.00     0.049 A 
ATOM     51  H   UNL A   1      40.888  30.662  33.495  1.00  0.00     0.167 HD
ATOM     52  C   UNL A   1      42.692  28.621  32.693  1.00  0.00     0.074 A 
ATOM     53  C   UNL A   1      43.362  27.626  31.880  1.00  0.00    -0.034 C 
ATOM     54  H   UNL A   1      43.102  26.955  29.872  1.00  0.00     0.065 H 
ATOM     55  H   UNL A   1      43.470  29.944  36.651  1.00  0.00     0.065 H 
ATOM     56  C   UNL A   1      43.055  28.949  33.957  1.00  0.00     0.037 A 
ATOM     57  H   UNL A   1      44.158  27.054  32.201  1.00  0.00     0.065 H 
BRANCH  38  58
ATOM     58  C   UNL A   1      39.627  33.418  36.501  1.00  0.00     0.064 A 
ATOM     59  C   UNL A   1      40.248  34.672  36.604  1.00  0.00     0.173 A 
ATOM     60  C   UNL A   1      38.746  33.039  37.524  1.00  0.00     0.173 A 
ATOM     61  F   UNL A   1      41.107  35.080  35.658  1.00  0.00    -0.203 F 
ATOM     62  C   UNL A   1      40.019  35.498  37.703  1.00  0.00     0.198 A 
ATOM     63  C   UNL A   1      38.498  33.877  38.609  1.00  0.00     0.198 A 
ATOM     64  F   UNL A   1      38.118  31.854  37.472  1.00  0.00    -0.203 F 
ATOM     65  F   UNL A   1      40.662  36.669  37.804  1.00  0.00    -0.200 F 
ATOM     66  C   UNL A   1      39.142  35.102  38.701  1.00  0.00     0.200 A 
ATOM     67  F   UNL A   1      37.640  33.499  39.566  1.00  0.00    -0.200 F 
ATOM     68  F   UNL A   1      38.922  35.897  39.757  1.00  0.00    -0.200 F 
ENDBRANCH  38  58
BRANCH  41  69
ATOM     69  C   UNL A   1      41.030  27.805  28.366  1.00  0.00     0.064 A 
ATOM     70  C   UNL A   1      40.395  26.562  28.250  1.00  0.00     0.173 A 
ATOM     71  C   UNL A   1      41.826  28.237  27.296  1.00  0.00     0.173 A 
ATOM     72  F   UNL A   1      39.636  26.100  29.256  1.00  0.00    -0.203 F 
ATOM     73  C   UNL A   1      40.552  25.779  27.108  1.00  0.00     0.198 A 
ATOM     74  C   UNL A   1      41.962  27.466  26.146  1.00  0.00     0.198 A 
ATOM     75  F   UNL A   1      42.450  29.422  27.360  1.00  0.00    -0.203 F 
ATOM     76  F   UNL A   1      39.955  24.582  27.032  1.00  0.00    -0.200 F 
ATOM     77  C   UNL A   1      41.328  26.236  26.053  1.00  0.00     0.200 A 
ATOM     78  F   UNL A   1      42.700  27.918  25.122  1.00  0.00    -0.200 F 
ATOM     79  F   UNL A   1      41.468  25.490  24.950  1.00  0.00    -0.200 F 
ENDBRANCH  41  69
BRANCH  56  80
ATOM     80  C   UNL A   1      44.210  28.197  34.550  1.00  0.00     0.064 A 
ATOM     81  C   UNL A   1      45.524  28.681  34.468  1.00  0.00     0.173 A 
ATOM     82  C   UNL A   1      43.996  26.988  35.229  1.00  0.00     0.173 A 
ATOM     83  F   UNL A   1      45.783  29.823  33.815  1.00  0.00    -0.203 F 
ATOM     84  C   UNL A   1      46.584  27.968  35.021  1.00  0.00     0.198 A 
ATOM     85  C   UNL A   1      45.055  26.291  35.804  1.00  0.00     0.198 A 
ATOM     86  F   UNL A   1      42.757  26.484  35.338  1.00  0.00    -0.203 F 
ATOM     87  F   UNL A   1      47.838  28.424  34.889  1.00  0.00    -0.200 F 
ATOM     88  C   UNL A   1      46.348  26.777  35.694  1.00  0.00     0.200 A 
ATOM     89  F   UNL A   1      44.823  25.146  36.460  1.00  0.00    -0.200 F 
ATOM     90  F   UNL A   1      47.370  26.093  36.226  1.00  0.00    -0.200 F 
ENDBRANCH  56  80
ENDBRANCH  21  24
ENDBRANCH  12  14
ENDBRANCH   7  10
ENDBRANCH   4   7
ENDBRANCH   1   4
BRANCH   1  91
ATOM     91  C   UNL A   1      33.269  30.164  27.178  1.00  0.00    -0.052 C 
ATOM     92  H   UNL A   1      33.430  29.483  27.987  1.00  0.00     0.027 H 
ATOM     93  H   UNL A   1      33.775  31.102  27.272  1.00  0.00     0.027 H 
BRANCH  91  94
ATOM     94  C   UNL A   1      33.850  29.521  25.910  1.00  0.00    -0.036 C 
ATOM     95  H   UNL A   1      34.128  28.516  26.147  1.00  0.00     0.028 H 
ATOM     96  H   UNL A   1      34.673  30.141  25.618  1.00  0.00     0.028 H 
BRANCH  94  97
ATOM     97  C   UNL A   1      32.912  29.478  24.705  1.00  0.00     0.017 C 
ATOM     98  H   UNL A   1      32.379  30.403  24.655  1.00  0.00     0.049 H 
ATOM     99  H   UNL A   1      32.256  28.645  24.844  1.00  0.00     0.049 H 
BRANCH  97 100
ATOM    100  N   UNL A   1      33.606  29.276  23.453  1.00  0.00    -0.354 N 
ATOM    101  C   UNL A   1      33.747  28.185  22.652  1.00  0.00     0.249 C 
ATOM    102  H   UNL A   1      34.061  30.080  23.115  1.00  0.00     0.163 HD
ATOM    103  O   UNL A   1      34.378  28.391  21.607  1.00  0.00    -0.272 OA
BRANCH 101 104
ATOM    104  C   UNL A   1      33.223  26.761  22.997  1.00  0.00     0.140 C 
ATOM    105  C   UNL A   1      32.838  26.400  24.419  1.00  0.00     0.019 C 
ATOM    106  O   UNL A   1      32.079  26.465  22.176  1.00  0.00    -0.357 OA
ATOM    107  H   UNL A   1      34.103  26.179  22.816  1.00  0.00     0.071 H 
ATOM    108  C   UNL A   1      31.360  25.992  24.412  1.00  0.00     0.124 C 
ATOM    109  H   UNL A   1      32.980  27.246  25.060  1.00  0.00     0.033 H 
ATOM    110  H   UNL A   1      33.447  25.599  24.782  1.00  0.00     0.033 H 
ATOM    111  C   UNL A   1      30.893  26.408  22.992  1.00  0.00     0.118 C 
ATOM    112  H   UNL A   1      30.172  25.669  22.714  1.00  0.00     0.069 H 
BRANCH 108 113
ATOM    113  C   UNL A   1      31.247  24.549  24.945  1.00  0.00     0.005 A 
ATOM    114  C   UNL A   1      30.585  24.414  26.201  1.00  0.00    -0.055 A 
ATOM    115  C   UNL A   1      31.732  23.356  24.377  1.00  0.00     0.047 A 
ATOM    116  C   UNL A   1      30.379  23.183  26.826  1.00  0.00    -0.062 A 
ATOM    117  H   UNL A   1      30.242  25.267  26.670  1.00  0.00     0.063 H 
ATOM    118  C   UNL A   1      31.488  22.113  24.995  1.00  0.00    -0.043 A 
ATOM    119  Cl  UNL A   1      32.712  23.246  22.964  1.00  0.00    -0.084 Cl
ATOM    120  C   UNL A   1      30.816  22.024  26.210  1.00  0.00    -0.061 A 
ATOM    121  H   UNL A   1      29.905  23.138  27.742  1.00  0.00     0.062 H 
ATOM    122  H   UNL A   1      31.816  21.248  24.536  1.00  0.00     0.064 H 
ATOM    123  H   UNL A   1      30.645  21.104  26.646  1.00  0.00     0.062 H 
ENDBRANCH 108 113
BRANCH 108 124
ATOM    124  O   UNL A   1      30.689  26.807  25.402  1.00  0.00    -0.382 OA
ATOM    125  H   UNL A   1      31.285  27.510  25.701  1.00  0.00     0.212 HD
ENDBRANCH 108 124
BRANCH 111 126
ATOM    126  C   UNL A   1      30.099  27.705  22.814  1.00  0.00     0.003 A 
ATOM    127  C   UNL A   1      30.686  28.843  22.226  1.00  0.00    -0.055 A 
ATOM    128  C   UNL A   1      28.741  27.808  23.182  1.00  0.00     0.046 A 
ATOM    129  C   UNL A   1      29.946  29.996  21.949  1.00  0.00    -0.062 A 
ATOM    130  H   UNL A   1      31.692  28.824  21.994  1.00  0.00     0.063 H 
ATOM    131  C   UNL A   1      28.004  28.970  22.915  1.00  0.00    -0.043 A 
ATOM    132  Cl  UNL A   1      27.892  26.544  24.008  1.00  0.00    -0.084 Cl
ATOM    133  C   UNL A   1      28.601  30.056  22.283  1.00  0.00    -0.061 A 
ATOM    134  H   UNL A   1      30.401  30.803  21.494  1.00  0.00     0.062 H 
ATOM    135  H   UNL A   1      27.010  29.021  23.190  1.00  0.00     0.064 H 
ATOM    136  H   UNL A   1      28.048  30.900  22.065  1.00  0.00     0.062 H 
ENDBRANCH 111 126
ENDBRANCH 101 104
ENDBRANCH  97 100
ENDBRANCH  94  97
ENDBRANCH  91  94
ENDBRANCH   1  91
TORSDOF 16
ENDMDL
MODEL 4
REMARK VINA RESULT:     -10.6      6.454     11.480
REMARK SMILES O=C(NCCCCCCNC(=O)[C@H]1C[C@](O)(c2ccccc2Cl)[C@@H](c2ccccc2Cl)O1)c1ccc(-c2c3nc(c(-c4c(F)c(F)c(F)c(F)c4F)c4ccc([nH]4)c(-c4c(F)c(F)c(F)c(F)c4F)c4nc(c(-c5c(F)c(F)c(F)c(F)c5F)c5ccc2[nH]5)C=C4)C=C3)cc1
REMARK SMILES IDX 6 1 5 4 4 7 3 10 1 11 2 12 33 14 34 15 95 16 35 17 94 19
REMARK SMILES IDX 36 21 37 24 38 25 88 26 39 27 93 28 87 29 89 30 40 31 92 32
REMARK SMILES IDX 86 34 85 36 41 38 73 41 53 42 72 43 54 44 57 45 71 46 90 47
REMARK SMILES IDX 55 48 56 50 70 52 91 53 58 56 42 58 43 59 51 60 44 61 45 62
REMARK SMILES IDX 49 63 52 64 46 65 47 66 50 67 48 68 74 69 75 70 83 71 76 72
REMARK SMILES IDX 77 73 81 74 84 75 78 76 79 77 82 78 80 79 59 80 60 81 68 82
REMARK SMILES IDX 61 83 62 84 66 85 69 86 63 87 64 88 67 89 65 90 7 91 8 94
REMARK SMILES IDX 9 97 10 100 11 101 12 103 13 104 14 105 32 106 15 108 24 111
REMARK SMILES IDX 17 113 18 114 22 115 19 116 21 118 23 119 20 120 16 124
REMARK SMILES IDX 25 126 26 127 30 128 27 129 29 131 31 132 28 133
REMARK H PARENT 6 2 6 3 5 5 5 6 4 8 4 9 3 13 34 18 95 20 35 22 94 23 93 33
REMARK H PARENT 87 35 89 37 92 39 86 40 54 49 57 51 90 54 55 55 91 57 7 92
REMARK H PARENT 7 93 8 95 8 96 9 98 9 99 10 102 13 107 14 109 14 110 24 112
REMARK H PARENT 18 117 19 121 21 122 20 123 16 125 26 130 27 134 29 135 28 136
REMARK Flexibility Score: inf
ROOT
ATOM      1  C   UNL A   1      31.826  30.581  27.172  1.00  0.00    -0.052 C 
ATOM      2  H   UNL A   1      31.325  30.024  26.408  1.00  0.00     0.027 H 
ATOM      3  H   UNL A   1      31.466  30.401  28.163  1.00  0.00     0.027 H 
ENDROOT
BRANCH   1   4
ATOM      4  C   UNL A   1      31.565  32.065  26.911  1.00  0.00    -0.036 C 
ATOM      5  H   UNL A   1      31.221  32.163  25.903  1.00  0.00     0.028 H 
ATOM      6  H   UNL A   1      30.853  32.364  27.651  1.00  0.00     0.028 H 
BRANCH   4   7
ATOM      7  C   UNL A   1      32.756  32.999  27.089  1.00  0.00     0.018 C 
ATOM      8  H   UNL A   1      33.451  32.534  27.757  1.00  0.00     0.049 H 
ATOM      9  H   UNL A   1      33.168  33.163  26.115  1.00  0.00     0.049 H 
BRANCH   7  10
ATOM     10  N   UNL A   1      32.409  34.301  27.625  1.00  0.00    -0.352 N 
ATOM     11  O   UNL A   1      32.514  36.060  29.037  1.00  0.00    -0.269 OA
ATOM     12  C   UNL A   1      32.979  34.988  28.674  1.00  0.00     0.251 C 
ATOM     13  H   UNL A   1      31.661  34.759  27.177  1.00  0.00     0.163 HD
BRANCH  12  14
ATOM     14  C   UNL A   1      34.135  34.406  29.395  1.00  0.00     0.039 A 
ATOM     15  C   UNL A   1      35.444  34.610  28.953  1.00  0.00    -0.049 A 
ATOM     16  C   UNL A   1      33.894  33.630  30.533  1.00  0.00    -0.049 A 
ATOM     17  C   UNL A   1      36.493  33.924  29.557  1.00  0.00    -0.053 A 
ATOM     18  H   UNL A   1      35.633  35.268  28.181  1.00  0.00     0.063 H 
ATOM     19  C   UNL A   1      34.958  33.005  31.188  1.00  0.00    -0.053 A 
ATOM     20  H   UNL A   1      32.932  33.521  30.889  1.00  0.00     0.063 H 
ATOM     21  C   UNL A   1      36.263  33.115  30.682  1.00  0.00    -0.014 A 
ATOM     22  H   UNL A   1      37.449  34.011  29.177  1.00  0.00     0.063 H 
ATOM     23  H   UNL A   1      34.784  32.459  32.046  1.00  0.00     0.063 H 
BRANCH  21  24
ATOM     24  C   UNL A   1      37.402  32.421  31.335  1.00  0.00     0.031 A 
ATOM     25  C   UNL A   1      38.162  31.336  30.625  1.00  0.00     0.074 A 
ATOM     26  C   UNL A   1      37.766  32.796  32.576  1.00  0.00     0.049 A 
ATOM     27  N   UNL A   1      39.194  30.642  31.039  1.00  0.00    -0.248 NA
ATOM     28  C   UNL A   1      37.698  30.973  29.277  1.00  0.00    -0.034 C 
ATOM     29  C   UNL A   1      37.099  33.829  33.370  1.00  0.00    -0.036 A 
ATOM     30  N   UNL A   1      38.789  32.365  33.381  1.00  0.00    -0.354 N 
ATOM     31  C   UNL A   1      39.487  29.748  30.017  1.00  0.00     0.074 A 
ATOM     32  C   UNL A   1      38.512  29.971  28.972  1.00  0.00    -0.034 C 
ATOM     33  H   UNL A   1      36.939  31.389  28.717  1.00  0.00     0.065 H 
ATOM     34  C   UNL A   1      37.757  33.985  34.528  1.00  0.00    -0.036 A 
ATOM     35  H   UNL A   1      36.258  34.354  33.085  1.00  0.00     0.065 H 
ATOM     36  C   UNL A   1      38.857  33.028  34.580  1.00  0.00     0.049 A 
ATOM     37  H   UNL A   1      39.415  31.650  33.123  1.00  0.00     0.167 HD
ATOM     38  C   UNL A   1      40.485  28.832  29.956  1.00  0.00     0.037 A 
ATOM     39  H   UNL A   1      38.455  29.420  28.100  1.00  0.00     0.065 H 
ATOM     40  H   UNL A   1      37.525  34.672  35.262  1.00  0.00     0.065 H 
ATOM     41  C   UNL A   1      39.705  32.876  35.614  1.00  0.00     0.037 A 
ATOM     42  C   UNL A   1      41.467  28.628  30.992  1.00  0.00     0.049 A 
ATOM     43  C   UNL A   1      40.791  31.844  35.527  1.00  0.00     0.074 A 
ATOM     44  C   UNL A   1      42.544  27.758  31.003  1.00  0.00    -0.036 A 
ATOM     45  N   UNL A   1      41.485  29.300  32.207  1.00  0.00    -0.354 N 
ATOM     46  N   UNL A   1      41.084  31.035  34.539  1.00  0.00    -0.248 NA
ATOM     47  C   UNL A   1      41.662  31.703  36.700  1.00  0.00    -0.034 C 
ATOM     48  C   UNL A   1      43.186  27.870  32.241  1.00  0.00    -0.036 A 
ATOM     49  H   UNL A   1      42.824  27.134  30.231  1.00  0.00     0.065 H 
ATOM     50  C   UNL A   1      42.540  28.845  32.984  1.00  0.00     0.049 A 
ATOM     51  H   UNL A   1      40.843  29.995  32.477  1.00  0.00     0.167 HD
ATOM     52  C   UNL A   1      42.184  30.303  34.961  1.00  0.00     0.074 A 
ATOM     53  C   UNL A   1      42.515  30.775  36.290  1.00  0.00    -0.034 C 
ATOM     54  H   UNL A   1      41.622  32.196  37.607  1.00  0.00     0.065 H 
ATOM     55  H   UNL A   1      44.003  27.320  32.549  1.00  0.00     0.065 H 
ATOM     56  C   UNL A   1      42.859  29.328  34.304  1.00  0.00     0.037 A 
ATOM     57  H   UNL A   1      43.314  30.433  36.846  1.00  0.00     0.065 H 
BRANCH  38  58
ATOM     58  C   UNL A   1      40.553  27.961  28.734  1.00  0.00     0.064 A 
ATOM     59  C   UNL A   1      39.870  26.738  28.659  1.00  0.00     0.173 A 
ATOM     60  C   UNL A   1      41.289  28.370  27.612  1.00  0.00     0.173 A 
ATOM     61  F   UNL A   1      39.159  26.295  29.707  1.00  0.00    -0.203 F 
ATOM     62  C   UNL A   1      39.946  25.944  27.516  1.00  0.00     0.198 A 
ATOM     63  C   UNL A   1      41.342  27.587  26.461  1.00  0.00     0.198 A 
ATOM     64  F   UNL A   1      41.954  29.535  27.627  1.00  0.00    -0.203 F 
ATOM     65  F   UNL A   1      39.326  24.756  27.486  1.00  0.00    -0.200 F 
ATOM     66  C   UNL A   1      40.678  26.370  26.418  1.00  0.00     0.200 A 
ATOM     67  F   UNL A   1      42.038  28.007  25.397  1.00  0.00    -0.200 F 
ATOM     68  F   UNL A   1      40.749  25.605  25.320  1.00  0.00    -0.200 F 
ENDBRANCH  38  58
BRANCH  41  69
ATOM     69  C   UNL A   1      39.565  33.749  36.808  1.00  0.00     0.064 A 
ATOM     70  C   UNL A   1      40.180  35.006  36.853  1.00  0.00     0.173 A 
ATOM     71  C   UNL A   1      38.787  33.359  37.908  1.00  0.00     0.173 A 
ATOM     72  F   UNL A   1      40.947  35.413  35.830  1.00  0.00    -0.203 F 
ATOM     73  C   UNL A   1      40.027  35.841  37.957  1.00  0.00     0.198 A 
ATOM     74  C   UNL A   1      38.614  34.205  39.000  1.00  0.00     0.198 A 
ATOM     75  F   UNL A   1      38.174  32.167  37.908  1.00  0.00    -0.203 F 
ATOM     76  F   UNL A   1      40.648  37.028  37.988  1.00  0.00    -0.200 F 
ATOM     77  C   UNL A   1      39.237  35.444  39.026  1.00  0.00     0.200 A 
ATOM     78  F   UNL A   1      37.837  33.824  40.023  1.00  0.00    -0.200 F 
ATOM     79  F   UNL A   1      39.079  36.253  40.081  1.00  0.00    -0.200 F 
ENDBRANCH  41  69
BRANCH  56  80
ATOM     80  C   UNL A   1      44.045  28.731  35.003  1.00  0.00     0.064 A 
ATOM     81  C   UNL A   1      43.925  27.592  35.813  1.00  0.00     0.173 A 
ATOM     82  C   UNL A   1      45.320  29.293  34.840  1.00  0.00     0.173 A 
ATOM     83  F   UNL A   1      42.725  27.029  36.014  1.00  0.00    -0.203 F 
ATOM     84  C   UNL A   1      45.037  27.054  36.457  1.00  0.00     0.198 A 
ATOM     85  C   UNL A   1      46.433  28.736  35.465  1.00  0.00     0.198 A 
ATOM     86  F   UNL A   1      45.487  30.380  34.073  1.00  0.00    -0.203 F 
ATOM     87  F   UNL A   1      44.893  25.996  37.267  1.00  0.00    -0.200 F 
ATOM     88  C   UNL A   1      46.290  27.623  36.278  1.00  0.00     0.200 A 
ATOM     89  F   UNL A   1      47.643  29.281  35.282  1.00  0.00    -0.200 F 
ATOM     90  F   UNL A   1      47.358  27.102  36.898  1.00  0.00    -0.200 F 
ENDBRANCH  56  80
ENDBRANCH  21  24
ENDBRANCH  12  14
ENDBRANCH   7  10
ENDBRANCH   4   7
ENDBRANCH   1   4
BRANCH   1  91
ATOM     91  C   UNL A   1      33.292  30.136  27.187  1.00  0.00    -0.052 C 
ATOM     92  H   UNL A   1      33.414  29.452  28.001  1.00  0.00     0.027 H 
ATOM     93  H   UNL A   1      33.857  31.041  27.271  1.00  0.00     0.027 H 
BRANCH  91  94
ATOM     94  C   UNL A   1      33.823  29.449  25.921  1.00  0.00    -0.036 C 
ATOM     95  H   UNL A   1      34.006  28.421  26.156  1.00  0.00     0.028 H 
ATOM     96  H   UNL A   1      34.701  29.991  25.640  1.00  0.00     0.028 H 
BRANCH  94  97
ATOM     97  C   UNL A   1      32.896  29.496  24.708  1.00  0.00     0.017 C 
ATOM     98  H   UNL A   1      32.416  30.451  24.684  1.00  0.00     0.049 H 
ATOM     99  H   UNL A   1      32.193  28.697  24.815  1.00  0.00     0.049 H 
BRANCH  97 100
ATOM    100  N   UNL A   1      33.589  29.294  23.456  1.00  0.00    -0.354 N 
ATOM    101  C   UNL A   1      33.732  28.204  22.655  1.00  0.00     0.249 C 
ATOM    102  H   UNL A   1      34.044  30.100  23.118  1.00  0.00     0.163 HD
ATOM    103  O   UNL A   1      34.363  28.410  21.610  1.00  0.00    -0.272 OA
BRANCH 101 104
ATOM    104  C   UNL A   1      33.211  26.779  23.001  1.00  0.00     0.140 C 
ATOM    105  C   UNL A   1      32.819  26.421  24.422  1.00  0.00     0.019 C 
ATOM    106  O   UNL A   1      32.073  26.478  22.175  1.00  0.00    -0.357 OA
ATOM    107  H   UNL A   1      34.094  26.199  22.827  1.00  0.00     0.071 H 
ATOM    108  C   UNL A   1      31.343  26.007  24.408  1.00  0.00     0.124 C 
ATOM    109  H   UNL A   1      32.955  27.268  25.061  1.00  0.00     0.033 H 
ATOM    110  H   UNL A   1      33.429  25.622  24.790  1.00  0.00     0.033 H 
ATOM    111  C   UNL A   1      30.882  26.418  22.985  1.00  0.00     0.118 C 
ATOM    112  H   UNL A   1      30.165  25.676  22.705  1.00  0.00     0.069 H 
BRANCH 108 113
ATOM    113  C   UNL A   1      31.231  24.565  24.944  1.00  0.00     0.005 A 
ATOM    114  C   UNL A   1      30.546  24.429  26.187  1.00  0.00    -0.055 A 
ATOM    115  C   UNL A   1      31.738  23.375  24.390  1.00  0.00     0.047 A 
ATOM    116  C   UNL A   1      30.338  23.199  26.813  1.00  0.00    -0.062 A 
ATOM    117  H   UNL A   1      30.186  25.281  26.645  1.00  0.00     0.063 H 
ATOM    118  C   UNL A   1      31.492  22.132  25.008  1.00  0.00    -0.043 A 
ATOM    119  Cl  UNL A   1      32.747  23.268  22.997  1.00  0.00    -0.084 Cl
ATOM    120  C   UNL A   1      30.797  22.041  26.210  1.00  0.00    -0.061 A 
ATOM    121  H   UNL A   1      29.846  23.153  27.719  1.00  0.00     0.062 H 
ATOM    122  H   UNL A   1      31.836  21.269  24.558  1.00  0.00     0.064 H 
ATOM    123  H   UNL A   1      30.625  21.122  26.646  1.00  0.00     0.062 H 
ENDBRANCH 108 113
BRANCH 108 124
ATOM    124  O   UNL A   1      30.664  26.823  25.392  1.00  0.00    -0.382 OA
ATOM    125  H   UNL A   1      30.760  26.419  26.269  1.00  0.00     0.212 HD
ENDBRANCH 108 124
BRANCH 111 126
ATOM    126  C   UNL A   1      30.085  27.713  22.799  1.00  0.00     0.003 A 
ATOM    127  C   UNL A   1      30.666  28.845  22.194  1.00  0.00    -0.055 A 
ATOM    128  C   UNL A   1      28.730  27.817  23.176  1.00  0.00     0.046 A 
ATOM    129  C   UNL A   1      29.922  29.994  21.910  1.00  0.00    -0.062 A 
ATOM    130  H   UNL A   1      31.670  28.825  21.953  1.00  0.00     0.063 H 
ATOM    131  C   UNL A   1      27.989  28.976  22.904  1.00  0.00    -0.043 A 
ATOM    132  Cl  UNL A   1      27.889  26.562  24.023  1.00  0.00    -0.084 Cl
ATOM    133  C   UNL A   1      28.580  30.056  22.255  1.00  0.00    -0.061 A 
ATOM    134  H   UNL A   1      30.373  30.797  21.443  1.00  0.00     0.062 H 
ATOM    135  H   UNL A   1      26.998  29.028  23.185  1.00  0.00     0.064 H 
ATOM    136  H   UNL A   1      28.024  30.897  22.032  1.00  0.00     0.062 H 
ENDBRANCH 111 126
ENDBRANCH 101 104
ENDBRANCH  97 100
ENDBRANCH  94  97
ENDBRANCH  91  94
ENDBRANCH   1  91
TORSDOF 16
ENDMDL
MODEL 5
REMARK VINA RESULT:     -10.6      6.505     11.918
REMARK SMILES O=C(NCCCCCCNC(=O)[C@H]1C[C@](O)(c2ccccc2Cl)[C@@H](c2ccccc2Cl)O1)c1ccc(-c2c3nc(c(-c4c(F)c(F)c(F)c(F)c4F)c4ccc([nH]4)c(-c4c(F)c(F)c(F)c(F)c4F)c4nc(c(-c5c(F)c(F)c(F)c(F)c5F)c5ccc2[nH]5)C=C4)C=C3)cc1
REMARK SMILES IDX 6 1 5 4 4 7 3 10 1 11 2 12 33 14 34 15 95 16 35 17 94 19
REMARK SMILES IDX 36 21 37 24 38 25 88 26 39 27 93 28 87 29 89 30 40 31 92 32
REMARK SMILES IDX 86 34 85 36 41 38 73 41 53 42 72 43 54 44 57 45 71 46 90 47
REMARK SMILES IDX 55 48 56 50 70 52 91 53 58 56 42 58 43 59 51 60 44 61 45 62
REMARK SMILES IDX 49 63 52 64 46 65 47 66 50 67 48 68 74 69 75 70 83 71 76 72
REMARK SMILES IDX 77 73 81 74 84 75 78 76 79 77 82 78 80 79 59 80 60 81 68 82
REMARK SMILES IDX 61 83 62 84 66 85 69 86 63 87 64 88 67 89 65 90 7 91 8 94
REMARK SMILES IDX 9 97 10 100 11 101 12 103 13 104 14 105 32 106 15 108 24 111
REMARK SMILES IDX 17 113 18 114 22 115 19 116 21 118 23 119 20 120 16 124
REMARK SMILES IDX 25 126 26 127 30 128 27 129 29 131 31 132 28 133
REMARK H PARENT 6 2 6 3 5 5 5 6 4 8 4 9 3 13 34 18 95 20 35 22 94 23 93 33
REMARK H PARENT 87 35 89 37 92 39 86 40 54 49 57 51 90 54 55 55 91 57 7 92
REMARK H PARENT 7 93 8 95 8 96 9 98 9 99 10 102 13 107 14 109 14 110 24 112
REMARK H PARENT 18 117 19 121 21 122 20 123 16 125 26 130 27 134 29 135 28 136
REMARK Flexibility Score: inf
ROOT
ATOM      1  C   UNL A   1      34.699  33.717  29.137  1.00  0.00    -0.052 C 
ATOM      2  H   UNL A   1      35.020  33.870  30.146  1.00  0.00     0.027 H 
ATOM      3  H   UNL A   1      35.387  34.061  28.393  1.00  0.00     0.027 H 
ENDROOT
BRANCH   1   4
ATOM      4  C   UNL A   1      33.429  34.543  28.925  1.00  0.00    -0.036 C 
ATOM      5  H   UNL A   1      33.300  34.677  27.871  1.00  0.00     0.028 H 
ATOM      6  H   UNL A   1      32.646  33.988  29.397  1.00  0.00     0.028 H 
BRANCH   4   7
ATOM      7  C   UNL A   1      33.405  35.920  29.575  1.00  0.00     0.018 C 
ATOM      8  H   UNL A   1      34.383  36.128  29.958  1.00  0.00     0.049 H 
ATOM      9  H   UNL A   1      33.104  36.614  28.819  1.00  0.00     0.049 H 
BRANCH   7  10
ATOM     10  N   UNL A   1      32.453  36.043  30.663  1.00  0.00    -0.352 N 
ATOM     11  O   UNL A   1      31.633  35.755  32.746  1.00  0.00    -0.269 OA
ATOM     12  C   UNL A   1      32.571  35.627  31.970  1.00  0.00     0.251 C 
ATOM     13  H   UNL A   1      31.604  36.486  30.434  1.00  0.00     0.163 HD
BRANCH  12  14
ATOM     14  C   UNL A   1      33.822  34.980  32.428  1.00  0.00     0.039 A 
ATOM     15  C   UNL A   1      35.042  35.659  32.402  1.00  0.00    -0.049 A 
ATOM     16  C   UNL A   1      33.767  33.659  32.883  1.00  0.00    -0.049 A 
ATOM     17  C   UNL A   1      36.220  34.977  32.691  1.00  0.00    -0.053 A 
ATOM     18  H   UNL A   1      35.069  36.664  32.172  1.00  0.00     0.063 H 
ATOM     19  C   UNL A   1      34.943  32.997  33.248  1.00  0.00    -0.053 A 
ATOM     20  H   UNL A   1      32.859  33.173  32.950  1.00  0.00     0.063 H 
ATOM     21  C   UNL A   1      36.185  33.639  33.117  1.00  0.00    -0.014 A 
ATOM     22  H   UNL A   1      37.128  35.457  32.590  1.00  0.00     0.063 H 
ATOM     23  H   UNL A   1      34.899  32.034  33.614  1.00  0.00     0.063 H 
BRANCH  21  24
ATOM     24  C   UNL A   1      37.451  32.941  33.456  1.00  0.00     0.031 A 
ATOM     25  C   UNL A   1      38.162  33.206  34.753  1.00  0.00     0.074 A 
ATOM     26  C   UNL A   1      37.948  32.040  32.588  1.00  0.00     0.049 A 
ATOM     27  N   UNL A   1      39.264  32.670  35.217  1.00  0.00    -0.248 NA
ATOM     28  C   UNL A   1      37.565  34.212  35.645  1.00  0.00    -0.034 C 
ATOM     29  C   UNL A   1      37.353  31.705  31.293  1.00  0.00    -0.036 A 
ATOM     30  N   UNL A   1      39.054  31.233  32.666  1.00  0.00    -0.354 N 
ATOM     31  C   UNL A   1      39.504  33.287  36.438  1.00  0.00     0.074 A 
ATOM     32  C   UNL A   1      38.446  34.255  36.634  1.00  0.00    -0.034 C 
ATOM     33  H   UNL A   1      36.689  34.745  35.530  1.00  0.00     0.065 H 
ATOM     34  C   UNL A   1      38.073  30.730  30.719  1.00  0.00    -0.036 A 
ATOM     35  H   UNL A   1      36.515  32.148  30.887  1.00  0.00     0.065 H 
ATOM     36  C   UNL A   1      39.208  30.410  31.579  1.00  0.00     0.049 A 
ATOM     37  H   UNL A   1      39.677  31.243  33.428  1.00  0.00     0.167 HD
ATOM     38  C   UNL A   1      40.512  33.060  37.316  1.00  0.00     0.037 A 
ATOM     39  H   UNL A   1      38.386  34.896  37.441  1.00  0.00     0.065 H 
ATOM     40  H   UNL A   1      37.858  30.278  29.816  1.00  0.00     0.065 H 
ATOM     41  C   UNL A   1      40.162  29.504  31.298  1.00  0.00     0.037 A 
ATOM     42  C   UNL A   1      41.553  32.081  37.124  1.00  0.00     0.049 A 
ATOM     43  C   UNL A   1      41.276  29.283  32.280  1.00  0.00     0.074 A 
ATOM     44  C   UNL A   1      42.590  31.743  37.977  1.00  0.00    -0.036 A 
ATOM     45  N   UNL A   1      41.692  31.286  35.995  1.00  0.00    -0.354 N 
ATOM     46  N   UNL A   1      41.469  29.842  33.449  1.00  0.00    -0.248 NA
ATOM     47  C   UNL A   1      42.304  28.307  31.902  1.00  0.00    -0.034 C 
ATOM     48  C   UNL A   1      43.382  30.778  37.346  1.00  0.00    -0.036 A 
ATOM     49  H   UNL A   1      42.752  32.137  38.916  1.00  0.00     0.065 H 
ATOM     50  C   UNL A   1      42.811  30.477  36.119  1.00  0.00     0.049 A 
ATOM     51  H   UNL A   1      41.086  31.296  35.220  1.00  0.00     0.167 HD
ATOM     52  C   UNL A   1      42.627  29.273  33.957  1.00  0.00     0.074 A 
ATOM     53  C   UNL A   1      43.085  28.313  32.973  1.00  0.00    -0.034 C 
ATOM     54  H   UNL A   1      42.396  27.759  31.031  1.00  0.00     0.065 H 
ATOM     55  H   UNL A   1      44.245  30.361  37.727  1.00  0.00     0.065 H 
ATOM     56  C   UNL A   1      43.253  29.524  35.132  1.00  0.00     0.037 A 
ATOM     57  H   UNL A   1      43.914  27.710  33.092  1.00  0.00     0.065 H 
BRANCH  38  58
ATOM     58  C   UNL A   1      40.553  33.902  38.558  1.00  0.00     0.064 A 
ATOM     59  C   UNL A   1      39.843  33.548  39.716  1.00  0.00     0.173 A 
ATOM     60  C   UNL A   1      41.336  35.065  38.601  1.00  0.00     0.173 A 
ATOM     61  F   UNL A   1      39.071  32.451  39.726  1.00  0.00    -0.203 F 
ATOM     62  C   UNL A   1      39.893  34.344  40.859  1.00  0.00     0.198 A 
ATOM     63  C   UNL A   1      41.405  35.844  39.754  1.00  0.00     0.198 A 
ATOM     64  F   UNL A   1      42.041  35.446  37.526  1.00  0.00    -0.203 F 
ATOM     65  F   UNL A   1      39.168  34.012  41.936  1.00  0.00    -0.200 F 
ATOM     66  C   UNL A   1      40.677  35.487  40.879  1.00  0.00     0.200 A 
ATOM     67  F   UNL A   1      42.173  36.942  39.775  1.00  0.00    -0.200 F 
ATOM     68  F   UNL A   1      40.724  36.251  41.979  1.00  0.00    -0.200 F 
ENDBRANCH  38  58
BRANCH  41  69
ATOM     69  C   UNL A   1      40.081  28.725  30.036  1.00  0.00     0.064 A 
ATOM     70  C   UNL A   1      40.673  29.202  28.860  1.00  0.00     0.173 A 
ATOM     71  C   UNL A   1      39.443  27.477  29.990  1.00  0.00     0.173 A 
ATOM     72  F   UNL A   1      41.280  30.400  28.854  1.00  0.00    -0.203 F 
ATOM     73  C   UNL A   1      40.626  28.462  27.681  1.00  0.00     0.198 A 
ATOM     74  C   UNL A   1      39.419  26.727  28.818  1.00  0.00     0.198 A 
ATOM     75  F   UNL A   1      38.867  26.977  31.092  1.00  0.00    -0.203 F 
ATOM     76  F   UNL A   1      41.176  28.953  26.562  1.00  0.00    -0.200 F 
ATOM     77  C   UNL A   1      40.007  27.221  27.663  1.00  0.00     0.200 A 
ATOM     78  F   UNL A   1      38.835  25.521  28.809  1.00  0.00    -0.200 F 
ATOM     79  F   UNL A   1      39.974  26.503  26.533  1.00  0.00    -0.200 F 
ENDBRANCH  41  69
BRANCH  56  80
ATOM     80  C   UNL A   1      44.484  28.721  35.433  1.00  0.00     0.064 A 
ATOM     81  C   UNL A   1      44.414  27.484  36.090  1.00  0.00     0.173 A 
ATOM     82  C   UNL A   1      45.748  29.185  35.037  1.00  0.00     0.173 A 
ATOM     83  F   UNL A   1      43.232  27.005  36.504  1.00  0.00    -0.203 F 
ATOM     84  C   UNL A   1      45.568  26.754  36.365  1.00  0.00     0.198 A 
ATOM     85  C   UNL A   1      46.896  28.440  35.290  1.00  0.00     0.198 A 
ATOM     86  F   UNL A   1      45.867  30.361  34.403  1.00  0.00    -0.203 F 
ATOM     87  F   UNL A   1      45.483  25.598  37.038  1.00  0.00    -0.200 F 
ATOM     88  C   UNL A   1      46.807  27.229  35.959  1.00  0.00     0.200 A 
ATOM     89  F   UNL A   1      48.090  28.897  34.888  1.00  0.00    -0.200 F 
ATOM     90  F   UNL A   1      47.916  26.524  36.223  1.00  0.00    -0.200 F 
ENDBRANCH  56  80
ENDBRANCH  21  24
ENDBRANCH  12  14
ENDBRANCH   7  10
ENDBRANCH   4   7
ENDBRANCH   1   4
BRANCH   1  91
ATOM     91  C   UNL A   1      34.579  32.207  28.910  1.00  0.00    -0.052 C 
ATOM     92  H   UNL A   1      34.350  31.756  29.852  1.00  0.00     0.027 H 
ATOM     93  H   UNL A   1      35.518  31.914  28.487  1.00  0.00     0.027 H 
BRANCH  91  94
ATOM     94  C   UNL A   1      33.521  31.738  27.901  1.00  0.00    -0.036 C 
ATOM     95  H   UNL A   1      33.483  32.452  27.106  1.00  0.00     0.028 H 
ATOM     96  H   UNL A   1      32.608  31.655  28.452  1.00  0.00     0.028 H 
BRANCH  94  97
ATOM     97  C   UNL A   1      33.764  30.361  27.286  1.00  0.00     0.017 C 
ATOM     98  H   UNL A   1      34.623  29.927  27.752  1.00  0.00     0.049 H 
ATOM     99  H   UNL A   1      33.907  30.504  26.236  1.00  0.00     0.049 H 
BRANCH  97 100
ATOM    100  N   UNL A   1      32.644  29.461  27.449  1.00  0.00    -0.354 N 
ATOM    101  C   UNL A   1      32.457  28.162  27.092  1.00  0.00     0.249 C 
ATOM    102  H   UNL A   1      31.872  29.865  27.906  1.00  0.00     0.163 HD
ATOM    103  O   UNL A   1      31.371  27.682  27.443  1.00  0.00    -0.272 OA
BRANCH 101 104
ATOM    104  C   UNL A   1      33.469  27.317  26.265  1.00  0.00     0.140 C 
ATOM    105  C   UNL A   1      33.425  25.801  26.301  1.00  0.00     0.019 C 
ATOM    106  O   UNL A   1      33.380  27.695  24.880  1.00  0.00    -0.357 OA
ATOM    107  H   UNL A   1      34.383  27.558  26.767  1.00  0.00     0.071 H 
ATOM    108  C   UNL A   1      33.181  25.308  24.871  1.00  0.00     0.124 C 
ATOM    109  H   UNL A   1      32.632  25.475  26.941  1.00  0.00     0.033 H 
ATOM    110  H   UNL A   1      34.345  25.408  26.682  1.00  0.00     0.033 H 
ATOM    111  C   UNL A   1      32.821  26.612  24.112  1.00  0.00     0.118 C 
ATOM    112  H   UNL A   1      33.226  26.479  23.131  1.00  0.00     0.069 H 
BRANCH 108 113
ATOM    113  C   UNL A   1      34.352  24.392  24.460  1.00  0.00     0.005 A 
ATOM    114  C   UNL A   1      35.466  24.391  25.350  1.00  0.00    -0.055 A 
ATOM    115  C   UNL A   1      34.483  23.585  23.314  1.00  0.00     0.047 A 
ATOM    116  C   UNL A   1      36.606  23.613  25.144  1.00  0.00    -0.062 A 
ATOM    117  H   UNL A   1      35.427  24.994  26.187  1.00  0.00     0.063 H 
ATOM    118  C   UNL A   1      35.621  22.774  23.131  1.00  0.00    -0.043 A 
ATOM    119  Cl  UNL A   1      33.374  23.531  21.995  1.00  0.00    -0.084 Cl
ATOM    120  C   UNL A   1      36.676  22.784  24.039  1.00  0.00    -0.061 A 
ATOM    121  H   UNL A   1      37.392  23.655  25.812  1.00  0.00     0.062 H 
ATOM    122  H   UNL A   1      35.673  22.157  22.305  1.00  0.00     0.064 H 
ATOM    123  H   UNL A   1      37.499  22.181  23.889  1.00  0.00     0.062 H 
ENDBRANCH 108 113
BRANCH 108 124
ATOM    124  O   UNL A   1      32.026  24.436  24.913  1.00  0.00    -0.382 OA
ATOM    125  H   UNL A   1      31.893  24.118  25.820  1.00  0.00     0.212 HD
ENDBRANCH 108 124
BRANCH 111 126
ATOM    126  C   UNL A   1      31.352  26.921  23.806  1.00  0.00     0.003 A 
ATOM    127  C   UNL A   1      30.321  26.078  24.263  1.00  0.00    -0.055 A 
ATOM    128  C   UNL A   1      30.963  28.079  23.101  1.00  0.00     0.046 A 
ATOM    129  C   UNL A   1      28.971  26.403  24.095  1.00  0.00    -0.062 A 
ATOM    130  H   UNL A   1      30.568  25.194  24.736  1.00  0.00     0.063 H 
ATOM    131  C   UNL A   1      29.609  28.397  22.921  1.00  0.00    -0.043 A 
ATOM    132  Cl  UNL A   1      32.099  29.170  22.381  1.00  0.00    -0.084 Cl
ATOM    133  C   UNL A   1      28.615  27.569  23.434  1.00  0.00    -0.061 A 
ATOM    134  H   UNL A   1      28.240  25.775  24.464  1.00  0.00     0.062 H 
ATOM    135  H   UNL A   1      29.348  29.252  22.406  1.00  0.00     0.064 H 
ATOM    136  H   UNL A   1      27.620  27.821  23.322  1.00  0.00     0.062 H 
ENDBRANCH 111 126
ENDBRANCH 101 104
ENDBRANCH  97 100
ENDBRANCH  94  97
ENDBRANCH  91  94
ENDBRANCH   1  91
TORSDOF 16
ENDMDL
MODEL 6
REMARK VINA RESULT:     -10.6      5.187     10.698
REMARK SMILES O=C(NCCCCCCNC(=O)[C@H]1C[C@](O)(c2ccccc2Cl)[C@@H](c2ccccc2Cl)O1)c1ccc(-c2c3nc(c(-c4c(F)c(F)c(F)c(F)c4F)c4ccc([nH]4)c(-c4c(F)c(F)c(F)c(F)c4F)c4nc(c(-c5c(F)c(F)c(F)c(F)c5F)c5ccc2[nH]5)C=C4)C=C3)cc1
REMARK SMILES IDX 6 1 5 4 4 7 3 10 1 11 2 12 33 14 34 15 95 16 35 17 94 19
REMARK SMILES IDX 36 21 37 24 38 25 88 26 39 27 93 28 87 29 89 30 40 31 92 32
REMARK SMILES IDX 86 34 85 36 41 38 73 41 53 42 72 43 54 44 57 45 71 46 90 47
REMARK SMILES IDX 55 48 56 50 70 52 91 53 58 56 42 58 43 59 51 60 44 61 45 62
REMARK SMILES IDX 49 63 52 64 46 65 47 66 50 67 48 68 74 69 75 70 83 71 76 72
REMARK SMILES IDX 77 73 81 74 84 75 78 76 79 77 82 78 80 79 59 80 60 81 68 82
REMARK SMILES IDX 61 83 62 84 66 85 69 86 63 87 64 88 67 89 65 90 7 91 8 94
REMARK SMILES IDX 9 97 10 100 11 101 12 103 13 104 14 105 32 106 15 108 24 111
REMARK SMILES IDX 17 113 18 114 22 115 19 116 21 118 23 119 20 120 16 124
REMARK SMILES IDX 25 126 26 127 30 128 27 129 29 131 31 132 28 133
REMARK H PARENT 6 2 6 3 5 5 5 6 4 8 4 9 3 13 34 18 95 20 35 22 94 23 93 33
REMARK H PARENT 87 35 89 37 92 39 86 40 54 49 57 51 90 54 55 55 91 57 7 92
REMARK H PARENT 7 93 8 95 8 96 9 98 9 99 10 102 13 107 14 109 14 110 24 112
REMARK H PARENT 18 117 19 121 21 122 20 123 16 125 26 130 27 134 29 135 28 136
REMARK Flexibility Score: inf
ROOT
ATOM      1  C   UNL A   1      31.652  27.089  26.664  1.00  0.00    -0.052 C 
ATOM      2  H   UNL A   1      31.300  26.486  27.476  1.00  0.00     0.027 H 
ATOM      3  H   UNL A   1      32.635  26.844  26.322  1.00  0.00     0.027 H 
ENDROOT
BRANCH   1   4
ATOM      4  C   UNL A   1      31.745  28.531  27.164  1.00  0.00    -0.036 C 
ATOM      5  H   UNL A   1      30.789  28.988  27.019  1.00  0.00     0.028 H 
ATOM      6  H   UNL A   1      32.048  28.459  28.188  1.00  0.00     0.028 H 
BRANCH   4   7
ATOM      7  C   UNL A   1      32.789  29.411  26.489  1.00  0.00     0.018 C 
ATOM      8  H   UNL A   1      33.748  29.169  26.900  1.00  0.00     0.049 H 
ATOM      9  H   UNL A   1      32.729  29.213  25.440  1.00  0.00     0.049 H 
BRANCH   7  10
ATOM     10  N   UNL A   1      32.564  30.833  26.663  1.00  0.00    -0.352 N 
ATOM     11  O   UNL A   1      32.960  32.920  27.429  1.00  0.00    -0.269 OA
ATOM     12  C   UNL A   1      33.338  31.760  27.324  1.00  0.00     0.251 C 
ATOM     13  H   UNL A   1      31.742  31.185  26.250  1.00  0.00     0.163 HD
BRANCH  12  14
ATOM     14  C   UNL A   1      34.614  31.343  27.951  1.00  0.00     0.039 A 
ATOM     15  C   UNL A   1      34.798  30.042  28.425  1.00  0.00    -0.049 A 
ATOM     16  C   UNL A   1      35.642  32.283  28.072  1.00  0.00    -0.049 A 
ATOM     17  C   UNL A   1      35.945  29.724  29.145  1.00  0.00    -0.053 A 
ATOM     18  H   UNL A   1      34.087  29.318  28.239  1.00  0.00     0.063 H 
ATOM     19  C   UNL A   1      36.827  31.940  28.728  1.00  0.00    -0.053 A 
ATOM     20  H   UNL A   1      35.525  33.229  27.677  1.00  0.00     0.063 H 
ATOM     21  C   UNL A   1      36.973  30.668  29.305  1.00  0.00    -0.014 A 
ATOM     22  H   UNL A   1      36.043  28.787  29.566  1.00  0.00     0.063 H 
ATOM     23  H   UNL A   1      37.597  32.624  28.790  1.00  0.00     0.063 H 
BRANCH  21  24
ATOM     24  C   UNL A   1      38.205  30.297  30.046  1.00  0.00     0.031 A 
ATOM     25  C   UNL A   1      38.414  30.726  31.472  1.00  0.00     0.074 A 
ATOM     26  C   UNL A   1      39.134  29.544  29.427  1.00  0.00     0.049 A 
ATOM     27  N   UNL A   1      39.419  30.472  32.273  1.00  0.00    -0.248 NA
ATOM     28  C   UNL A   1      37.361  31.556  32.077  1.00  0.00    -0.034 C 
ATOM     29  C   UNL A   1      39.048  29.076  28.042  1.00  0.00    -0.036 A 
ATOM     30  N   UNL A   1      40.321  29.029  29.880  1.00  0.00    -0.354 N 
ATOM     31  C   UNL A   1      39.134  31.127  33.463  1.00  0.00     0.074 A 
ATOM     32  C   UNL A   1      37.871  31.810  33.274  1.00  0.00    -0.034 C 
ATOM     33  H   UNL A   1      36.462  31.862  31.674  1.00  0.00     0.065 H 
ATOM     34  C   UNL A   1      40.112  28.305  27.774  1.00  0.00    -0.036 A 
ATOM     35  H   UNL A   1      38.291  29.304  27.379  1.00  0.00     0.065 H 
ATOM     36  C   UNL A   1      40.979  28.268  28.947  1.00  0.00     0.049 A 
ATOM     37  H   UNL A   1      40.667  29.188  30.789  1.00  0.00     0.167 HD
ATOM     38  C   UNL A   1      39.856  31.150  34.610  1.00  0.00     0.037 A 
ATOM     39  H   UNL A   1      37.426  32.417  33.980  1.00  0.00     0.065 H 
ATOM     40  H   UNL A   1      40.288  27.816  26.882  1.00  0.00     0.065 H 
ATOM     41  C   UNL A   1      42.156  27.620  29.021  1.00  0.00     0.037 A 
ATOM     42  C   UNL A   1      41.103  30.452  34.800  1.00  0.00     0.049 A 
ATOM     43  C   UNL A   1      42.943  27.675  30.298  1.00  0.00     0.074 A 
ATOM     44  C   UNL A   1      41.886  30.374  35.939  1.00  0.00    -0.036 A 
ATOM     45  N   UNL A   1      41.754  29.715  33.820  1.00  0.00    -0.354 N 
ATOM     46  N   UNL A   1      42.643  28.263  31.429  1.00  0.00    -0.248 NA
ATOM     47  C   UNL A   1      44.235  26.976  30.306  1.00  0.00    -0.034 C 
ATOM     48  C   UNL A   1      43.031  29.630  35.636  1.00  0.00    -0.036 A 
ATOM     49  H   UNL A   1      41.664  30.795  36.855  1.00  0.00     0.065 H 
ATOM     50  C   UNL A   1      42.940  29.201  34.321  1.00  0.00     0.049 A 
ATOM     51  H   UNL A   1      41.423  29.579  32.903  1.00  0.00     0.167 HD
ATOM     52  C   UNL A   1      43.695  27.990  32.291  1.00  0.00     0.074 A 
ATOM     53  C   UNL A   1      44.636  27.171  31.554  1.00  0.00    -0.034 C 
ATOM     54  H   UNL A   1      44.707  26.468  29.541  1.00  0.00     0.065 H 
ATOM     55  H   UNL A   1      43.812  29.434  36.281  1.00  0.00     0.065 H 
ATOM     56  C   UNL A   1      43.865  28.384  33.577  1.00  0.00     0.037 A 
ATOM     57  H   UNL A   1      45.507  26.787  31.952  1.00  0.00     0.065 H 
BRANCH  38  58
ATOM     58  C   UNL A   1      39.327  31.976  35.747  1.00  0.00     0.064 A 
ATOM     59  C   UNL A   1      39.681  33.324  35.909  1.00  0.00     0.173 A 
ATOM     60  C   UNL A   1      38.430  31.419  36.671  1.00  0.00     0.173 A 
ATOM     61  F   UNL A   1      40.542  33.903  35.060  1.00  0.00    -0.203 F 
ATOM     62  C   UNL A   1      39.180  34.074  36.972  1.00  0.00     0.198 A 
ATOM     63  C   UNL A   1      37.910  32.179  37.717  1.00  0.00     0.198 A 
ATOM     64  F   UNL A   1      38.052  30.137  36.559  1.00  0.00    -0.203 F 
ATOM     65  F   UNL A   1      39.570  35.346  37.135  1.00  0.00    -0.200 F 
ATOM     66  C   UNL A   1      38.292  33.502  37.871  1.00  0.00     0.200 A 
ATOM     67  F   UNL A   1      37.043  31.628  38.577  1.00  0.00    -0.200 F 
ATOM     68  F   UNL A   1      37.811  34.225  38.892  1.00  0.00    -0.200 F 
ENDBRANCH  38  58
BRANCH  41  69
ATOM     69  C   UNL A   1      42.638  26.846  27.850  1.00  0.00     0.064 A 
ATOM     70  C   UNL A   1      42.355  25.480  27.727  1.00  0.00     0.173 A 
ATOM     71  C   UNL A   1      43.361  27.461  26.817  1.00  0.00     0.173 A 
ATOM     72  F   UNL A   1      41.681  24.846  28.699  1.00  0.00    -0.203 F 
ATOM     73  C   UNL A   1      42.780  24.756  26.616  1.00  0.00     0.198 A 
ATOM     74  C   UNL A   1      43.762  26.742  25.695  1.00  0.00     0.198 A 
ATOM     75  F   UNL A   1      43.651  28.768  26.887  1.00  0.00    -0.203 F 
ATOM     76  F   UNL A   1      42.519  23.444  26.535  1.00  0.00    -0.200 F 
ATOM     77  C   UNL A   1      43.475  25.389  25.597  1.00  0.00     0.200 A 
ATOM     78  F   UNL A   1      44.420  27.362  24.704  1.00  0.00    -0.200 F 
ATOM     79  F   UNL A   1      43.871  24.695  24.522  1.00  0.00    -0.200 F 
ENDBRANCH  41  69
BRANCH  56  80
ATOM     80  C   UNL A   1      45.100  27.903  34.279  1.00  0.00     0.064 A 
ATOM     81  C   UNL A   1      46.295  28.637  34.252  1.00  0.00     0.173 A 
ATOM     82  C   UNL A   1      45.081  26.703  35.006  1.00  0.00     0.173 A 
ATOM     83  F   UNL A   1      46.369  29.781  33.557  1.00  0.00    -0.203 F 
ATOM     84  C   UNL A   1      47.433  28.173  34.907  1.00  0.00     0.198 A 
ATOM     85  C   UNL A   1      46.213  26.256  35.681  1.00  0.00     0.198 A 
ATOM     86  F   UNL A   1      43.961  25.966  35.064  1.00  0.00    -0.203 F 
ATOM     87  F   UNL A   1      48.579  28.864  34.827  1.00  0.00    -0.200 F 
ATOM     88  C   UNL A   1      47.390  26.986  35.625  1.00  0.00     0.200 A 
ATOM     89  F   UNL A   1      46.166  25.114  36.381  1.00  0.00    -0.200 F 
ATOM     90  F   UNL A   1      48.486  26.542  36.255  1.00  0.00    -0.200 F 
ENDBRANCH  56  80
ENDBRANCH  21  24
ENDBRANCH  12  14
ENDBRANCH   7  10
ENDBRANCH   4   7
ENDBRANCH   1   4
BRANCH   1  91
ATOM     91  C   UNL A   1      30.732  26.838  25.465  1.00  0.00    -0.052 C 
ATOM     92  H   UNL A   1      31.164  27.329  24.618  1.00  0.00     0.027 H 
ATOM     93  H   UNL A   1      29.776  27.215  25.764  1.00  0.00     0.027 H 
BRANCH  91  94
ATOM     94  C   UNL A   1      30.482  25.374  25.075  1.00  0.00    -0.036 C 
ATOM     95  H   UNL A   1      31.067  25.162  24.204  1.00  0.00     0.028 H 
ATOM     96  H   UNL A   1      29.427  25.289  24.919  1.00  0.00     0.028 H 
BRANCH  94  97
ATOM     97  C   UNL A   1      30.833  24.339  26.141  1.00  0.00     0.017 C 
ATOM     98  H   UNL A   1      30.054  24.327  26.873  1.00  0.00     0.049 H 
ATOM     99  H   UNL A   1      31.774  24.624  26.563  1.00  0.00     0.049 H 
BRANCH  97 100
ATOM    100  N   UNL A   1      30.988  23.004  25.608  1.00  0.00    -0.354 N 
ATOM    101  C   UNL A   1      32.048  22.153  25.567  1.00  0.00     0.249 C 
ATOM    102  H   UNL A   1      30.170  22.642  25.197  1.00  0.00     0.163 HD
ATOM    103  O   UNL A   1      31.803  21.047  25.069  1.00  0.00    -0.272 OA
BRANCH 101 104
ATOM    104  C   UNL A   1      33.486  22.509  26.044  1.00  0.00     0.140 C 
ATOM    105  C   UNL A   1      34.696  21.831  25.431  1.00  0.00     0.019 C 
ATOM    106  O   UNL A   1      33.695  23.925  25.902  1.00  0.00    -0.357 OA
ATOM    107  H   UNL A   1      33.461  22.129  27.044  1.00  0.00     0.071 H 
ATOM    108  C   UNL A   1      35.575  22.921  24.807  1.00  0.00     0.124 C 
ATOM    109  H   UNL A   1      34.383  21.139  24.677  1.00  0.00     0.033 H 
ATOM    110  H   UNL A   1      35.242  21.291  26.176  1.00  0.00     0.033 H 
ATOM    111  C   UNL A   1      34.663  24.175  24.864  1.00  0.00     0.118 C 
ATOM    112  H   UNL A   1      35.331  24.992  25.037  1.00  0.00     0.069 H 
BRANCH 108 113
ATOM    113  C   UNL A   1      36.969  22.866  25.464  1.00  0.00     0.005 A 
ATOM    114  C   UNL A   1      37.414  24.086  26.053  1.00  0.00    -0.055 A 
ATOM    115  C   UNL A   1      37.871  21.787  25.534  1.00  0.00     0.047 A 
ATOM    116  C   UNL A   1      38.642  24.216  26.703  1.00  0.00    -0.062 A 
ATOM    117  H   UNL A   1      36.798  24.912  25.996  1.00  0.00     0.063 H 
ATOM    118  C   UNL A   1      39.093  21.915  26.224  1.00  0.00    -0.043 A 
ATOM    119  Cl  UNL A   1      37.668  20.260  24.762  1.00  0.00    -0.084 Cl
ATOM    120  C   UNL A   1      39.478  23.118  26.807  1.00  0.00    -0.061 A 
ATOM    121  H   UNL A   1      38.925  25.124  27.104  1.00  0.00     0.062 H 
ATOM    122  H   UNL A   1      39.717  21.096  26.300  1.00  0.00     0.064 H 
ATOM    123  H   UNL A   1      40.376  23.191  27.310  1.00  0.00     0.062 H 
ENDBRANCH 108 113
BRANCH 108 124
ATOM    124  O   UNL A   1      35.800  22.548  23.427  1.00  0.00    -0.382 OA
ATOM    125  H   UNL A   1      36.351  21.751  23.393  1.00  0.00     0.212 HD
ENDBRANCH 108 124
BRANCH 111 126
ATOM    126  C   UNL A   1      33.932  24.630  23.597  1.00  0.00     0.003 A 
ATOM    127  C   UNL A   1      33.468  23.697  22.650  1.00  0.00    -0.055 A 
ATOM    128  C   UNL A   1      33.647  25.988  23.345  1.00  0.00     0.046 A 
ATOM    129  C   UNL A   1      32.699  24.082  21.548  1.00  0.00    -0.062 A 
ATOM    130  H   UNL A   1      33.704  22.699  22.772  1.00  0.00     0.063 H 
ATOM    131  C   UNL A   1      32.887  26.374  22.232  1.00  0.00    -0.043 A 
ATOM    132  Cl  UNL A   1      34.229  27.274  24.348  1.00  0.00    -0.084 Cl
ATOM    133  C   UNL A   1      32.398  25.421  21.345  1.00  0.00    -0.061 A 
ATOM    134  H   UNL A   1      32.354  23.369  20.886  1.00  0.00     0.062 H 
ATOM    135  H   UNL A   1      32.688  27.374  22.070  1.00  0.00     0.064 H 
ATOM    136  H   UNL A   1      31.816  25.707  20.541  1.00  0.00     0.062 H 
ENDBRANCH 111 126
ENDBRANCH 101 104
ENDBRANCH  97 100
ENDBRANCH  94  97
ENDBRANCH  91  94
ENDBRANCH   1  91
TORSDOF 16
ENDMDL
MODEL 7
REMARK VINA RESULT:     -10.6      5.739     11.434
REMARK SMILES O=C(NCCCCCCNC(=O)[C@H]1C[C@](O)(c2ccccc2Cl)[C@@H](c2ccccc2Cl)O1)c1ccc(-c2c3nc(c(-c4c(F)c(F)c(F)c(F)c4F)c4ccc([nH]4)c(-c4c(F)c(F)c(F)c(F)c4F)c4nc(c(-c5c(F)c(F)c(F)c(F)c5F)c5ccc2[nH]5)C=C4)C=C3)cc1
REMARK SMILES IDX 6 1 5 4 4 7 3 10 1 11 2 12 33 14 34 15 95 16 35 17 94 19
REMARK SMILES IDX 36 21 37 24 38 25 88 26 39 27 93 28 87 29 89 30 40 31 92 32
REMARK SMILES IDX 86 34 85 36 41 38 73 41 53 42 72 43 54 44 57 45 71 46 90 47
REMARK SMILES IDX 55 48 56 50 70 52 91 53 58 56 42 58 43 59 51 60 44 61 45 62
REMARK SMILES IDX 49 63 52 64 46 65 47 66 50 67 48 68 74 69 75 70 83 71 76 72
REMARK SMILES IDX 77 73 81 74 84 75 78 76 79 77 82 78 80 79 59 80 60 81 68 82
REMARK SMILES IDX 61 83 62 84 66 85 69 86 63 87 64 88 67 89 65 90 7 91 8 94
REMARK SMILES IDX 9 97 10 100 11 101 12 103 13 104 14 105 32 106 15 108 24 111
REMARK SMILES IDX 17 113 18 114 22 115 19 116 21 118 23 119 20 120 16 124
REMARK SMILES IDX 25 126 26 127 30 128 27 129 29 131 31 132 28 133
REMARK H PARENT 6 2 6 3 5 5 5 6 4 8 4 9 3 13 34 18 95 20 35 22 94 23 93 33
REMARK H PARENT 87 35 89 37 92 39 86 40 54 49 57 51 90 54 55 55 91 57 7 92
REMARK H PARENT 7 93 8 95 8 96 9 98 9 99 10 102 13 107 14 109 14 110 24 112
REMARK H PARENT 18 117 19 121 21 122 20 123 16 125 26 130 27 134 29 135 28 136
REMARK Flexibility Score: inf
ROOT
ATOM      1  C   UNL A   1      30.656  31.328  25.136  1.00  0.00    -0.052 C 
ATOM      2  H   UNL A   1      31.068  32.070  24.485  1.00  0.00     0.027 H 
ATOM      3  H   UNL A   1      29.587  31.279  25.136  1.00  0.00     0.027 H 
ENDROOT
BRANCH   1   4
ATOM      4  C   UNL A   1      31.043  31.701  26.568  1.00  0.00    -0.036 C 
ATOM      5  H   UNL A   1      30.259  32.309  26.969  1.00  0.00     0.028 H 
ATOM      6  H   UNL A   1      31.183  30.771  27.077  1.00  0.00     0.028 H 
BRANCH   4   7
ATOM      7  C   UNL A   1      32.353  32.460  26.735  1.00  0.00     0.018 C 
ATOM      8  H   UNL A   1      32.997  31.885  27.368  1.00  0.00     0.049 H 
ATOM      9  H   UNL A   1      32.758  32.598  25.754  1.00  0.00     0.049 H 
BRANCH   7  10
ATOM     10  N   UNL A   1      32.200  33.780  27.317  1.00  0.00    -0.352 N 
ATOM     11  O   UNL A   1      32.667  35.509  28.692  1.00  0.00    -0.269 OA
ATOM     12  C   UNL A   1      32.982  34.408  28.261  1.00  0.00     0.251 C 
ATOM     13  H   UNL A   1      31.429  34.300  26.992  1.00  0.00     0.163 HD
BRANCH  12  14
ATOM     14  C   UNL A   1      34.186  33.728  28.791  1.00  0.00     0.039 A 
ATOM     15  C   UNL A   1      34.095  32.504  29.458  1.00  0.00    -0.049 A 
ATOM     16  C   UNL A   1      35.432  34.340  28.621  1.00  0.00    -0.049 A 
ATOM     17  C   UNL A   1      35.220  31.969  30.079  1.00  0.00    -0.053 A 
ATOM     18  H   UNL A   1      33.196  31.999  29.490  1.00  0.00     0.063 H 
ATOM     19  C   UNL A   1      36.575  33.761  29.178  1.00  0.00    -0.053 A 
ATOM     20  H   UNL A   1      35.507  35.218  28.084  1.00  0.00     0.063 H 
ATOM     21  C   UNL A   1      36.473  32.590  29.945  1.00  0.00    -0.014 A 
ATOM     22  H   UNL A   1      35.133  31.108  30.642  1.00  0.00     0.063 H 
ATOM     23  H   UNL A   1      37.499  34.195  29.025  1.00  0.00     0.063 H 
BRANCH  21  24
ATOM     24  C   UNL A   1      37.667  31.981  30.584  1.00  0.00     0.031 A 
ATOM     25  C   UNL A   1      38.085  32.366  31.976  1.00  0.00     0.074 A 
ATOM     26  C   UNL A   1      38.367  31.054  29.904  1.00  0.00     0.049 A 
ATOM     27  N   UNL A   1      39.087  31.919  32.692  1.00  0.00    -0.248 NA
ATOM     28  C   UNL A   1      37.279  33.394  32.651  1.00  0.00    -0.034 C 
ATOM     29  C   UNL A   1      38.065  30.607  28.543  1.00  0.00    -0.036 A 
ATOM     30  N   UNL A   1      39.462  30.313  30.264  1.00  0.00    -0.354 N 
ATOM     31  C   UNL A   1      39.047  32.624  33.887  1.00  0.00     0.074 A 
ATOM     32  C   UNL A   1      37.935  33.546  33.793  1.00  0.00    -0.034 C 
ATOM     33  H   UNL A   1      36.426  33.873  32.322  1.00  0.00     0.065 H 
ATOM     34  C   UNL A   1      38.924  29.636  28.200  1.00  0.00    -0.036 A 
ATOM     35  H   UNL A   1      37.312  30.978  27.943  1.00  0.00     0.065 H 
ATOM     36  C   UNL A   1      39.868  29.431  29.294  1.00  0.00     0.049 A 
ATOM     37  H   UNL A   1      39.914  30.403  31.134  1.00  0.00     0.167 HD
ATOM     38  C   UNL A   1      39.859  32.506  34.966  1.00  0.00     0.037 A 
ATOM     39  H   UNL A   1      37.685  34.234  34.522  1.00  0.00     0.065 H 
ATOM     40  H   UNL A   1      38.918  29.116  27.308  1.00  0.00     0.065 H 
ATOM     41  C   UNL A   1      40.894  28.560  29.280  1.00  0.00     0.037 A 
ATOM     42  C   UNL A   1      40.953  31.572  35.063  1.00  0.00     0.049 A 
ATOM     43  C   UNL A   1      41.788  28.460  30.482  1.00  0.00     0.074 A 
ATOM     44  C   UNL A   1      41.804  31.344  36.131  1.00  0.00    -0.036 A 
ATOM     45  N   UNL A   1      41.352  30.715  34.046  1.00  0.00    -0.354 N 
ATOM     46  N   UNL A   1      41.714  29.102  31.621  1.00  0.00    -0.248 NA
ATOM     47  C   UNL A   1      42.909  27.516  30.393  1.00  0.00    -0.034 C 
ATOM     48  C   UNL A   1      42.745  30.383  35.746  1.00  0.00    -0.036 A 
ATOM     49  H   UNL A   1      41.753  31.805  37.052  1.00  0.00     0.065 H 
ATOM     50  C   UNL A   1      42.452  29.975  34.454  1.00  0.00     0.049 A 
ATOM     51  H   UNL A   1      40.920  30.644  33.165  1.00  0.00     0.167 HD
ATOM     52  C   UNL A   1      42.764  28.627  32.394  1.00  0.00     0.074 A 
ATOM     53  C   UNL A   1      43.451  27.632  31.597  1.00  0.00    -0.034 C 
ATOM     54  H   UNL A   1      43.199  26.920  29.601  1.00  0.00     0.065 H 
ATOM     55  H   UNL A   1      43.526  30.037  36.325  1.00  0.00     0.065 H 
ATOM     56  C   UNL A   1      43.124  28.985  33.651  1.00  0.00     0.037 A 
ATOM     57  H   UNL A   1      44.260  27.082  31.925  1.00  0.00     0.065 H 
BRANCH  38  58
ATOM     58  C   UNL A   1      39.610  33.427  36.126  1.00  0.00     0.064 A 
ATOM     59  C   UNL A   1      40.208  34.695  36.206  1.00  0.00     0.173 A 
ATOM     60  C   UNL A   1      38.739  33.049  37.158  1.00  0.00     0.173 A 
ATOM     61  F   UNL A   1      41.057  35.102  35.251  1.00  0.00    -0.203 F 
ATOM     62  C   UNL A   1      39.965  35.535  37.291  1.00  0.00     0.198 A 
ATOM     63  C   UNL A   1      38.477  33.902  38.228  1.00  0.00     0.198 A 
ATOM     64  F   UNL A   1      38.134  31.852  37.128  1.00  0.00    -0.203 F 
ATOM     65  F   UNL A   1      40.586  36.720  37.370  1.00  0.00    -0.200 F 
ATOM     66  C   UNL A   1      39.097  35.140  38.298  1.00  0.00     0.200 A 
ATOM     67  F   UNL A   1      37.628  33.524  39.193  1.00  0.00    -0.200 F 
ATOM     68  F   UNL A   1      38.865  35.949  39.340  1.00  0.00    -0.200 F 
ENDBRANCH  38  58
BRANCH  41  69
ATOM     69  C   UNL A   1      41.105  27.699  28.089  1.00  0.00     0.064 A 
ATOM     70  C   UNL A   1      41.853  28.156  26.997  1.00  0.00     0.173 A 
ATOM     71  C   UNL A   1      40.593  26.394  28.033  1.00  0.00     0.173 A 
ATOM     72  F   UNL A   1      42.348  29.404  27.000  1.00  0.00    -0.203 F 
ATOM     73  C   UNL A   1      42.079  27.342  25.890  1.00  0.00     0.198 A 
ATOM     74  C   UNL A   1      40.841  25.573  26.937  1.00  0.00     0.198 A 
ATOM     75  F   UNL A   1      39.875  25.910  29.056  1.00  0.00    -0.203 F 
ATOM     76  F   UNL A   1      42.776  27.812  24.846  1.00  0.00    -0.200 F 
ATOM     77  C   UNL A   1      41.581  26.048  25.864  1.00  0.00     0.200 A 
ATOM     78  F   UNL A   1      40.372  24.317  26.924  1.00  0.00    -0.200 F 
ATOM     79  F   UNL A   1      41.810  25.261  24.806  1.00  0.00    -0.200 F 
ENDBRANCH  41  69
BRANCH  56  80
ATOM     80  C   UNL A   1      44.296  28.268  34.253  1.00  0.00     0.064 A 
ATOM     81  C   UNL A   1      44.143  27.055  34.940  1.00  0.00     0.173 A 
ATOM     82  C   UNL A   1      45.591  28.792  34.122  1.00  0.00     0.173 A 
ATOM     83  F   UNL A   1      42.923  26.523  35.108  1.00  0.00    -0.203 F 
ATOM     84  C   UNL A   1      45.242  26.405  35.496  1.00  0.00     0.198 A 
ATOM     85  C   UNL A   1      46.690  28.126  34.656  1.00  0.00     0.198 A 
ATOM     86  F   UNL A   1      45.790  29.948  33.471  1.00  0.00    -0.203 F 
ATOM     87  F   UNL A   1      45.067  25.272  36.191  1.00  0.00    -0.200 F 
ATOM     88  C   UNL A   1      46.515  26.938  35.349  1.00  0.00     0.200 A 
ATOM     89  F   UNL A   1      47.919  28.637  34.504  1.00  0.00    -0.200 F 
ATOM     90  F   UNL A   1      47.571  26.310  35.884  1.00  0.00    -0.200 F 
ENDBRANCH  56  80
ENDBRANCH  21  24
ENDBRANCH  12  14
ENDBRANCH   7  10
ENDBRANCH   4   7
ENDBRANCH   1   4
BRANCH   1  91
ATOM     91  C   UNL A   1      31.123  29.957  24.636  1.00  0.00    -0.052 C 
ATOM     92  H   UNL A   1      31.134  29.293  25.475  1.00  0.00     0.027 H 
ATOM     93  H   UNL A   1      32.081  30.135  24.191  1.00  0.00     0.027 H 
BRANCH  91  94
ATOM     94  C   UNL A   1      30.285  29.297  23.533  1.00  0.00    -0.036 C 
ATOM     95  H   UNL A   1      30.227  29.978  22.711  1.00  0.00     0.028 H 
ATOM     96  H   UNL A   1      29.338  29.074  23.979  1.00  0.00     0.028 H 
BRANCH  94  97
ATOM     97  C   UNL A   1      30.821  27.967  23.006  1.00  0.00     0.017 C 
ATOM     98  H   UNL A   1      30.178  27.628  22.222  1.00  0.00     0.049 H 
ATOM     99  H   UNL A   1      30.844  27.285  23.829  1.00  0.00     0.049 H 
BRANCH  97 100
ATOM    100  N   UNL A   1      32.168  28.064  22.490  1.00  0.00    -0.354 N 
ATOM    101  C   UNL A   1      33.129  27.128  22.263  1.00  0.00     0.249 C 
ATOM    102  H   UNL A   1      32.441  28.981  22.258  1.00  0.00     0.163 HD
ATOM    103  O   UNL A   1      34.168  27.569  21.755  1.00  0.00    -0.272 OA
BRANCH 101 104
ATOM    104  C   UNL A   1      33.004  25.623  22.639  1.00  0.00     0.140 C 
ATOM    105  C   UNL A   1      34.209  24.845  23.132  1.00  0.00     0.019 C 
ATOM    106  O   UNL A   1      31.981  25.469  23.638  1.00  0.00    -0.357 OA
ATOM    107  H   UNL A   1      32.800  25.196  21.679  1.00  0.00     0.071 H 
ATOM    108  C   UNL A   1      33.884  24.324  24.536  1.00  0.00     0.124 C 
ATOM    109  H   UNL A   1      35.065  25.485  23.169  1.00  0.00     0.033 H 
ATOM    110  H   UNL A   1      34.426  24.032  22.471  1.00  0.00     0.033 H 
ATOM    111  C   UNL A   1      32.576  25.078  24.891  1.00  0.00     0.118 C 
ATOM    112  H   UNL A   1      32.011  24.385  25.479  1.00  0.00     0.069 H 
BRANCH 108 113
ATOM    113  C   UNL A   1      33.991  22.785  24.527  1.00  0.00     0.005 A 
ATOM    114  C   UNL A   1      35.181  22.254  25.105  1.00  0.00    -0.055 A 
ATOM    115  C   UNL A   1      33.091  21.840  24.001  1.00  0.00     0.047 A 
ATOM    116  C   UNL A   1      35.441  20.886  25.196  1.00  0.00    -0.062 A 
ATOM    117  H   UNL A   1      35.885  22.913  25.474  1.00  0.00     0.063 H 
ATOM    118  C   UNL A   1      33.342  20.459  24.129  1.00  0.00    -0.043 A 
ATOM    119  Cl  UNL A   1      31.669  22.205  23.099  1.00  0.00    -0.084 Cl
ATOM    120  C   UNL A   1      34.506  19.982  24.723  1.00  0.00    -0.061 A 
ATOM    121  H   UNL A   1      36.323  20.550  25.612  1.00  0.00     0.062 H 
ATOM    122  H   UNL A   1      32.644  19.785  23.774  1.00  0.00     0.064 H 
ATOM    123  H   UNL A   1      34.670  18.967  24.809  1.00  0.00     0.062 H 
ENDBRANCH 108 113
BRANCH 108 124
ATOM    124  O   UNL A   1      34.951  24.764  25.411  1.00  0.00    -0.382 OA
ATOM    125  H   UNL A   1      34.572  25.207  26.186  1.00  0.00     0.212 HD
ENDBRANCH 108 124
BRANCH 111 126
ATOM    126  C   UNL A   1      32.640  26.297  25.817  1.00  0.00     0.003 A 
ATOM    127  C   UNL A   1      33.824  27.047  25.951  1.00  0.00    -0.055 A 
ATOM    128  C   UNL A   1      31.514  26.751  26.534  1.00  0.00     0.046 A 
ATOM    129  C   UNL A   1      33.870  28.228  26.698  1.00  0.00    -0.062 A 
ATOM    130  H   UNL A   1      34.684  26.715  25.485  1.00  0.00     0.063 H 
ATOM    131  C   UNL A   1      31.565  27.929  27.294  1.00  0.00    -0.043 A 
ATOM    132  Cl  UNL A   1      30.009  25.894  26.565  1.00  0.00    -0.084 Cl
ATOM    133  C   UNL A   1      32.737  28.676  27.361  1.00  0.00    -0.061 A 
ATOM    134  H   UNL A   1      34.748  28.767  26.756  1.00  0.00     0.062 H 
ATOM    135  H   UNL A   1      30.727  28.244  27.807  1.00  0.00     0.064 H 
ATOM    136  H   UNL A   1      32.763  29.556  27.900  1.00  0.00     0.062 H 
ENDBRANCH 111 126
ENDBRANCH 101 104
ENDBRANCH  97 100
ENDBRANCH  94  97
ENDBRANCH  91  94
ENDBRANCH   1  91
TORSDOF 16
ENDMDL
MODEL 8
REMARK VINA RESULT:     -10.6      6.669     12.559
REMARK SMILES O=C(NCCCCCCNC(=O)[C@H]1C[C@](O)(c2ccccc2Cl)[C@@H](c2ccccc2Cl)O1)c1ccc(-c2c3nc(c(-c4c(F)c(F)c(F)c(F)c4F)c4ccc([nH]4)c(-c4c(F)c(F)c(F)c(F)c4F)c4nc(c(-c5c(F)c(F)c(F)c(F)c5F)c5ccc2[nH]5)C=C4)C=C3)cc1
REMARK SMILES IDX 6 1 5 4 4 7 3 10 1 11 2 12 33 14 34 15 95 16 35 17 94 19
REMARK SMILES IDX 36 21 37 24 38 25 88 26 39 27 93 28 87 29 89 30 40 31 92 32
REMARK SMILES IDX 86 34 85 36 41 38 73 41 53 42 72 43 54 44 57 45 71 46 90 47
REMARK SMILES IDX 55 48 56 50 70 52 91 53 58 56 42 58 43 59 51 60 44 61 45 62
REMARK SMILES IDX 49 63 52 64 46 65 47 66 50 67 48 68 74 69 75 70 83 71 76 72
REMARK SMILES IDX 77 73 81 74 84 75 78 76 79 77 82 78 80 79 59 80 60 81 68 82
REMARK SMILES IDX 61 83 62 84 66 85 69 86 63 87 64 88 67 89 65 90 7 91 8 94
REMARK SMILES IDX 9 97 10 100 11 101 12 103 13 104 14 105 32 106 15 108 24 111
REMARK SMILES IDX 17 113 18 114 22 115 19 116 21 118 23 119 20 120 16 124
REMARK SMILES IDX 25 126 26 127 30 128 27 129 29 131 31 132 28 133
REMARK H PARENT 6 2 6 3 5 5 5 6 4 8 4 9 3 13 34 18 95 20 35 22 94 23 93 33
REMARK H PARENT 87 35 89 37 92 39 86 40 54 49 57 51 90 54 55 55 91 57 7 92
REMARK H PARENT 7 93 8 95 8 96 9 98 9 99 10 102 13 107 14 109 14 110 24 112
REMARK H PARENT 18 117 19 121 21 122 20 123 16 125 26 130 27 134 29 135 28 136
REMARK Flexibility Score: inf
ROOT
ATOM      1  C   UNL A   1      34.622  34.695  28.165  1.00  0.00    -0.052 C 
ATOM      2  H   UNL A   1      35.361  35.450  27.998  1.00  0.00     0.027 H 
ATOM      3  H   UNL A   1      34.341  34.145  27.291  1.00  0.00     0.027 H 
ENDROOT
BRANCH   1   4
ATOM      4  C   UNL A   1      33.344  35.392  28.632  1.00  0.00    -0.036 C 
ATOM      5  H   UNL A   1      32.965  35.962  27.809  1.00  0.00     0.028 H 
ATOM      6  H   UNL A   1      32.694  34.608  28.960  1.00  0.00     0.028 H 
BRANCH   4   7
ATOM      7  C   UNL A   1      33.486  36.331  29.822  1.00  0.00     0.018 C 
ATOM      8  H   UNL A   1      34.427  36.136  30.295  1.00  0.00     0.049 H 
ATOM      9  H   UNL A   1      33.417  37.328  29.440  1.00  0.00     0.049 H 
BRANCH   7  10
ATOM     10  N   UNL A   1      32.438  36.187  30.816  1.00  0.00    -0.352 N 
ATOM     11  O   UNL A   1      31.473  35.468  32.725  1.00  0.00    -0.269 OA
ATOM     12  C   UNL A   1      32.480  35.549  32.035  1.00  0.00     0.251 C 
ATOM     13  H   UNL A   1      31.577  36.606  30.586  1.00  0.00     0.163 HD
BRANCH  12  14
ATOM     14  C   UNL A   1      33.739  34.917  32.493  1.00  0.00     0.039 A 
ATOM     15  C   UNL A   1      34.939  35.631  32.529  1.00  0.00    -0.049 A 
ATOM     16  C   UNL A   1      33.712  33.575  32.886  1.00  0.00    -0.049 A 
ATOM     17  C   UNL A   1      36.130  34.970  32.814  1.00  0.00    -0.053 A 
ATOM     18  H   UNL A   1      34.942  36.646  32.346  1.00  0.00     0.063 H 
ATOM     19  C   UNL A   1      34.899  32.931  33.249  1.00  0.00    -0.053 A 
ATOM     20  H   UNL A   1      32.818  33.061  32.908  1.00  0.00     0.063 H 
ATOM     21  C   UNL A   1      36.124  33.613  33.178  1.00  0.00    -0.014 A 
ATOM     22  H   UNL A   1      37.025  35.480  32.759  1.00  0.00     0.063 H 
ATOM     23  H   UNL A   1      34.874  31.950  33.568  1.00  0.00     0.063 H 
BRANCH  21  24
ATOM     24  C   UNL A   1      37.401  32.936  33.515  1.00  0.00     0.031 A 
ATOM     25  C   UNL A   1      38.111  33.216  34.810  1.00  0.00     0.074 A 
ATOM     26  C   UNL A   1      37.911  32.042  32.648  1.00  0.00     0.049 A 
ATOM     27  N   UNL A   1      39.223  32.699  35.273  1.00  0.00    -0.248 NA
ATOM     28  C   UNL A   1      37.500  34.214  35.701  1.00  0.00    -0.034 C 
ATOM     29  C   UNL A   1      37.319  31.694  31.355  1.00  0.00    -0.036 A 
ATOM     30  N   UNL A   1      39.030  31.253  32.725  1.00  0.00    -0.354 N 
ATOM     31  C   UNL A   1      39.456  33.322  36.491  1.00  0.00     0.074 A 
ATOM     32  C   UNL A   1      38.383  34.273  36.688  1.00  0.00    -0.034 C 
ATOM     33  H   UNL A   1      36.615  34.733  35.587  1.00  0.00     0.065 H 
ATOM     34  C   UNL A   1      38.053  30.730  30.781  1.00  0.00    -0.036 A 
ATOM     35  H   UNL A   1      36.472  32.123  30.950  1.00  0.00     0.065 H 
ATOM     36  C   UNL A   1      39.194  30.430  31.639  1.00  0.00     0.049 A 
ATOM     37  H   UNL A   1      39.655  31.274  33.486  1.00  0.00     0.167 HD
ATOM     38  C   UNL A   1      40.469  33.113  37.367  1.00  0.00     0.037 A 
ATOM     39  H   UNL A   1      38.314  34.915  37.494  1.00  0.00     0.065 H 
ATOM     40  H   UNL A   1      37.844  30.272  29.880  1.00  0.00     0.065 H 
ATOM     41  C   UNL A   1      40.163  29.539  31.358  1.00  0.00     0.037 A 
ATOM     42  C   UNL A   1      41.525  32.150  37.176  1.00  0.00     0.049 A 
ATOM     43  C   UNL A   1      41.282  29.338  32.339  1.00  0.00     0.074 A 
ATOM     44  C   UNL A   1      42.570  31.831  38.027  1.00  0.00    -0.036 A 
ATOM     45  N   UNL A   1      41.674  31.355  36.048  1.00  0.00    -0.354 N 
ATOM     46  N   UNL A   1      41.469  29.903  33.506  1.00  0.00    -0.248 NA
ATOM     47  C   UNL A   1      42.325  28.377  31.960  1.00  0.00    -0.034 C 
ATOM     48  C   UNL A   1      43.376  30.877  37.396  1.00  0.00    -0.036 A 
ATOM     49  H   UNL A   1      42.727  32.229  38.965  1.00  0.00     0.065 H 
ATOM     50  C   UNL A   1      42.807  30.565  36.171  1.00  0.00     0.049 A 
ATOM     51  H   UNL A   1      41.067  31.354  35.274  1.00  0.00     0.167 HD
ATOM     52  C   UNL A   1      42.637  29.353  34.012  1.00  0.00     0.074 A 
ATOM     53  C   UNL A   1      43.109  28.398  33.029  1.00  0.00    -0.034 C 
ATOM     54  H   UNL A   1      42.424  27.830  31.090  1.00  0.00     0.065 H 
ATOM     55  H   UNL A   1      44.246  30.475  37.776  1.00  0.00     0.065 H 
ATOM     56  C   UNL A   1      43.262  29.617  35.185  1.00  0.00     0.037 A 
ATOM     57  H   UNL A   1      43.948  27.810  33.147  1.00  0.00     0.065 H 
BRANCH  38  58
ATOM     58  C   UNL A   1      40.499  33.959  38.608  1.00  0.00     0.064 A 
ATOM     59  C   UNL A   1      39.824  33.579  39.778  1.00  0.00     0.173 A 
ATOM     60  C   UNL A   1      41.238  35.151  38.636  1.00  0.00     0.173 A 
ATOM     61  F   UNL A   1      39.095  32.454  39.803  1.00  0.00    -0.203 F 
ATOM     62  C   UNL A   1      39.863  34.379  40.920  1.00  0.00     0.198 A 
ATOM     63  C   UNL A   1      41.297  35.934  39.787  1.00  0.00     0.198 A 
ATOM     64  F   UNL A   1      41.910  35.556  37.548  1.00  0.00    -0.203 F 
ATOM     65  F   UNL A   1      39.170  34.021  42.009  1.00  0.00    -0.200 F 
ATOM     66  C   UNL A   1      40.603  35.551  40.924  1.00  0.00     0.200 A 
ATOM     67  F   UNL A   1      42.023  37.060  39.793  1.00  0.00    -0.200 F 
ATOM     68  F   UNL A   1      40.640  36.318  42.023  1.00  0.00    -0.200 F 
ENDBRANCH  38  58
BRANCH  41  69
ATOM     69  C   UNL A   1      40.092  28.756  30.099  1.00  0.00     0.064 A 
ATOM     70  C   UNL A   1      40.692  29.230  28.925  1.00  0.00     0.173 A 
ATOM     71  C   UNL A   1      39.454  27.508  30.051  1.00  0.00     0.173 A 
ATOM     72  F   UNL A   1      41.298  30.427  28.919  1.00  0.00    -0.203 F 
ATOM     73  C   UNL A   1      40.654  28.486  27.748  1.00  0.00     0.198 A 
ATOM     74  C   UNL A   1      39.439  26.754  28.882  1.00  0.00     0.198 A 
ATOM     75  F   UNL A   1      38.870  27.010  31.151  1.00  0.00    -0.203 F 
ATOM     76  F   UNL A   1      41.212  28.973  26.632  1.00  0.00    -0.200 F 
ATOM     77  C   UNL A   1      40.036  27.245  27.729  1.00  0.00     0.200 A 
ATOM     78  F   UNL A   1      38.855  25.547  28.872  1.00  0.00    -0.200 F 
ATOM     79  F   UNL A   1      40.011  26.523  26.601  1.00  0.00    -0.200 F 
ENDBRANCH  41  69
BRANCH  56  80
ATOM     80  C   UNL A   1      44.507  28.834  35.485  1.00  0.00     0.064 A 
ATOM     81  C   UNL A   1      45.777  29.307  35.126  1.00  0.00     0.173 A 
ATOM     82  C   UNL A   1      44.428  27.606  36.159  1.00  0.00     0.173 A 
ATOM     83  F   UNL A   1      45.904  30.467  34.465  1.00  0.00    -0.203 F 
ATOM     84  C   UNL A   1      46.922  28.566  35.408  1.00  0.00     0.198 A 
ATOM     85  C   UNL A   1      45.576  26.881  36.463  1.00  0.00     0.198 A 
ATOM     86  F   UNL A   1      43.235  27.113  36.526  1.00  0.00    -0.203 F 
ATOM     87  F   UNL A   1      48.122  29.013  35.013  1.00  0.00    -0.200 F 
ATOM     88  C   UNL A   1      46.821  27.357  36.082  1.00  0.00     0.200 A 
ATOM     89  F   UNL A   1      45.476  25.718  37.122  1.00  0.00    -0.200 F 
ATOM     90  F   UNL A   1      47.924  26.645  36.354  1.00  0.00    -0.200 F 
ENDBRANCH  56  80
ENDBRANCH  21  24
ENDBRANCH  12  14
ENDBRANCH   7  10
ENDBRANCH   4   7
ENDBRANCH   1   4
BRANCH   1  91
ATOM     91  C   UNL A   1      35.223  33.658  29.119  1.00  0.00    -0.052 C 
ATOM     92  H   UNL A   1      35.252  34.095  30.095  1.00  0.00     0.027 H 
ATOM     93  H   UNL A   1      36.181  33.420  28.705  1.00  0.00     0.027 H 
BRANCH  91  94
ATOM     94  C   UNL A   1      34.491  32.313  29.236  1.00  0.00    -0.036 C 
ATOM     95  H   UNL A   1      33.642  32.455  29.870  1.00  0.00     0.028 H 
ATOM     96  H   UNL A   1      35.210  31.621  29.622  1.00  0.00     0.028 H 
BRANCH  94  97
ATOM     97  C   UNL A   1      34.001  31.715  27.919  1.00  0.00     0.017 C 
ATOM     98  H   UNL A   1      34.469  32.238  27.112  1.00  0.00     0.049 H 
ATOM     99  H   UNL A   1      32.936  31.819  27.900  1.00  0.00     0.049 H 
BRANCH  97 100
ATOM    100  N   UNL A   1      34.298  30.306  27.790  1.00  0.00    -0.354 N 
ATOM    101  C   UNL A   1      33.617  29.277  27.218  1.00  0.00     0.249 C 
ATOM    102  H   UNL A   1      35.157  30.041  28.193  1.00  0.00     0.163 HD
ATOM    103  O   UNL A   1      34.206  28.189  27.248  1.00  0.00    -0.272 OA
BRANCH 101 104
ATOM    104  C   UNL A   1      32.191  29.392  26.607  1.00  0.00     0.140 C 
ATOM    105  C   UNL A   1      32.000  29.722  25.139  1.00  0.00     0.019 C 
ATOM    106  O   UNL A   1      31.473  28.168  26.848  1.00  0.00    -0.357 OA
ATOM    107  H   UNL A   1      31.829  30.263  27.113  1.00  0.00     0.071 H 
ATOM    108  C   UNL A   1      31.233  28.560  24.496  1.00  0.00     0.124 C 
ATOM    109  H   UNL A   1      32.952  29.837  24.665  1.00  0.00     0.033 H 
ATOM    110  H   UNL A   1      31.457  30.637  25.027  1.00  0.00     0.033 H 
ATOM    111  C   UNL A   1      31.260  27.474  25.603  1.00  0.00     0.118 C 
ATOM    112  H   UNL A   1      30.324  26.964  25.509  1.00  0.00     0.069 H 
BRANCH 108 113
ATOM    113  C   UNL A   1      29.926  29.110  23.889  1.00  0.00     0.005 A 
ATOM    114  C   UNL A   1      29.848  30.530  23.796  1.00  0.00    -0.055 A 
ATOM    115  C   UNL A   1      28.793  28.403  23.444  1.00  0.00     0.047 A 
ATOM    116  C   UNL A   1      28.747  31.200  23.261  1.00  0.00    -0.062 A 
ATOM    117  H   UNL A   1      30.644  31.090  24.141  1.00  0.00     0.063 H 
ATOM    118  C   UNL A   1      27.700  29.084  22.871  1.00  0.00    -0.043 A 
ATOM    119  Cl  UNL A   1      28.546  26.705  23.600  1.00  0.00    -0.084 Cl
ATOM    120  C   UNL A   1      27.675  30.472  22.777  1.00  0.00    -0.061 A 
ATOM    121  H   UNL A   1      28.732  32.232  23.226  1.00  0.00     0.062 H 
ATOM    122  H   UNL A   1      26.900  28.540  22.511  1.00  0.00     0.064 H 
ATOM    123  H   UNL A   1      26.867  30.952  22.351  1.00  0.00     0.062 H 
ENDBRANCH 108 113
BRANCH 108 124
ATOM    124  O   UNL A   1      32.011  28.114  23.360  1.00  0.00    -0.382 OA
ATOM    125  H   UNL A   1      32.347  28.884  22.875  1.00  0.00     0.212 HD
ENDBRANCH 108 124
BRANCH 111 126
ATOM    126  C   UNL A   1      32.259  26.318  25.497  1.00  0.00     0.003 A 
ATOM    127  C   UNL A   1      33.548  26.517  24.965  1.00  0.00    -0.055 A 
ATOM    128  C   UNL A   1      31.958  25.023  25.966  1.00  0.00     0.046 A 
ATOM    129  C   UNL A   1      34.513  25.506  24.967  1.00  0.00    -0.062 A 
ATOM    130  H   UNL A   1      33.788  27.438  24.562  1.00  0.00     0.063 H 
ATOM    131  C   UNL A   1      32.922  24.005  25.954  1.00  0.00    -0.043 A 
ATOM    132  Cl  UNL A   1      30.391  24.575  26.555  1.00  0.00    -0.084 Cl
ATOM    133  C   UNL A   1      34.204  24.252  25.472  1.00  0.00    -0.061 A 
ATOM    134  H   UNL A   1      35.456  25.693  24.592  1.00  0.00     0.062 H 
ATOM    135  H   UNL A   1      32.680  23.066  26.307  1.00  0.00     0.064 H 
ATOM    136  H   UNL A   1      34.919  23.507  25.490  1.00  0.00     0.062 H 
ENDBRANCH 111 126
ENDBRANCH 101 104
ENDBRANCH  97 100
ENDBRANCH  94  97
ENDBRANCH  91  94
ENDBRANCH   1  91
TORSDOF 16
ENDMDL
MODEL 9
REMARK VINA RESULT:     -10.6      5.848     11.573
REMARK SMILES O=C(NCCCCCCNC(=O)[C@H]1C[C@](O)(c2ccccc2Cl)[C@@H](c2ccccc2Cl)O1)c1ccc(-c2c3nc(c(-c4c(F)c(F)c(F)c(F)c4F)c4ccc([nH]4)c(-c4c(F)c(F)c(F)c(F)c4F)c4nc(c(-c5c(F)c(F)c(F)c(F)c5F)c5ccc2[nH]5)C=C4)C=C3)cc1
REMARK SMILES IDX 6 1 5 4 4 7 3 10 1 11 2 12 33 14 34 15 95 16 35 17 94 19
REMARK SMILES IDX 36 21 37 24 38 25 88 26 39 27 93 28 87 29 89 30 40 31 92 32
REMARK SMILES IDX 86 34 85 36 41 38 73 41 53 42 72 43 54 44 57 45 71 46 90 47
REMARK SMILES IDX 55 48 56 50 70 52 91 53 58 56 42 58 43 59 51 60 44 61 45 62
REMARK SMILES IDX 49 63 52 64 46 65 47 66 50 67 48 68 74 69 75 70 83 71 76 72
REMARK SMILES IDX 77 73 81 74 84 75 78 76 79 77 82 78 80 79 59 80 60 81 68 82
REMARK SMILES IDX 61 83 62 84 66 85 69 86 63 87 64 88 67 89 65 90 7 91 8 94
REMARK SMILES IDX 9 97 10 100 11 101 12 103 13 104 14 105 32 106 15 108 24 111
REMARK SMILES IDX 17 113 18 114 22 115 19 116 21 118 23 119 20 120 16 124
REMARK SMILES IDX 25 126 26 127 30 128 27 129 29 131 31 132 28 133
REMARK H PARENT 6 2 6 3 5 5 5 6 4 8 4 9 3 13 34 18 95 20 35 22 94 23 93 33
REMARK H PARENT 87 35 89 37 92 39 86 40 54 49 57 51 90 54 55 55 91 57 7 92
REMARK H PARENT 7 93 8 95 8 96 9 98 9 99 10 102 13 107 14 109 14 110 24 112
REMARK H PARENT 18 117 19 121 21 122 20 123 16 125 26 130 27 134 29 135 28 136
REMARK Flexibility Score: inf
ROOT
ATOM      1  C   UNL A   1      30.822  31.738  25.442  1.00  0.00    -0.052 C 
ATOM      2  H   UNL A   1      31.338  32.435  24.816  1.00  0.00     0.027 H 
ATOM      3  H   UNL A   1      29.761  31.875  25.481  1.00  0.00     0.027 H 
ENDROOT
BRANCH   1   4
ATOM      4  C   UNL A   1      31.309  31.954  26.876  1.00  0.00    -0.036 C 
ATOM      5  H   UNL A   1      30.516  32.418  27.423  1.00  0.00     0.028 H 
ATOM      6  H   UNL A   1      31.581  30.983  27.233  1.00  0.00     0.028 H 
BRANCH   4   7
ATOM      7  C   UNL A   1      32.555  32.815  27.041  1.00  0.00     0.018 C 
ATOM      8  H   UNL A   1      33.204  32.335  27.745  1.00  0.00     0.049 H 
ATOM      9  H   UNL A   1      32.997  32.908  26.071  1.00  0.00     0.049 H 
BRANCH   7  10
ATOM     10  N   UNL A   1      32.284  34.160  27.513  1.00  0.00    -0.352 N 
ATOM     11  O   UNL A   1      32.528  35.995  28.805  1.00  0.00    -0.269 OA
ATOM     12  C   UNL A   1      32.934  34.886  28.485  1.00  0.00     0.251 C 
ATOM     13  H   UNL A   1      31.529  34.618  27.076  1.00  0.00     0.163 HD
BRANCH  12  14
ATOM     14  C   UNL A   1      34.106  34.303  29.180  1.00  0.00     0.039 A 
ATOM     15  C   UNL A   1      35.409  34.569  28.754  1.00  0.00    -0.049 A 
ATOM     16  C   UNL A   1      33.886  33.464  30.277  1.00  0.00    -0.049 A 
ATOM     17  C   UNL A   1      36.478  33.886  29.328  1.00  0.00    -0.053 A 
ATOM     18  H   UNL A   1      35.579  35.271  28.017  1.00  0.00     0.063 H 
ATOM     19  C   UNL A   1      34.968  32.839  30.904  1.00  0.00    -0.053 A 
ATOM     20  H   UNL A   1      32.927  33.308  30.624  1.00  0.00     0.063 H 
ATOM     21  C   UNL A   1      36.270  33.014  30.409  1.00  0.00    -0.014 A 
ATOM     22  H   UNL A   1      37.431  34.021  28.956  1.00  0.00     0.063 H 
ATOM     23  H   UNL A   1      34.809  32.245  31.733  1.00  0.00     0.063 H 
BRANCH  21  24
ATOM     24  C   UNL A   1      37.428  32.324  31.031  1.00  0.00     0.031 A 
ATOM     25  C   UNL A   1      37.873  32.657  32.428  1.00  0.00     0.074 A 
ATOM     26  C   UNL A   1      38.069  31.370  30.330  1.00  0.00     0.049 A 
ATOM     27  N   UNL A   1      38.850  32.138  33.130  1.00  0.00    -0.248 NA
ATOM     28  C   UNL A   1      37.133  33.719  33.126  1.00  0.00    -0.034 C 
ATOM     29  C   UNL A   1      37.735  30.966  28.963  1.00  0.00    -0.036 A 
ATOM     30  N   UNL A   1      39.120  30.558  30.671  1.00  0.00    -0.354 N 
ATOM     31  C   UNL A   1      38.857  32.822  34.339  1.00  0.00     0.074 A 
ATOM     32  C   UNL A   1      37.801  33.810  34.267  1.00  0.00    -0.034 C 
ATOM     33  H   UNL A   1      36.309  34.253  32.809  1.00  0.00     0.065 H 
ATOM     34  C   UNL A   1      38.534  29.953  28.598  1.00  0.00    -0.036 A 
ATOM     35  H   UNL A   1      37.004  31.393  28.374  1.00  0.00     0.065 H 
ATOM     36  C   UNL A   1      39.468  29.671  29.683  1.00  0.00     0.049 A 
ATOM     37  H   UNL A   1      39.579  30.605  31.541  1.00  0.00     0.167 HD
ATOM     38  C   UNL A   1      39.665  32.636  35.411  1.00  0.00     0.037 A 
ATOM     39  H   UNL A   1      37.596  34.498  35.009  1.00  0.00     0.065 H 
ATOM     40  H   UNL A   1      38.493  29.451  27.697  1.00  0.00     0.065 H 
ATOM     41  C   UNL A   1      40.440  28.741  29.648  1.00  0.00     0.037 A 
ATOM     42  C   UNL A   1      40.702  31.637  35.485  1.00  0.00     0.049 A 
ATOM     43  C   UNL A   1      41.331  28.566  30.843  1.00  0.00     0.074 A 
ATOM     44  C   UNL A   1      41.542  31.339  36.544  1.00  0.00    -0.036 A 
ATOM     45  N   UNL A   1      41.045  30.776  34.451  1.00  0.00    -0.354 N 
ATOM     46  N   UNL A   1      41.300  29.190  31.995  1.00  0.00    -0.248 NA
ATOM     47  C   UNL A   1      42.393  27.559  30.732  1.00  0.00    -0.034 C 
ATOM     48  C   UNL A   1      42.422  30.331  36.137  1.00  0.00    -0.036 A 
ATOM     49  H   UNL A   1      41.522  31.785  37.474  1.00  0.00     0.065 H 
ATOM     50  C   UNL A   1      42.100  29.965  34.840  1.00  0.00     0.049 A 
ATOM     51  H   UNL A   1      40.605  30.748  33.571  1.00  0.00     0.167 HD
ATOM     52  C   UNL A   1      42.323  28.639  32.753  1.00  0.00     0.074 A 
ATOM     53  C   UNL A   1      42.946  27.620  31.934  1.00  0.00    -0.034 C 
ATOM     54  H   UNL A   1      42.644  26.962  29.928  1.00  0.00     0.065 H 
ATOM     55  H   UNL A   1      43.183  29.928  36.706  1.00  0.00     0.065 H 
ATOM     56  C   UNL A   1      42.708  28.952  34.015  1.00  0.00     0.037 A 
ATOM     57  H   UNL A   1      43.722  27.017  32.249  1.00  0.00     0.065 H 
BRANCH  38  58
ATOM     58  C   UNL A   1      39.476  33.549  36.589  1.00  0.00     0.064 A 
ATOM     59  C   UNL A   1      38.692  33.179  37.693  1.00  0.00     0.173 A 
ATOM     60  C   UNL A   1      40.112  34.798  36.627  1.00  0.00     0.173 A 
ATOM     61  F   UNL A   1      38.054  32.000  37.704  1.00  0.00    -0.203 F 
ATOM     62  C   UNL A   1      38.529  34.041  38.776  1.00  0.00     0.198 A 
ATOM     63  C   UNL A   1      39.968  35.646  37.723  1.00  0.00     0.198 A 
ATOM     64  F   UNL A   1      40.880  35.198  35.602  1.00  0.00    -0.203 F 
ATOM     65  F   UNL A   1      37.735  33.687  39.796  1.00  0.00    -0.200 F 
ATOM     66  C   UNL A   1      39.170  35.270  38.792  1.00  0.00     0.200 A 
ATOM     67  F   UNL A   1      40.599  36.828  37.742  1.00  0.00    -0.200 F 
ATOM     68  F   UNL A   1      39.012  36.097  39.835  1.00  0.00    -0.200 F 
ENDBRANCH  38  58
BRANCH  41  69
ATOM     69  C   UNL A   1      40.594  27.891  28.440  1.00  0.00     0.064 A 
ATOM     70  C   UNL A   1      39.955  26.649  28.352  1.00  0.00     0.173 A 
ATOM     71  C   UNL A   1      41.353  28.318  27.341  1.00  0.00     0.173 A 
ATOM     72  F   UNL A   1      39.232  26.192  29.387  1.00  0.00    -0.203 F 
ATOM     73  C   UNL A   1      40.072  25.860  27.209  1.00  0.00     0.198 A 
ATOM     74  C   UNL A   1      41.448  27.541  26.190  1.00  0.00     0.198 A 
ATOM     75  F   UNL A   1      41.979  29.503  27.377  1.00  0.00    -0.203 F 
ATOM     76  F   UNL A   1      39.472  24.663  27.160  1.00  0.00    -0.200 F 
ATOM     77  C   UNL A   1      40.811  26.311  26.126  1.00  0.00     0.200 A 
ATOM     78  F   UNL A   1      42.150  27.988  25.139  1.00  0.00    -0.200 F 
ATOM     79  F   UNL A   1      40.911  25.559  25.022  1.00  0.00    -0.200 F 
ENDBRANCH  41  69
BRANCH  56  80
ATOM     80  C   UNL A   1      43.838  28.155  34.598  1.00  0.00     0.064 A 
ATOM     81  C   UNL A   1      43.618  26.932  35.246  1.00  0.00     0.173 A 
ATOM     82  C   UNL A   1      45.160  28.613  34.486  1.00  0.00     0.173 A 
ATOM     83  F   UNL A   1      42.371  26.460  35.395  1.00  0.00    -0.203 F 
ATOM     84  C   UNL A   1      44.678  26.207  35.786  1.00  0.00     0.198 A 
ATOM     85  C   UNL A   1      46.220  27.873  35.003  1.00  0.00     0.198 A 
ATOM     86  F   UNL A   1      45.423  29.776  33.872  1.00  0.00    -0.203 F 
ATOM     87  F   UNL A   1      44.441  25.065  36.445  1.00  0.00    -0.200 F 
ATOM     88  C   UNL A   1      45.978  26.675  35.658  1.00  0.00     0.200 A 
ATOM     89  F   UNL A   1      47.475  28.322  34.870  1.00  0.00    -0.200 F 
ATOM     90  F   UNL A   1      46.998  25.976  36.177  1.00  0.00    -0.200 F 
ENDBRANCH  56  80
ENDBRANCH  21  24
ENDBRANCH  12  14
ENDBRANCH   7  10
ENDBRANCH   4   7
ENDBRANCH   1   4
BRANCH   1  91
ATOM     91  C   UNL A   1      31.028  30.340  24.852  1.00  0.00    -0.052 C 
ATOM     92  H   UNL A   1      31.075  29.649  25.667  1.00  0.00     0.027 H 
ATOM     93  H   UNL A   1      31.924  30.412  24.271  1.00  0.00     0.027 H 
BRANCH  91  94
ATOM     94  C   UNL A   1      29.957  29.832  23.876  1.00  0.00    -0.036 C 
ATOM     95  H   UNL A   1      29.241  30.615  23.737  1.00  0.00     0.028 H 
ATOM     96  H   UNL A   1      29.551  28.948  24.321  1.00  0.00     0.028 H 
BRANCH  94  97
ATOM     97  C   UNL A   1      30.468  29.412  22.499  1.00  0.00     0.017 C 
ATOM     98  H   UNL A   1      30.132  30.128  21.779  1.00  0.00     0.049 H 
ATOM     99  H   UNL A   1      30.082  28.435  22.302  1.00  0.00     0.049 H 
BRANCH  97 100
ATOM    100  N   UNL A   1      31.909  29.328  22.431  1.00  0.00    -0.354 N 
ATOM    101  C   UNL A   1      32.775  28.297  22.625  1.00  0.00     0.249 C 
ATOM    102  H   UNL A   1      32.348  30.178  22.197  1.00  0.00     0.163 HD
ATOM    103  O   UNL A   1      33.964  28.577  22.429  1.00  0.00    -0.272 OA
BRANCH 101 104
ATOM    104  C   UNL A   1      32.362  26.876  23.107  1.00  0.00     0.140 C 
ATOM    105  C   UNL A   1      33.392  25.768  23.224  1.00  0.00     0.019 C 
ATOM    106  O   UNL A   1      31.725  26.978  24.392  1.00  0.00    -0.357 OA
ATOM    107  H   UNL A   1      31.744  26.563  22.292  1.00  0.00     0.071 H 
ATOM    108  C   UNL A   1      33.414  25.305  24.685  1.00  0.00     0.124 C 
ATOM    109  H   UNL A   1      34.357  26.136  22.943  1.00  0.00     0.033 H 
ATOM    110  H   UNL A   1      33.143  24.954  22.576  1.00  0.00     0.033 H 
ATOM    111  C   UNL A   1      32.563  26.384  25.403  1.00  0.00     0.118 C 
ATOM    112  H   UNL A   1      32.052  25.857  26.181  1.00  0.00     0.069 H 
BRANCH 108 113
ATOM    113  C   UNL A   1      33.075  23.800  24.729  1.00  0.00     0.005 A 
ATOM    114  C   UNL A   1      31.936  23.456  25.515  1.00  0.00    -0.055 A 
ATOM    115  C   UNL A   1      33.752  22.723  24.126  1.00  0.00     0.047 A 
ATOM    116  C   UNL A   1      31.475  22.146  25.657  1.00  0.00    -0.062 A 
ATOM    117  H   UNL A   1      31.429  24.211  26.002  1.00  0.00     0.063 H 
ATOM    118  C   UNL A   1      33.260  21.408  24.244  1.00  0.00    -0.043 A 
ATOM    119  Cl  UNL A   1      35.245  22.831  23.272  1.00  0.00    -0.084 Cl
ATOM    120  C   UNL A   1      32.129  21.118  25.001  1.00  0.00    -0.061 A 
ATOM    121  H   UNL A   1      30.653  21.946  26.247  1.00  0.00     0.062 H 
ATOM    122  H   UNL A   1      33.749  20.641  23.755  1.00  0.00     0.064 H 
ATOM    123  H   UNL A   1      31.783  20.149  25.073  1.00  0.00     0.062 H 
ENDBRANCH 108 113
BRANCH 108 124
ATOM    124  O   UNL A   1      34.787  25.388  25.137  1.00  0.00    -0.382 OA
ATOM    125  H   UNL A   1      34.849  26.024  25.867  1.00  0.00     0.212 HD
ENDBRANCH 108 124
BRANCH 111 126
ATOM    126  C   UNL A   1      33.267  27.496  26.186  1.00  0.00     0.003 A 
ATOM    127  C   UNL A   1      34.590  27.874  25.884  1.00  0.00    -0.055 A 
ATOM    128  C   UNL A   1      32.615  28.222  27.205  1.00  0.00     0.046 A 
ATOM    129  C   UNL A   1      35.209  28.963  26.506  1.00  0.00    -0.062 A 
ATOM    130  H   UNL A   1      35.118  27.332  25.182  1.00  0.00     0.063 H 
ATOM    131  C   UNL A   1      33.242  29.305  27.838  1.00  0.00    -0.043 A 
ATOM    132  Cl  UNL A   1      31.028  27.826  27.775  1.00  0.00    -0.084 Cl
ATOM    133  C   UNL A   1      34.530  29.686  27.476  1.00  0.00    -0.061 A 
ATOM    134  H   UNL A   1      36.170  29.228  26.243  1.00  0.00     0.062 H 
ATOM    135  H   UNL A   1      32.744  29.824  28.578  1.00  0.00     0.064 H 
ATOM    136  H   UNL A   1      34.978  30.500  27.927  1.00  0.00     0.062 H 
ENDBRANCH 111 126
ENDBRANCH 101 104
ENDBRANCH  97 100
ENDBRANCH  94  97
ENDBRANCH  91  94
ENDBRANCH   1  91
TORSDOF 16
ENDMDL
MODEL 10
REMARK VINA RESULT:     -10.6      6.603     12.500
REMARK SMILES O=C(NCCCCCCNC(=O)[C@H]1C[C@](O)(c2ccccc2Cl)[C@@H](c2ccccc2Cl)O1)c1ccc(-c2c3nc(c(-c4c(F)c(F)c(F)c(F)c4F)c4ccc([nH]4)c(-c4c(F)c(F)c(F)c(F)c4F)c4nc(c(-c5c(F)c(F)c(F)c(F)c5F)c5ccc2[nH]5)C=C4)C=C3)cc1
REMARK SMILES IDX 6 1 5 4 4 7 3 10 1 11 2 12 33 14 34 15 95 16 35 17 94 19
REMARK SMILES IDX 36 21 37 24 38 25 88 26 39 27 93 28 87 29 89 30 40 31 92 32
REMARK SMILES IDX 86 34 85 36 41 38 73 41 53 42 72 43 54 44 57 45 71 46 90 47
REMARK SMILES IDX 55 48 56 50 70 52 91 53 58 56 42 58 43 59 51 60 44 61 45 62
REMARK SMILES IDX 49 63 52 64 46 65 47 66 50 67 48 68 74 69 75 70 83 71 76 72
REMARK SMILES IDX 77 73 81 74 84 75 78 76 79 77 82 78 80 79 59 80 60 81 68 82
REMARK SMILES IDX 61 83 62 84 66 85 69 86 63 87 64 88 67 89 65 90 7 91 8 94
REMARK SMILES IDX 9 97 10 100 11 101 12 103 13 104 14 105 32 106 15 108 24 111
REMARK SMILES IDX 17 113 18 114 22 115 19 116 21 118 23 119 20 120 16 124
REMARK SMILES IDX 25 126 26 127 30 128 27 129 29 131 31 132 28 133
REMARK H PARENT 6 2 6 3 5 5 5 6 4 8 4 9 3 13 34 18 95 20 35 22 94 23 93 33
REMARK H PARENT 87 35 89 37 92 39 86 40 54 49 57 51 90 54 55 55 91 57 7 92
REMARK H PARENT 7 93 8 95 8 96 9 98 9 99 10 102 13 107 14 109 14 110 24 112
REMARK H PARENT 18 117 19 121 21 122 20 123 16 125 26 130 27 134 29 135 28 136
REMARK Flexibility Score: inf
ROOT
ATOM      1  C   UNL A   1      34.493  34.784  28.204  1.00  0.00    -0.052 C 
ATOM      2  H   UNL A   1      35.163  35.614  28.124  1.00  0.00     0.027 H 
ATOM      3  H   UNL A   1      34.228  34.334  27.270  1.00  0.00     0.027 H 
ENDROOT
BRANCH   1   4
ATOM      4  C   UNL A   1      33.179  35.305  28.788  1.00  0.00    -0.036 C 
ATOM      5  H   UNL A   1      32.571  35.642  27.974  1.00  0.00     0.028 H 
ATOM      6  H   UNL A   1      32.765  34.484  29.336  1.00  0.00     0.028 H 
BRANCH   4   7
ATOM      7  C   UNL A   1      33.293  36.448  29.788  1.00  0.00     0.018 C 
ATOM      8  H   UNL A   1      34.300  36.476  30.153  1.00  0.00     0.049 H 
ATOM      9  H   UNL A   1      33.019  37.342  29.268  1.00  0.00     0.049 H 
BRANCH   7  10
ATOM     10  N   UNL A   1      32.399  36.330  30.924  1.00  0.00    -0.352 N 
ATOM     11  O   UNL A   1      31.679  35.586  32.931  1.00  0.00    -0.269 OA
ATOM     12  C   UNL A   1      32.574  35.629  32.097  1.00  0.00     0.251 C 
ATOM     13  H   UNL A   1      31.548  36.820  30.846  1.00  0.00     0.163 HD
BRANCH  12  14
ATOM     14  C   UNL A   1      33.834  34.886  32.331  1.00  0.00     0.039 A 
ATOM     15  C   UNL A   1      33.825  33.533  32.676  1.00  0.00    -0.049 A 
ATOM     16  C   UNL A   1      35.048  35.569  32.210  1.00  0.00    -0.049 A 
ATOM     17  C   UNL A   1      35.012  32.904  33.040  1.00  0.00    -0.053 A 
ATOM     18  H   UNL A   1      32.942  33.000  32.659  1.00  0.00     0.063 H 
ATOM     19  C   UNL A   1      36.248  34.915  32.501  1.00  0.00    -0.053 A 
ATOM     20  H   UNL A   1      35.057  36.555  31.906  1.00  0.00     0.063 H 
ATOM     21  C   UNL A   1      36.237  33.587  32.956  1.00  0.00    -0.014 A 
ATOM     22  H   UNL A   1      34.993  31.928  33.375  1.00  0.00     0.063 H 
ATOM     23  H   UNL A   1      37.145  35.409  32.381  1.00  0.00     0.063 H 
BRANCH  21  24
ATOM     24  C   UNL A   1      37.496  32.886  33.314  1.00  0.00     0.031 A 
ATOM     25  C   UNL A   1      38.197  33.163  34.615  1.00  0.00     0.074 A 
ATOM     26  C   UNL A   1      37.996  31.973  32.462  1.00  0.00     0.049 A 
ATOM     27  N   UNL A   1      39.292  32.627  35.095  1.00  0.00    -0.248 NA
ATOM     28  C   UNL A   1      37.597  34.183  35.489  1.00  0.00    -0.034 C 
ATOM     29  C   UNL A   1      37.411  31.626  31.165  1.00  0.00    -0.036 A 
ATOM     30  N   UNL A   1      39.097  31.161  32.559  1.00  0.00    -0.354 N 
ATOM     31  C   UNL A   1      39.525  33.257  36.310  1.00  0.00     0.074 A 
ATOM     32  C   UNL A   1      38.470  34.232  36.486  1.00  0.00    -0.034 C 
ATOM     33  H   UNL A   1      36.726  34.719  35.360  1.00  0.00     0.065 H 
ATOM     34  C   UNL A   1      38.131  30.640  30.609  1.00  0.00    -0.036 A 
ATOM     35  H   UNL A   1      36.579  32.068  30.746  1.00  0.00     0.065 H 
ATOM     36  C   UNL A   1      39.256  30.324  31.483  1.00  0.00     0.049 A 
ATOM     37  H   UNL A   1      39.714  31.176  33.327  1.00  0.00     0.167 HD
ATOM     38  C   UNL A   1      40.524  33.035  37.199  1.00  0.00     0.037 A 
ATOM     39  H   UNL A   1      38.406  34.884  37.284  1.00  0.00     0.065 H 
ATOM     40  H   UNL A   1      37.922  30.178  29.710  1.00  0.00     0.065 H 
ATOM     41  C   UNL A   1      40.208  29.410  31.221  1.00  0.00     0.037 A 
ATOM     42  C   UNL A   1      41.561  32.048  37.029  1.00  0.00     0.049 A 
ATOM     43  C   UNL A   1      41.311  29.195  32.216  1.00  0.00     0.074 A 
ATOM     44  C   UNL A   1      42.588  31.715  37.895  1.00  0.00    -0.036 A 
ATOM     45  N   UNL A   1      41.705  31.239  35.910  1.00  0.00    -0.354 N 
ATOM     46  N   UNL A   1      41.497  29.767  33.380  1.00  0.00    -0.248 NA
ATOM     47  C   UNL A   1      42.338  28.208  31.859  1.00  0.00    -0.034 C 
ATOM     48  C   UNL A   1      43.381  30.738  37.282  1.00  0.00    -0.036 A 
ATOM     49  H   UNL A   1      42.744  32.119  38.831  1.00  0.00     0.065 H 
ATOM     50  C   UNL A   1      42.819  30.426  36.054  1.00  0.00     0.049 A 
ATOM     51  H   UNL A   1      41.106  31.243  35.130  1.00  0.00     0.167 HD
ATOM     52  C   UNL A   1      42.648  29.197  33.905  1.00  0.00     0.074 A 
ATOM     53  C   UNL A   1      43.110  28.223  32.936  1.00  0.00    -0.034 C 
ATOM     54  H   UNL A   1      42.435  27.650  30.995  1.00  0.00     0.065 H 
ATOM     55  H   UNL A   1      44.238  30.321  37.677  1.00  0.00     0.065 H 
ATOM     56  C   UNL A   1      43.265  29.459  35.083  1.00  0.00     0.037 A 
ATOM     57  H   UNL A   1      43.934  27.618  33.070  1.00  0.00     0.065 H 
BRANCH  38  58
ATOM     58  C   UNL A   1      40.558  33.892  38.433  1.00  0.00     0.064 A 
ATOM     59  C   UNL A   1      39.861  33.539  39.598  1.00  0.00     0.173 A 
ATOM     60  C   UNL A   1      41.322  35.068  38.458  1.00  0.00     0.173 A 
ATOM     61  F   UNL A   1      39.108  32.429  39.625  1.00  0.00    -0.203 F 
ATOM     62  C   UNL A   1      39.904  34.348  40.732  1.00  0.00     0.198 A 
ATOM     63  C   UNL A   1      41.385  35.861  39.601  1.00  0.00     0.198 A 
ATOM     64  F   UNL A   1      42.014  35.448  37.374  1.00  0.00    -0.203 F 
ATOM     65  F   UNL A   1      39.191  34.016  41.817  1.00  0.00    -0.200 F 
ATOM     66  C   UNL A   1      40.669  35.505  40.734  1.00  0.00     0.200 A 
ATOM     67  F   UNL A   1      42.134  36.972  39.606  1.00  0.00    -0.200 F 
ATOM     68  F   UNL A   1      40.710  36.281  41.826  1.00  0.00    -0.200 F 
ENDBRANCH  38  58
BRANCH  41  69
ATOM     69  C   UNL A   1      40.134  28.616  29.968  1.00  0.00     0.064 A 
ATOM     70  C   UNL A   1      40.730  29.082  28.789  1.00  0.00     0.173 A 
ATOM     71  C   UNL A   1      39.499  27.367  29.933  1.00  0.00     0.173 A 
ATOM     72  F   UNL A   1      41.335  30.280  28.772  1.00  0.00    -0.203 F 
ATOM     73  C   UNL A   1      40.690  28.328  27.619  1.00  0.00     0.198 A 
ATOM     74  C   UNL A   1      39.481  26.603  28.770  1.00  0.00     0.198 A 
ATOM     75  F   UNL A   1      38.919  26.878  31.039  1.00  0.00    -0.203 F 
ATOM     76  F   UNL A   1      41.244  28.807  26.497  1.00  0.00    -0.200 F 
ATOM     77  C   UNL A   1      40.073  27.085  27.612  1.00  0.00     0.200 A 
ATOM     78  F   UNL A   1      38.899  25.396  28.772  1.00  0.00    -0.200 F 
ATOM     79  F   UNL A   1      40.047  26.355  26.490  1.00  0.00    -0.200 F 
ENDBRANCH  41  69
BRANCH  56  80
ATOM     80  C   UNL A   1      44.489  28.653  35.404  1.00  0.00     0.064 A 
ATOM     81  C   UNL A   1      44.406  27.424  36.075  1.00  0.00     0.173 A 
ATOM     82  C   UNL A   1      45.759  29.106  35.014  1.00  0.00     0.173 A 
ATOM     83  F   UNL A   1      43.218  26.957  36.484  1.00  0.00    -0.203 F 
ATOM     84  C   UNL A   1      45.554  26.691  36.368  1.00  0.00     0.198 A 
ATOM     85  C   UNL A   1      46.901  28.358  35.286  1.00  0.00     0.198 A 
ATOM     86  F   UNL A   1      45.890  30.274  34.367  1.00  0.00    -0.203 F 
ATOM     87  F   UNL A   1      45.457  25.544  37.055  1.00  0.00    -0.200 F 
ATOM     88  C   UNL A   1      46.799  27.156  35.968  1.00  0.00     0.200 A 
ATOM     89  F   UNL A   1      48.101  28.804  34.890  1.00  0.00    -0.200 F 
ATOM     90  F   UNL A   1      47.902  26.448  36.250  1.00  0.00    -0.200 F 
ENDBRANCH  56  80
ENDBRANCH  21  24
ENDBRANCH  12  14
ENDBRANCH   7  10
ENDBRANCH   4   7
ENDBRANCH   1   4
BRANCH   1  91
ATOM     91  C   UNL A   1      35.205  33.684  28.996  1.00  0.00    -0.052 C 
ATOM     92  H   UNL A   1      35.395  34.063  29.978  1.00  0.00     0.027 H 
ATOM     93  H   UNL A   1      36.082  33.453  28.426  1.00  0.00     0.027 H 
BRANCH  91  94
ATOM     94  C   UNL A   1      34.465  32.348  29.150  1.00  0.00    -0.036 C 
ATOM     95  H   UNL A   1      33.621  32.511  29.788  1.00  0.00     0.028 H 
ATOM     96  H   UNL A   1      35.181  31.660  29.548  1.00  0.00     0.028 H 
BRANCH  94  97
ATOM     97  C   UNL A   1      33.959  31.721  27.852  1.00  0.00     0.017 C 
ATOM     98  H   UNL A   1      34.405  32.238  27.029  1.00  0.00     0.049 H 
ATOM     99  H   UNL A   1      32.894  31.808  27.851  1.00  0.00     0.049 H 
BRANCH  97 100
ATOM    100  N   UNL A   1      34.276  30.315  27.740  1.00  0.00    -0.354 N 
ATOM    101  C   UNL A   1      33.608  29.269  27.184  1.00  0.00     0.249 C 
ATOM    102  H   UNL A   1      35.140  30.068  28.142  1.00  0.00     0.163 HD
ATOM    103  O   UNL A   1      34.212  28.190  27.225  1.00  0.00    -0.272 OA
BRANCH 101 104
ATOM    104  C   UNL A   1      32.177  29.356  26.578  1.00  0.00     0.140 C 
ATOM    105  C   UNL A   1      31.976  29.656  25.105  1.00  0.00     0.019 C 
ATOM    106  O   UNL A   1      31.475  28.129  26.844  1.00  0.00    -0.357 OA
ATOM    107  H   UNL A   1      31.808  30.233  27.069  1.00  0.00     0.071 H 
ATOM    108  C   UNL A   1      31.220  28.474  24.487  1.00  0.00     0.124 C 
ATOM    109  H   UNL A   1      32.925  29.774  24.624  1.00  0.00     0.033 H 
ATOM    110  H   UNL A   1      31.422  30.563  24.979  1.00  0.00     0.033 H 
ATOM    111  C   UNL A   1      31.264  27.409  25.614  1.00  0.00     0.118 C 
ATOM    112  H   UNL A   1      30.334  26.887  25.534  1.00  0.00     0.069 H 
BRANCH 108 113
ATOM    113  C   UNL A   1      29.904  28.998  23.876  1.00  0.00     0.005 A 
ATOM    114  C   UNL A   1      29.807  30.415  23.761  1.00  0.00    -0.055 A 
ATOM    115  C   UNL A   1      28.778  28.270  23.447  1.00  0.00     0.047 A 
ATOM    116  C   UNL A   1      28.696  31.063  23.219  1.00  0.00    -0.062 A 
ATOM    117  H   UNL A   1      30.597  30.990  24.094  1.00  0.00     0.063 H 
ATOM    118  C   UNL A   1      27.674  28.927  22.867  1.00  0.00    -0.043 A 
ATOM    119  Cl  UNL A   1      28.553  26.571  23.631  1.00  0.00    -0.084 Cl
ATOM    120  C   UNL A   1      27.631  30.313  22.750  1.00  0.00    -0.061 A 
ATOM    121  H   UNL A   1      28.668  32.093  23.167  1.00  0.00     0.062 H 
ATOM    122  H   UNL A   1      26.879  28.367  22.519  1.00  0.00     0.064 H 
ATOM    123  H   UNL A   1      26.815  30.776  22.320  1.00  0.00     0.062 H 
ENDBRANCH 108 113
BRANCH 108 124
ATOM    124  O   UNL A   1      31.997  28.016  23.356  1.00  0.00    -0.382 OA
ATOM    125  H   UNL A   1      32.787  28.571  23.260  1.00  0.00     0.212 HD
ENDBRANCH 108 124
BRANCH 111 126
ATOM    126  C   UNL A   1      32.276  26.263  25.524  1.00  0.00     0.003 A 
ATOM    127  C   UNL A   1      33.571  26.474  25.011  1.00  0.00    -0.055 A 
ATOM    128  C   UNL A   1      31.981  24.966  25.992  1.00  0.00     0.046 A 
ATOM    129  C   UNL A   1      34.545  25.472  25.028  1.00  0.00    -0.062 A 
ATOM    130  H   UNL A   1      33.807  27.396  24.609  1.00  0.00     0.063 H 
ATOM    131  C   UNL A   1      32.956  23.958  25.996  1.00  0.00    -0.043 A 
ATOM    132  Cl  UNL A   1      30.411  24.504  26.559  1.00  0.00    -0.084 Cl
ATOM    133  C   UNL A   1      34.242  24.216  25.532  1.00  0.00    -0.061 A 
ATOM    134  H   UNL A   1      35.492  25.668  24.667  1.00  0.00     0.062 H 
ATOM    135  H   UNL A   1      32.718  23.017  26.347  1.00  0.00     0.064 H 
ATOM    136  H   UNL A   1      34.963  23.479  25.561  1.00  0.00     0.062 H 
ENDBRANCH 111 126
ENDBRANCH 101 104
ENDBRANCH  97 100
ENDBRANCH  94  97
ENDBRANCH  91  94
ENDBRANCH   1  91
TORSDOF 16
ENDMDL
