MODEL 1
REMARK VINA RESULT:     -12.1      0.000      0.000
REMARK SMILES C/C(=N\Nc1nc(-c2ccc(Cl)cc2)cs1)c1nnn(-c2ccc(C(=O)NCCCCCCNC(=O)c3ccc(-c4c5nc(c(-c6c(F)c(F)c(F)c(F)c6F)c6ccc([nH]6)c(-c6c(F)c(F)c(F)c(F)c6F)c6nc(c(-c7c(F)c(F)c(F)c(F)c7F)c7ccc4[nH]7)C=C6)C=C5)cc3)cc2)c1C
REMARK SMILES IDX 29 1 28 4 27 7 25 8 26 9 24 11 21 12 22 13 101 14 23 15
REMARK SMILES IDX 100 17 20 21 17 22 18 23 102 24 19 25 2 26 3 27 1 28 4 32
REMARK SMILES IDX 5 34 6 35 16 36 7 37 15 38 8 40 9 41 14 42 10 43 13 45 11 47
REMARK SMILES IDX 12 50 103 51 30 55 31 58 32 61 33 64 34 67 35 68 36 70 37 71
REMARK SMILES IDX 38 72 99 73 39 74 98 76 40 78 41 81 42 82 92 83 43 84 97 85
REMARK SMILES IDX 91 86 93 87 44 88 96 89 90 91 89 93 45 95 77 98 57 99 76 100
REMARK SMILES IDX 58 101 61 102 75 103 94 104 59 105 60 107 74 109 95 110
REMARK SMILES IDX 62 113 46 115 47 116 55 117 48 118 49 119 53 120 56 121
REMARK SMILES IDX 50 122 51 123 54 124 52 125 78 126 79 127 87 128 80 129
REMARK SMILES IDX 81 130 85 131 88 132 82 133 83 134 86 135 84 136 63 137
REMARK SMILES IDX 64 138 72 139 65 140 66 141 70 142 73 143 67 144 68 145
REMARK SMILES IDX 71 146 69 147
REMARK H PARENT 29 2 29 3 28 5 28 6 27 10 22 16 101 18 23 19 100 20 1 29 1 30
REMARK H PARENT 1 31 4 33 15 39 9 44 14 46 10 48 13 49 103 52 103 53 103 54
REMARK H PARENT 30 56 30 57 31 59 31 60 32 62 32 63 33 65 33 66 34 69 38 75
REMARK H PARENT 99 77 39 79 98 80 97 90 91 92 93 94 96 96 90 97 58 106 61 108
REMARK H PARENT 94 111 59 112 95 114
REMARK Flexibility Score: inf
ROOT
ATOM      1  C   UNL A   1      43.909  30.112  26.963  1.00  0.00    -0.036 C 
ATOM      2  H   UNL A   1      43.135  30.206  26.230  1.00  0.00     0.028 H 
ATOM      3  H   UNL A   1      44.823  29.747  26.543  1.00  0.00     0.028 H 
ENDROOT
BRANCH   1   4
ATOM      4  C   UNL A   1      43.459  29.096  28.016  1.00  0.00     0.018 C 
ATOM      5  H   UNL A   1      43.253  29.607  28.933  1.00  0.00     0.049 H 
ATOM      6  H   UNL A   1      42.578  28.600  27.664  1.00  0.00     0.049 H 
BRANCH   4   7
ATOM      7  N   UNL A   1      44.497  28.106  28.243  1.00  0.00    -0.352 N 
ATOM      8  C   UNL A   1      44.519  26.736  28.164  1.00  0.00     0.251 C 
ATOM      9  O   UNL A   1      45.585  26.165  28.395  1.00  0.00    -0.269 OA
ATOM     10  H   UNL A   1      45.361  28.498  28.507  1.00  0.00     0.163 HD
BRANCH   8  11
ATOM     11  C   UNL A   1      43.345  25.927  27.733  1.00  0.00     0.039 A 
ATOM     12  C   UNL A   1      41.382  24.082  27.024  1.00  0.00     0.067 A 
ATOM     13  C   UNL A   1      41.660  24.278  28.376  1.00  0.00    -0.036 A 
ATOM     14  C   UNL A   1      41.968  24.886  26.043  1.00  0.00    -0.036 A 
ATOM     15  C   UNL A   1      42.665  25.188  28.720  1.00  0.00    -0.047 A 
ATOM     16  H   UNL A   1      41.139  23.765  29.103  1.00  0.00     0.065 H 
ATOM     17  C   UNL A   1      42.910  25.844  26.410  1.00  0.00    -0.047 A 
ATOM     18  H   UNL A   1      41.704  24.771  25.052  1.00  0.00     0.065 H 
ATOM     19  H   UNL A   1      42.911  25.321  29.715  1.00  0.00     0.063 H 
ATOM     20  H   UNL A   1      43.286  26.494  25.701  1.00  0.00     0.063 H 
BRANCH  12  21
ATOM     21  N   UNL A   1      40.650  22.955  26.615  1.00  0.00    -0.217 N 
ATOM     22  C   UNL A   1      39.061  21.592  26.031  1.00  0.00     0.132 A 
ATOM     23  N   UNL A   1      40.256  20.920  26.000  1.00  0.00    -0.128 NA
ATOM     24  C   UNL A   1      39.286  22.904  26.414  1.00  0.00     0.071 A 
ATOM     25  N   UNL A   1      41.226  21.791  26.264  1.00  0.00    -0.061 NA
BRANCH  22  26
ATOM     26  C   UNL A   1      37.786  21.025  25.609  1.00  0.00     0.087 C 
ATOM     27  N   UNL A   1      36.741  21.790  25.756  1.00  0.00    -0.176 NA
BRANCH  26  28
ATOM     28  C   UNL A   1      37.873  19.655  24.986  1.00  0.00    -0.018 C 
ATOM     29  H   UNL A   1      36.886  19.279  24.811  1.00  0.00     0.030 H 
ATOM     30  H   UNL A   1      38.393  18.994  25.648  1.00  0.00     0.030 H 
ATOM     31  H   UNL A   1      38.400  19.718  24.057  1.00  0.00     0.030 H 
ENDBRANCH  26  28
BRANCH  27  32
ATOM     32  N   UNL A   1      35.483  21.501  25.272  1.00  0.00    -0.252 N 
ATOM     33  H   UNL A   1      35.292  20.539  25.185  1.00  0.00     0.193 HD
BRANCH  32  34
ATOM     34  C   UNL A   1      34.463  22.313  24.895  1.00  0.00     0.203 A 
ATOM     35  N   UNL A   1      34.391  23.608  25.093  1.00  0.00    -0.219 NA
ATOM     36  S   UNL A   1      33.046  21.648  24.157  1.00  0.00    -0.103 S 
ATOM     37  C   UNL A   1      33.087  24.044  24.981  1.00  0.00     0.084 A 
ATOM     38  C   UNL A   1      32.203  23.111  24.481  1.00  0.00     0.021 A 
ATOM     39  H   UNL A   1      31.195  23.267  24.326  1.00  0.00     0.076 H 
BRANCH  37  40
ATOM     40  C   UNL A   1      32.728  25.364  25.465  1.00  0.00     0.001 A 
ATOM     41  C   UNL A   1      33.668  26.401  25.402  1.00  0.00    -0.051 A 
ATOM     42  C   UNL A   1      31.498  25.590  26.100  1.00  0.00    -0.051 A 
ATOM     43  C   UNL A   1      33.372  27.658  25.934  1.00  0.00    -0.043 A 
ATOM     44  H   UNL A   1      34.586  26.234  24.961  1.00  0.00     0.063 H 
ATOM     45  C   UNL A   1      31.206  26.846  26.644  1.00  0.00    -0.043 A 
ATOM     46  H   UNL A   1      30.806  24.828  26.167  1.00  0.00     0.063 H 
ATOM     47  C   UNL A   1      32.141  27.876  26.550  1.00  0.00     0.041 A 
ATOM     48  H   UNL A   1      34.062  28.424  25.871  1.00  0.00     0.064 H 
ATOM     49  H   UNL A   1      30.301  27.010  27.111  1.00  0.00     0.064 H 
ATOM     50  Cl  UNL A   1      31.778  29.420  27.214  1.00  0.00    -0.084 Cl
ENDBRANCH  37  40
ENDBRANCH  32  34
ENDBRANCH  27  32
ENDBRANCH  22  26
BRANCH  24  51
ATOM     51  C   UNL A   1      38.387  24.089  26.479  1.00  0.00    -0.020 C 
ATOM     52  H   UNL A   1      37.382  23.785  26.274  1.00  0.00     0.030 H 
ATOM     53  H   UNL A   1      38.697  24.811  25.754  1.00  0.00     0.030 H 
ATOM     54  H   UNL A   1      38.437  24.520  27.458  1.00  0.00     0.030 H 
ENDBRANCH  24  51
ENDBRANCH  12  21
ENDBRANCH   8  11
ENDBRANCH   4   7
ENDBRANCH   1   4
BRANCH   1  55
ATOM     55  C   UNL A   1      44.202  31.504  27.540  1.00  0.00    -0.052 C 
ATOM     56  H   UNL A   1      45.215  31.512  27.882  1.00  0.00     0.027 H 
ATOM     57  H   UNL A   1      43.480  31.655  28.316  1.00  0.00     0.027 H 
BRANCH  55  58
ATOM     58  C   UNL A   1      44.021  32.682  26.566  1.00  0.00    -0.052 C 
ATOM     59  H   UNL A   1      43.282  33.336  26.981  1.00  0.00     0.027 H 
ATOM     60  H   UNL A   1      43.748  32.238  25.632  1.00  0.00     0.027 H 
BRANCH  58  61
ATOM     61  C   UNL A   1      45.272  33.522  26.266  1.00  0.00    -0.036 C 
ATOM     62  H   UNL A   1      45.803  33.061  25.460  1.00  0.00     0.028 H 
ATOM     63  H   UNL A   1      45.849  33.558  27.166  1.00  0.00     0.028 H 
BRANCH  61  64
ATOM     64  C   UNL A   1      44.963  34.958  25.878  1.00  0.00     0.018 C 
ATOM     65  H   UNL A   1      43.920  35.139  26.033  1.00  0.00     0.049 H 
ATOM     66  H   UNL A   1      45.237  35.084  24.851  1.00  0.00     0.049 H 
BRANCH  64  67
ATOM     67  N   UNL A   1      45.731  35.933  26.665  1.00  0.00    -0.352 N 
ATOM     68  C   UNL A   1      45.343  36.628  27.792  1.00  0.00     0.251 C 
ATOM     69  H   UNL A   1      46.644  36.114  26.345  1.00  0.00     0.163 HD
ATOM     70  O   UNL A   1      45.917  37.670  28.126  1.00  0.00    -0.269 OA
BRANCH  68  71
ATOM     71  C   UNL A   1      44.242  36.101  28.607  1.00  0.00     0.039 A 
ATOM     72  C   UNL A   1      42.928  36.571  28.512  1.00  0.00    -0.049 A 
ATOM     73  C   UNL A   1      44.560  35.065  29.476  1.00  0.00    -0.049 A 
ATOM     74  C   UNL A   1      41.942  35.938  29.265  1.00  0.00    -0.053 A 
ATOM     75  H   UNL A   1      42.696  37.367  27.898  1.00  0.00     0.063 H 
ATOM     76  C   UNL A   1      43.568  34.287  29.987  1.00  0.00    -0.053 A 
ATOM     77  H   UNL A   1      45.544  34.886  29.731  1.00  0.00     0.063 H 
ATOM     78  C   UNL A   1      42.278  34.787  29.995  1.00  0.00    -0.014 A 
ATOM     79  H   UNL A   1      40.979  36.309  29.286  1.00  0.00     0.063 H 
ATOM     80  H   UNL A   1      43.773  33.347  30.358  1.00  0.00     0.063 H 
BRANCH  78  81
ATOM     81  C   UNL A   1      41.298  34.009  30.733  1.00  0.00     0.031 A 
ATOM     82  C   UNL A   1      41.707  33.697  32.122  1.00  0.00     0.074 A 
ATOM     83  C   UNL A   1      40.039  33.820  30.274  1.00  0.00     0.049 A 
ATOM     84  N   UNL A   1      42.003  32.540  32.611  1.00  0.00    -0.248 NA
ATOM     85  C   UNL A   1      41.979  34.819  33.037  1.00  0.00    -0.034 C 
ATOM     86  C   UNL A   1      39.414  34.363  29.058  1.00  0.00    -0.036 A 
ATOM     87  N   UNL A   1      39.000  33.174  30.866  1.00  0.00    -0.354 N 
ATOM     88  C   UNL A   1      42.281  32.759  33.955  1.00  0.00     0.074 A 
ATOM     89  C   UNL A   1      42.461  34.178  34.104  1.00  0.00    -0.034 C 
ATOM     90  H   UNL A   1      41.835  35.831  32.893  1.00  0.00     0.065 H 
ATOM     91  C   UNL A   1      38.071  34.223  29.129  1.00  0.00    -0.036 A 
ATOM     92  H   UNL A   1      39.924  34.789  28.268  1.00  0.00     0.065 H 
ATOM     93  C   UNL A   1      37.754  33.428  30.298  1.00  0.00     0.049 A 
ATOM     94  H   UNL A   1      39.119  32.574  31.638  1.00  0.00     0.167 HD
ATOM     95  C   UNL A   1      42.052  31.779  34.872  1.00  0.00     0.037 A 
ATOM     96  H   UNL A   1      42.899  34.635  34.920  1.00  0.00     0.065 H 
ATOM     97  H   UNL A   1      37.388  34.615  28.463  1.00  0.00     0.065 H 
ATOM     98  C   UNL A   1      36.551  33.026  30.782  1.00  0.00     0.037 A 
ATOM     99  C   UNL A   1      41.899  30.497  34.223  1.00  0.00     0.049 A 
ATOM    100  C   UNL A   1      36.816  31.906  31.721  1.00  0.00     0.074 A 
ATOM    101  C   UNL A   1      42.698  29.722  33.404  1.00  0.00    -0.036 A 
ATOM    102  N   UNL A   1      40.622  30.018  34.053  1.00  0.00    -0.354 N 
ATOM    103  N   UNL A   1      37.276  30.744  31.345  1.00  0.00    -0.248 NA
ATOM    104  C   UNL A   1      37.037  32.245  33.119  1.00  0.00    -0.034 C 
ATOM    105  C   UNL A   1      41.808  29.171  32.434  1.00  0.00    -0.036 A 
ATOM    106  H   UNL A   1      43.717  29.574  33.478  1.00  0.00     0.065 H 
ATOM    107  C   UNL A   1      40.512  29.569  32.763  1.00  0.00     0.049 A 
ATOM    108  H   UNL A   1      39.913  30.001  34.736  1.00  0.00     0.167 HD
ATOM    109  C   UNL A   1      38.212  30.409  32.313  1.00  0.00     0.074 A 
ATOM    110  C   UNL A   1      37.967  31.334  33.417  1.00  0.00    -0.034 C 
ATOM    111  H   UNL A   1      36.602  32.975  33.705  1.00  0.00     0.065 H 
ATOM    112  H   UNL A   1      42.076  28.582  31.630  1.00  0.00     0.065 H 
ATOM    113  C   UNL A   1      39.284  29.621  32.004  1.00  0.00     0.037 A 
ATOM    114  H   UNL A   1      38.458  31.290  34.324  1.00  0.00     0.065 H 
BRANCH  95 115
ATOM    115  C   UNL A   1      41.551  32.026  36.275  1.00  0.00     0.064 A 
ATOM    116  C   UNL A   1      40.370  32.777  36.448  1.00  0.00     0.173 A 
ATOM    117  C   UNL A   1      42.327  31.842  37.441  1.00  0.00     0.173 A 
ATOM    118  F   UNL A   1      39.561  33.024  35.406  1.00  0.00    -0.203 F 
ATOM    119  C   UNL A   1      40.047  33.376  37.667  1.00  0.00     0.198 A 
ATOM    120  C   UNL A   1      41.972  32.396  38.670  1.00  0.00     0.198 A 
ATOM    121  F   UNL A   1      43.512  31.223  37.427  1.00  0.00    -0.203 F 
ATOM    122  F   UNL A   1      38.989  34.194  37.745  1.00  0.00    -0.200 F 
ATOM    123  C   UNL A   1      40.853  33.192  38.775  1.00  0.00     0.200 A 
ATOM    124  F   UNL A   1      42.778  32.219  39.727  1.00  0.00    -0.200 F 
ATOM    125  F   UNL A   1      40.584  33.822  39.926  1.00  0.00    -0.200 F 
ENDBRANCH  95 115
BRANCH  98 126
ATOM    126  C   UNL A   1      35.251  33.741  30.755  1.00  0.00     0.064 A 
ATOM    127  C   UNL A   1      34.952  34.737  31.699  1.00  0.00     0.173 A 
ATOM    128  C   UNL A   1      34.405  33.674  29.630  1.00  0.00     0.173 A 
ATOM    129  F   UNL A   1      35.733  34.900  32.777  1.00  0.00    -0.203 F 
ATOM    130  C   UNL A   1      33.893  35.635  31.513  1.00  0.00     0.198 A 
ATOM    131  C   UNL A   1      33.347  34.567  29.447  1.00  0.00     0.198 A 
ATOM    132  F   UNL A   1      34.651  32.807  28.637  1.00  0.00    -0.203 F 
ATOM    133  F   UNL A   1      33.683  36.616  32.403  1.00  0.00    -0.200 F 
ATOM    134  C   UNL A   1      33.100  35.557  30.380  1.00  0.00     0.200 A 
ATOM    135  F   UNL A   1      32.614  34.506  28.326  1.00  0.00    -0.200 F 
ATOM    136  F   UNL A   1      32.132  36.457  30.166  1.00  0.00    -0.200 F 
ENDBRANCH  98 126
BRANCH 113 137
ATOM    137  C   UNL A   1      39.277  28.916  30.675  1.00  0.00     0.064 A 
ATOM    138  C   UNL A   1      39.730  29.485  29.470  1.00  0.00     0.173 A 
ATOM    139  C   UNL A   1      38.924  27.561  30.650  1.00  0.00     0.173 A 
ATOM    140  F   UNL A   1      40.177  30.745  29.426  1.00  0.00    -0.203 F 
ATOM    141  C   UNL A   1      39.784  28.739  28.292  1.00  0.00     0.198 A 
ATOM    142  C   UNL A   1      39.013  26.809  29.482  1.00  0.00     0.198 A 
ATOM    143  F   UNL A   1      38.535  26.950  31.780  1.00  0.00    -0.203 F 
ATOM    144  F   UNL A   1      40.209  29.310  27.154  1.00  0.00    -0.200 F 
ATOM    145  C   UNL A   1      39.432  27.401  28.302  1.00  0.00     0.200 A 
ATOM    146  F   UNL A   1      38.718  25.502  29.509  1.00  0.00    -0.200 F 
ATOM    147  F   UNL A   1      39.521  26.673  27.179  1.00  0.00    -0.200 F 
ENDBRANCH 113 137
ENDBRANCH  78  81
ENDBRANCH  68  71
ENDBRANCH  64  67
ENDBRANCH  61  64
ENDBRANCH  58  61
ENDBRANCH  55  58
ENDBRANCH   1  55
TORSDOF 20
ENDMDL
MODEL 2
REMARK VINA RESULT:     -11.9      5.451     11.951
REMARK SMILES C/C(=N\Nc1nc(-c2ccc(Cl)cc2)cs1)c1nnn(-c2ccc(C(=O)NCCCCCCNC(=O)c3ccc(-c4c5nc(c(-c6c(F)c(F)c(F)c(F)c6F)c6ccc([nH]6)c(-c6c(F)c(F)c(F)c(F)c6F)c6nc(c(-c7c(F)c(F)c(F)c(F)c7F)c7ccc4[nH]7)C=C6)C=C5)cc3)cc2)c1C
REMARK SMILES IDX 29 1 28 4 27 7 25 8 26 9 24 11 21 12 22 13 101 14 23 15
REMARK SMILES IDX 100 17 20 21 17 22 18 23 102 24 19 25 2 26 3 27 1 28 4 32
REMARK SMILES IDX 5 34 6 35 16 36 7 37 15 38 8 40 9 41 14 42 10 43 13 45 11 47
REMARK SMILES IDX 12 50 103 51 30 55 31 58 32 61 33 64 34 67 35 68 36 70 37 71
REMARK SMILES IDX 38 72 99 73 39 74 98 76 40 78 41 81 42 82 92 83 43 84 97 85
REMARK SMILES IDX 91 86 93 87 44 88 96 89 90 91 89 93 45 95 77 98 57 99 76 100
REMARK SMILES IDX 58 101 61 102 75 103 94 104 59 105 60 107 74 109 95 110
REMARK SMILES IDX 62 113 46 115 47 116 55 117 48 118 49 119 53 120 56 121
REMARK SMILES IDX 50 122 51 123 54 124 52 125 78 126 79 127 87 128 80 129
REMARK SMILES IDX 81 130 85 131 88 132 82 133 83 134 86 135 84 136 63 137
REMARK SMILES IDX 64 138 72 139 65 140 66 141 70 142 73 143 67 144 68 145
REMARK SMILES IDX 71 146 69 147
REMARK H PARENT 29 2 29 3 28 5 28 6 27 10 22 16 101 18 23 19 100 20 1 29 1 30
REMARK H PARENT 1 31 4 33 15 39 9 44 14 46 10 48 13 49 103 52 103 53 103 54
REMARK H PARENT 30 56 30 57 31 59 31 60 32 62 32 63 33 65 33 66 34 69 38 75
REMARK H PARENT 99 77 39 79 98 80 97 90 91 92 93 94 96 96 90 97 58 106 61 108
REMARK H PARENT 94 111 59 112 95 114
REMARK Flexibility Score: inf
ROOT
ATOM      1  C   UNL A   1      36.735  33.497  34.689  1.00  0.00    -0.036 C 
ATOM      2  H   UNL A   1      35.701  33.532  34.959  1.00  0.00     0.028 H 
ATOM      3  H   UNL A   1      37.036  32.524  34.360  1.00  0.00     0.028 H 
ENDROOT
BRANCH   1   4
ATOM      4  C   UNL A   1      37.571  33.834  35.926  1.00  0.00     0.018 C 
ATOM      5  H   UNL A   1      38.175  34.692  35.721  1.00  0.00     0.049 H 
ATOM      6  H   UNL A   1      36.911  34.034  36.745  1.00  0.00     0.049 H 
BRANCH   4   7
ATOM      7  N   UNL A   1      38.429  32.716  36.278  1.00  0.00    -0.352 N 
ATOM      8  C   UNL A   1      39.481  32.106  35.642  1.00  0.00     0.251 C 
ATOM      9  O   UNL A   1      40.040  31.174  36.221  1.00  0.00    -0.269 OA
ATOM     10  H   UNL A   1      38.213  32.314  37.151  1.00  0.00     0.163 HD
BRANCH   8  11
ATOM     11  C   UNL A   1      40.023  32.573  34.335  1.00  0.00     0.039 A 
ATOM     12  C   UNL A   1      40.754  33.753  31.920  1.00  0.00     0.067 A 
ATOM     13  C   UNL A   1      41.101  34.391  33.109  1.00  0.00    -0.036 A 
ATOM     14  C   UNL A   1      40.176  32.481  31.926  1.00  0.00    -0.036 A 
ATOM     15  C   UNL A   1      40.708  33.803  34.316  1.00  0.00    -0.047 A 
ATOM     16  H   UNL A   1      41.634  35.274  33.099  1.00  0.00     0.065 H 
ATOM     17  C   UNL A   1      39.861  31.873  33.139  1.00  0.00    -0.047 A 
ATOM     18  H   UNL A   1      39.982  31.994  31.037  1.00  0.00     0.065 H 
ATOM     19  H   UNL A   1      40.923  34.279  35.207  1.00  0.00     0.063 H 
ATOM     20  H   UNL A   1      39.508  30.903  33.152  1.00  0.00     0.063 H 
BRANCH  12  21
ATOM     21  N   UNL A   1      40.812  34.454  30.705  1.00  0.00    -0.217 N 
ATOM     22  C   UNL A   1      41.473  35.604  28.982  1.00  0.00     0.132 A 
ATOM     23  N   UNL A   1      40.137  35.328  28.845  1.00  0.00    -0.128 NA
ATOM     24  C   UNL A   1      41.935  35.046  30.163  1.00  0.00     0.071 A 
ATOM     25  N   UNL A   1      39.772  34.543  29.856  1.00  0.00    -0.061 NA
BRANCH  22  26
ATOM     26  C   UNL A   1      42.282  36.277  27.974  1.00  0.00     0.087 C 
ATOM     27  N   UNL A   1      42.537  37.538  28.190  1.00  0.00    -0.176 NA
BRANCH  26  28
ATOM     28  C   UNL A   1      42.778  35.391  26.859  1.00  0.00    -0.018 C 
ATOM     29  H   UNL A   1      43.849  35.369  26.871  1.00  0.00     0.030 H 
ATOM     30  H   UNL A   1      42.440  35.776  25.920  1.00  0.00     0.030 H 
ATOM     31  H   UNL A   1      42.400  34.399  26.996  1.00  0.00     0.030 H 
ENDBRANCH  26  28
BRANCH  27  32
ATOM     32  N   UNL A   1      43.411  38.300  27.445  1.00  0.00    -0.252 N 
ATOM     33  H   UNL A   1      44.171  37.798  27.071  1.00  0.00     0.193 HD
BRANCH  32  34
ATOM     34  C   UNL A   1      43.405  39.622  27.137  1.00  0.00     0.203 A 
ATOM     35  N   UNL A   1      42.796  40.175  26.116  1.00  0.00    -0.219 NA
ATOM     36  S   UNL A   1      44.333  40.739  28.076  1.00  0.00    -0.103 S 
ATOM     37  C   UNL A   1      43.322  41.423  25.855  1.00  0.00     0.084 A 
ATOM     38  C   UNL A   1      44.183  41.903  26.819  1.00  0.00     0.021 A 
ATOM     39  H   UNL A   1      44.661  42.818  26.790  1.00  0.00     0.076 H 
BRANCH  37  40
ATOM     40  C   UNL A   1      43.024  42.079  24.595  1.00  0.00     0.001 A 
ATOM     41  C   UNL A   1      41.803  41.825  23.956  1.00  0.00    -0.051 A 
ATOM     42  C   UNL A   1      43.985  42.870  23.949  1.00  0.00    -0.051 A 
ATOM     43  C   UNL A   1      41.529  42.382  22.705  1.00  0.00    -0.043 A 
ATOM     44  H   UNL A   1      41.102  41.221  24.413  1.00  0.00     0.063 H 
ATOM     45  C   UNL A   1      43.715  43.418  22.690  1.00  0.00    -0.043 A 
ATOM     46  H   UNL A   1      44.895  43.049  24.403  1.00  0.00     0.063 H 
ATOM     47  C   UNL A   1      42.485  43.179  22.078  1.00  0.00     0.041 A 
ATOM     48  H   UNL A   1      40.621  42.205  22.246  1.00  0.00     0.064 H 
ATOM     49  H   UNL A   1      44.424  43.999  22.216  1.00  0.00     0.064 H 
ATOM     50  Cl  UNL A   1      42.154  43.858  20.534  1.00  0.00    -0.084 Cl
ENDBRANCH  37  40
ENDBRANCH  32  34
ENDBRANCH  27  32
ENDBRANCH  22  26
BRANCH  24  51
ATOM     51  C   UNL A   1      43.303  34.920  30.734  1.00  0.00    -0.020 C 
ATOM     52  H   UNL A   1      43.992  34.667  29.956  1.00  0.00     0.030 H 
ATOM     53  H   UNL A   1      43.308  34.152  31.479  1.00  0.00     0.030 H 
ATOM     54  H   UNL A   1      43.591  35.851  31.177  1.00  0.00     0.030 H 
ENDBRANCH  24  51
ENDBRANCH  12  21
ENDBRANCH   8  11
ENDBRANCH   4   7
ENDBRANCH   1   4
BRANCH   1  55
ATOM     55  C   UNL A   1      36.963  34.460  33.515  1.00  0.00    -0.052 C 
ATOM     56  H   UNL A   1      37.960  34.840  33.590  1.00  0.00     0.027 H 
ATOM     57  H   UNL A   1      36.204  35.209  33.602  1.00  0.00     0.027 H 
BRANCH  55  58
ATOM     58  C   UNL A   1      36.792  33.854  32.111  1.00  0.00    -0.052 C 
ATOM     59  H   UNL A   1      37.080  32.824  32.165  1.00  0.00     0.027 H 
ATOM     60  H   UNL A   1      37.401  34.453  31.467  1.00  0.00     0.027 H 
BRANCH  58  61
ATOM     61  C   UNL A   1      35.381  33.913  31.505  1.00  0.00    -0.036 C 
ATOM     62  H   UNL A   1      35.433  34.452  30.582  1.00  0.00     0.028 H 
ATOM     63  H   UNL A   1      34.751  34.394  32.223  1.00  0.00     0.028 H 
BRANCH  61  64
ATOM     64  C   UNL A   1      34.778  32.546  31.229  1.00  0.00     0.018 C 
ATOM     65  H   UNL A   1      33.885  32.442  31.809  1.00  0.00     0.049 H 
ATOM     66  H   UNL A   1      35.508  31.809  31.492  1.00  0.00     0.049 H 
BRANCH  64  67
ATOM     67  N   UNL A   1      34.443  32.353  29.812  1.00  0.00    -0.352 N 
ATOM     68  C   UNL A   1      35.238  31.866  28.795  1.00  0.00     0.251 C 
ATOM     69  H   UNL A   1      33.527  32.605  29.553  1.00  0.00     0.163 HD
ATOM     70  O   UNL A   1      34.977  32.106  27.612  1.00  0.00    -0.269 OA
BRANCH  68  71
ATOM     71  C   UNL A   1      36.401  31.038  29.139  1.00  0.00     0.039 A 
ATOM     72  C   UNL A   1      36.315  29.662  29.375  1.00  0.00    -0.049 A 
ATOM     73  C   UNL A   1      37.626  31.688  29.188  1.00  0.00    -0.049 A 
ATOM     74  C   UNL A   1      37.493  28.954  29.603  1.00  0.00    -0.053 A 
ATOM     75  H   UNL A   1      35.401  29.183  29.380  1.00  0.00     0.063 H 
ATOM     76  C   UNL A   1      38.776  30.961  29.135  1.00  0.00    -0.053 A 
ATOM     77  H   UNL A   1      37.666  32.716  29.262  1.00  0.00     0.063 H 
ATOM     78  C   UNL A   1      38.722  29.620  29.472  1.00  0.00    -0.014 A 
ATOM     79  H   UNL A   1      37.463  27.956  29.864  1.00  0.00     0.063 H 
ATOM     80  H   UNL A   1      39.665  31.399  28.851  1.00  0.00     0.063 H 
BRANCH  78  81
ATOM     81  C   UNL A   1      40.002  28.943  29.598  1.00  0.00     0.031 A 
ATOM     82  C   UNL A   1      40.441  28.757  31.000  1.00  0.00     0.074 A 
ATOM     83  C   UNL A   1      40.591  28.323  28.550  1.00  0.00     0.049 A 
ATOM     84  N   UNL A   1      41.440  29.321  31.590  1.00  0.00    -0.248 NA
ATOM     85  C   UNL A   1      39.576  27.979  31.904  1.00  0.00    -0.034 C 
ATOM     86  C   UNL A   1      40.086  28.156  27.179  1.00  0.00    -0.036 A 
ATOM     87  N   UNL A   1      41.745  27.604  28.520  1.00  0.00    -0.354 N 
ATOM     88  C   UNL A   1      41.465  28.796  32.877  1.00  0.00     0.074 A 
ATOM     89  C   UNL A   1      40.191  28.157  33.075  1.00  0.00    -0.034 C 
ATOM     90  H   UNL A   1      38.724  27.439  31.690  1.00  0.00     0.065 H 
ATOM     91  C   UNL A   1      40.802  27.204  26.538  1.00  0.00    -0.036 A 
ATOM     92  H   UNL A   1      39.302  28.685  26.767  1.00  0.00     0.065 H 
ATOM     93  C   UNL A   1      41.918  26.825  27.380  1.00  0.00     0.049 A 
ATOM     94  H   UNL A   1      42.407  27.633  29.249  1.00  0.00     0.167 HD
ATOM     95  C   UNL A   1      42.641  28.690  33.553  1.00  0.00     0.037 A 
ATOM     96  H   UNL A   1      39.808  27.876  33.992  1.00  0.00     0.065 H 
ATOM     97  H   UNL A   1      40.589  26.816  25.606  1.00  0.00     0.065 H 
ATOM     98  C   UNL A   1      42.903  25.915  27.168  1.00  0.00     0.037 A 
ATOM     99  C   UNL A   1      43.660  29.512  32.941  1.00  0.00     0.049 A 
ATOM    100  C   UNL A   1      43.995  26.231  28.124  1.00  0.00     0.074 A 
ATOM    101  C   UNL A   1      43.787  30.862  32.674  1.00  0.00    -0.036 A 
ATOM    102  N   UNL A   1      44.581  28.888  32.134  1.00  0.00    -0.354 N 
ATOM    103  N   UNL A   1      44.714  27.318  28.063  1.00  0.00    -0.248 NA
ATOM    104  C   UNL A   1      43.952  25.579  29.424  1.00  0.00    -0.034 C 
ATOM    105  C   UNL A   1      44.407  30.928  31.391  1.00  0.00    -0.036 A 
ATOM    106  H   UNL A   1      43.497  31.651  33.274  1.00  0.00     0.065 H 
ATOM    107  C   UNL A   1      44.699  29.625  30.985  1.00  0.00     0.049 A 
ATOM    108  H   UNL A   1      45.069  28.059  32.345  1.00  0.00     0.167 HD
ATOM    109  C   UNL A   1      44.844  27.725  29.383  1.00  0.00     0.074 A 
ATOM    110  C   UNL A   1      44.418  26.577  30.180  1.00  0.00    -0.034 C 
ATOM    111  H   UNL A   1      43.650  24.627  29.684  1.00  0.00     0.065 H 
ATOM    112  H   UNL A   1      44.605  31.788  30.856  1.00  0.00     0.065 H 
ATOM    113  C   UNL A   1      44.992  29.047  29.694  1.00  0.00     0.037 A 
ATOM    114  H   UNL A   1      44.472  26.540  31.210  1.00  0.00     0.065 H 
BRANCH  95 115
ATOM    115  C   UNL A   1      42.989  27.550  34.481  1.00  0.00     0.064 A 
ATOM    116  C   UNL A   1      43.184  27.829  35.849  1.00  0.00     0.173 A 
ATOM    117  C   UNL A   1      43.443  26.283  34.050  1.00  0.00     0.173 A 
ATOM    118  F   UNL A   1      42.802  29.006  36.367  1.00  0.00    -0.203 F 
ATOM    119  C   UNL A   1      43.869  26.950  36.691  1.00  0.00     0.198 A 
ATOM    120  C   UNL A   1      44.076  25.386  34.908  1.00  0.00     0.198 A 
ATOM    121  F   UNL A   1      43.403  25.901  32.770  1.00  0.00    -0.203 F 
ATOM    122  F   UNL A   1      44.153  27.320  37.947  1.00  0.00    -0.200 F 
ATOM    123  C   UNL A   1      44.322  25.732  36.218  1.00  0.00     0.200 A 
ATOM    124  F   UNL A   1      44.523  24.218  34.423  1.00  0.00    -0.200 F 
ATOM    125  F   UNL A   1      45.039  24.919  37.003  1.00  0.00    -0.200 F 
ENDBRANCH  95 115
BRANCH  98 126
ATOM    126  C   UNL A   1      42.833  24.617  26.452  1.00  0.00     0.064 A 
ATOM    127  C   UNL A   1      43.627  24.370  25.320  1.00  0.00     0.173 A 
ATOM    128  C   UNL A   1      42.215  23.494  27.037  1.00  0.00     0.173 A 
ATOM    129  F   UNL A   1      44.288  25.376  24.728  1.00  0.00    -0.203 F 
ATOM    130  C   UNL A   1      43.820  23.075  24.823  1.00  0.00     0.198 A 
ATOM    131  C   UNL A   1      42.404  22.203  26.538  1.00  0.00     0.198 A 
ATOM    132  F   UNL A   1      41.498  23.614  28.164  1.00  0.00    -0.203 F 
ATOM    133  F   UNL A   1      44.640  22.872  23.781  1.00  0.00    -0.200 F 
ATOM    134  C   UNL A   1      43.218  21.991  25.441  1.00  0.00     0.200 A 
ATOM    135  F   UNL A   1      41.850  21.159  27.171  1.00  0.00    -0.200 F 
ATOM    136  F   UNL A   1      43.457  20.745  25.010  1.00  0.00    -0.200 F 
ENDBRANCH  98 126
BRANCH 113 137
ATOM    137  C   UNL A   1      45.277  30.004  28.570  1.00  0.00     0.064 A 
ATOM    138  C   UNL A   1      44.291  30.689  27.837  1.00  0.00     0.173 A 
ATOM    139  C   UNL A   1      46.613  30.345  28.319  1.00  0.00     0.173 A 
ATOM    140  F   UNL A   1      42.990  30.494  28.081  1.00  0.00    -0.203 F 
ATOM    141  C   UNL A   1      44.632  31.637  26.872  1.00  0.00     0.198 A 
ATOM    142  C   UNL A   1      46.949  31.317  27.381  1.00  0.00     0.198 A 
ATOM    143  F   UNL A   1      47.596  29.764  29.025  1.00  0.00    -0.203 F 
ATOM    144  F   UNL A   1      43.670  32.266  26.179  1.00  0.00    -0.200 F 
ATOM    145  C   UNL A   1      45.960  31.954  26.650  1.00  0.00     0.200 A 
ATOM    146  F   UNL A   1      48.235  31.655  27.206  1.00  0.00    -0.200 F 
ATOM    147  F   UNL A   1      46.287  32.893  25.750  1.00  0.00    -0.200 F 
ENDBRANCH 113 137
ENDBRANCH  78  81
ENDBRANCH  68  71
ENDBRANCH  64  67
ENDBRANCH  61  64
ENDBRANCH  58  61
ENDBRANCH  55  58
ENDBRANCH   1  55
TORSDOF 20
ENDMDL
MODEL 3
REMARK VINA RESULT:     -11.7      3.530      7.592
REMARK SMILES C/C(=N\Nc1nc(-c2ccc(Cl)cc2)cs1)c1nnn(-c2ccc(C(=O)NCCCCCCNC(=O)c3ccc(-c4c5nc(c(-c6c(F)c(F)c(F)c(F)c6F)c6ccc([nH]6)c(-c6c(F)c(F)c(F)c(F)c6F)c6nc(c(-c7c(F)c(F)c(F)c(F)c7F)c7ccc4[nH]7)C=C6)C=C5)cc3)cc2)c1C
REMARK SMILES IDX 29 1 28 4 27 7 25 8 26 9 24 11 21 12 22 13 101 14 23 15
REMARK SMILES IDX 100 17 20 21 17 22 18 23 102 24 19 25 2 26 3 27 1 28 4 32
REMARK SMILES IDX 5 34 6 35 16 36 7 37 15 38 8 40 9 41 14 42 10 43 13 45 11 47
REMARK SMILES IDX 12 50 103 51 30 55 31 58 32 61 33 64 34 67 35 68 36 70 37 71
REMARK SMILES IDX 38 72 99 73 39 74 98 76 40 78 41 81 42 82 92 83 43 84 97 85
REMARK SMILES IDX 91 86 93 87 44 88 96 89 90 91 89 93 45 95 77 98 57 99 76 100
REMARK SMILES IDX 58 101 61 102 75 103 94 104 59 105 60 107 74 109 95 110
REMARK SMILES IDX 62 113 46 115 47 116 55 117 48 118 49 119 53 120 56 121
REMARK SMILES IDX 50 122 51 123 54 124 52 125 78 126 79 127 87 128 80 129
REMARK SMILES IDX 81 130 85 131 88 132 82 133 83 134 86 135 84 136 63 137
REMARK SMILES IDX 64 138 72 139 65 140 66 141 70 142 73 143 67 144 68 145
REMARK SMILES IDX 71 146 69 147
REMARK H PARENT 29 2 29 3 28 5 28 6 27 10 22 16 101 18 23 19 100 20 1 29 1 30
REMARK H PARENT 1 31 4 33 15 39 9 44 14 46 10 48 13 49 103 52 103 53 103 54
REMARK H PARENT 30 56 30 57 31 59 31 60 32 62 32 63 33 65 33 66 34 69 38 75
REMARK H PARENT 99 77 39 79 98 80 97 90 91 92 93 94 96 96 90 97 58 106 61 108
REMARK H PARENT 94 111 59 112 95 114
REMARK Flexibility Score: inf
ROOT
ATOM      1  C   UNL A   1      46.178  20.805  24.623  1.00  0.00    -0.036 C 
ATOM      2  H   UNL A   1      47.089  20.471  24.172  1.00  0.00     0.028 H 
ATOM      3  H   UNL A   1      46.149  20.605  25.674  1.00  0.00     0.028 H 
ENDROOT
BRANCH   1   4
ATOM      4  C   UNL A   1      45.015  20.040  23.986  1.00  0.00     0.018 C 
ATOM      5  H   UNL A   1      44.189  20.706  23.851  1.00  0.00     0.049 H 
ATOM      6  H   UNL A   1      45.333  19.650  23.042  1.00  0.00     0.049 H 
BRANCH   4   7
ATOM      7  N   UNL A   1      44.606  18.936  24.837  1.00  0.00    -0.352 N 
ATOM      8  C   UNL A   1      43.630  18.801  25.792  1.00  0.00     0.251 C 
ATOM      9  O   UNL A   1      43.508  17.703  26.337  1.00  0.00    -0.269 OA
ATOM     10  H   UNL A   1      45.139  18.119  24.702  1.00  0.00     0.163 HD
BRANCH   8  11
ATOM     11  C   UNL A   1      42.667  19.886  26.131  1.00  0.00     0.039 A 
ATOM     12  C   UNL A   1      40.599  21.711  26.518  1.00  0.00     0.067 A 
ATOM     13  C   UNL A   1      40.507  20.457  27.119  1.00  0.00    -0.036 A 
ATOM     14  C   UNL A   1      41.760  22.107  25.850  1.00  0.00    -0.036 A 
ATOM     15  C   UNL A   1      41.538  19.539  26.898  1.00  0.00    -0.047 A 
ATOM     16  H   UNL A   1      39.699  20.213  27.712  1.00  0.00     0.065 H 
ATOM     17  C   UNL A   1      42.813  21.207  25.706  1.00  0.00    -0.047 A 
ATOM     18  H   UNL A   1      41.838  23.061  25.464  1.00  0.00     0.065 H 
ATOM     19  H   UNL A   1      41.471  18.592  27.305  1.00  0.00     0.063 H 
ATOM     20  H   UNL A   1      43.702  21.517  25.284  1.00  0.00     0.063 H 
BRANCH  12  21
ATOM     21  N   UNL A   1      39.460  22.526  26.418  1.00  0.00    -0.217 N 
ATOM     22  C   UNL A   1      37.497  23.329  25.939  1.00  0.00     0.132 A 
ATOM     23  N   UNL A   1      38.175  24.242  26.704  1.00  0.00    -0.128 NA
ATOM     24  C   UNL A   1      38.294  22.212  25.748  1.00  0.00     0.071 A 
ATOM     25  N   UNL A   1      39.333  23.697  27.069  1.00  0.00    -0.061 NA
BRANCH  22  26
ATOM     26  C   UNL A   1      36.113  23.482  25.508  1.00  0.00     0.087 C 
ATOM     27  N   UNL A   1      35.911  23.489  24.220  1.00  0.00    -0.176 NA
BRANCH  26  28
ATOM     28  C   UNL A   1      35.100  23.530  26.623  1.00  0.00    -0.018 C 
ATOM     29  H   UNL A   1      34.114  23.580  26.208  1.00  0.00     0.030 H 
ATOM     30  H   UNL A   1      35.275  24.395  27.228  1.00  0.00     0.030 H 
ATOM     31  H   UNL A   1      35.188  22.649  27.225  1.00  0.00     0.030 H 
ENDBRANCH  26  28
BRANCH  27  32
ATOM     32  N   UNL A   1      34.669  23.460  23.621  1.00  0.00    -0.252 N 
ATOM     33  H   UNL A   1      34.417  24.296  23.166  1.00  0.00     0.193 HD
BRANCH  32  34
ATOM     34  C   UNL A   1      33.735  22.478  23.550  1.00  0.00     0.203 A 
ATOM     35  N   UNL A   1      33.709  21.382  24.271  1.00  0.00    -0.219 NA
ATOM     36  S   UNL A   1      32.475  22.557  22.368  1.00  0.00    -0.103 S 
ATOM     37  C   UNL A   1      32.905  20.431  23.678  1.00  0.00     0.084 A 
ATOM     38  C   UNL A   1      32.149  20.887  22.619  1.00  0.00     0.021 A 
ATOM     39  H   UNL A   1      31.491  20.317  22.065  1.00  0.00     0.076 H 
BRANCH  37  40
ATOM     40  C   UNL A   1      32.977  19.051  24.123  1.00  0.00     0.001 A 
ATOM     41  C   UNL A   1      33.282  18.043  23.200  1.00  0.00    -0.051 A 
ATOM     42  C   UNL A   1      32.633  18.698  25.436  1.00  0.00    -0.051 A 
ATOM     43  C   UNL A   1      33.279  16.702  23.588  1.00  0.00    -0.043 A 
ATOM     44  H   UNL A   1      33.509  18.293  22.224  1.00  0.00     0.063 H 
ATOM     45  C   UNL A   1      32.617  17.353  25.823  1.00  0.00    -0.043 A 
ATOM     46  H   UNL A   1      32.389  19.432  26.120  1.00  0.00     0.063 H 
ATOM     47  C   UNL A   1      32.949  16.362  24.899  1.00  0.00     0.041 A 
ATOM     48  H   UNL A   1      33.520  15.963  22.908  1.00  0.00     0.064 H 
ATOM     49  H   UNL A   1      32.363  17.095  26.789  1.00  0.00     0.064 H 
ATOM     50  Cl  UNL A   1      32.935  14.711  25.379  1.00  0.00    -0.084 Cl
ENDBRANCH  37  40
ENDBRANCH  32  34
ENDBRANCH  27  32
ENDBRANCH  22  26
BRANCH  24  51
ATOM     51  C   UNL A   1      38.020  20.889  25.126  1.00  0.00    -0.020 C 
ATOM     52  H   UNL A   1      38.943  20.434  24.834  1.00  0.00     0.030 H 
ATOM     53  H   UNL A   1      37.399  21.021  24.265  1.00  0.00     0.030 H 
ATOM     54  H   UNL A   1      37.521  20.260  25.834  1.00  0.00     0.030 H 
ENDBRANCH  24  51
ENDBRANCH  12  21
ENDBRANCH   8  11
ENDBRANCH   4   7
ENDBRANCH   1   4
BRANCH   1  55
ATOM     55  C   UNL A   1      46.081  22.326  24.450  1.00  0.00    -0.052 C 
ATOM     56  H   UNL A   1      45.269  22.530  23.783  1.00  0.00     0.027 H 
ATOM     57  H   UNL A   1      47.035  22.639  24.080  1.00  0.00     0.027 H 
BRANCH  55  58
ATOM     58  C   UNL A   1      45.847  23.132  25.740  1.00  0.00    -0.052 C 
ATOM     59  H   UNL A   1      46.754  23.103  26.309  1.00  0.00     0.027 H 
ATOM     60  H   UNL A   1      45.009  22.668  26.216  1.00  0.00     0.027 H 
BRANCH  58  61
ATOM     61  C   UNL A   1      45.451  24.606  25.566  1.00  0.00    -0.036 C 
ATOM     62  H   UNL A   1      44.832  24.689  24.698  1.00  0.00     0.028 H 
ATOM     63  H   UNL A   1      46.358  25.166  25.474  1.00  0.00     0.028 H 
BRANCH  61  64
ATOM     64  C   UNL A   1      44.694  25.178  26.753  1.00  0.00     0.018 C 
ATOM     65  H   UNL A   1      44.156  26.046  26.430  1.00  0.00     0.049 H 
ATOM     66  H   UNL A   1      45.410  25.417  27.511  1.00  0.00     0.049 H 
BRANCH  64  67
ATOM     67  N   UNL A   1      43.739  24.221  27.328  1.00  0.00    -0.352 N 
ATOM     68  C   UNL A   1      42.988  24.338  28.479  1.00  0.00     0.251 C 
ATOM     69  H   UNL A   1      43.620  23.384  26.824  1.00  0.00     0.163 HD
ATOM     70  O   UNL A   1      42.529  23.340  29.043  1.00  0.00    -0.269 OA
BRANCH  68  71
ATOM     71  C   UNL A   1      42.723  25.677  29.021  1.00  0.00     0.039 A 
ATOM     72  C   UNL A   1      43.510  26.268  30.014  1.00  0.00    -0.049 A 
ATOM     73  C   UNL A   1      41.652  26.364  28.467  1.00  0.00    -0.049 A 
ATOM     74  C   UNL A   1      43.227  27.579  30.391  1.00  0.00    -0.053 A 
ATOM     75  H   UNL A   1      44.283  25.745  30.457  1.00  0.00     0.063 H 
ATOM     76  C   UNL A   1      41.557  27.711  28.636  1.00  0.00    -0.053 A 
ATOM     77  H   UNL A   1      40.932  25.856  27.929  1.00  0.00     0.063 H 
ATOM     78  C   UNL A   1      42.247  28.292  29.684  1.00  0.00    -0.014 A 
ATOM     79  H   UNL A   1      43.731  28.019  31.178  1.00  0.00     0.063 H 
ATOM     80  H   UNL A   1      40.984  28.284  27.998  1.00  0.00     0.063 H 
BRANCH  78  81
ATOM     81  C   UNL A   1      41.950  29.691  29.944  1.00  0.00     0.031 A 
ATOM     82  C   UNL A   1      42.905  30.631  29.311  1.00  0.00     0.074 A 
ATOM     83  C   UNL A   1      40.776  30.086  30.488  1.00  0.00     0.049 A 
ATOM     84  N   UNL A   1      43.758  31.397  29.902  1.00  0.00    -0.248 NA
ATOM     85  C   UNL A   1      43.044  30.600  27.845  1.00  0.00    -0.034 C 
ATOM     86  C   UNL A   1      39.611  29.265  30.853  1.00  0.00    -0.036 A 
ATOM     87  N   UNL A   1      40.328  31.345  30.737  1.00  0.00    -0.354 N 
ATOM     88  C   UNL A   1      44.388  32.111  28.890  1.00  0.00     0.074 A 
ATOM     89  C   UNL A   1      44.070  31.435  27.661  1.00  0.00    -0.034 C 
ATOM     90  H   UNL A   1      42.496  30.075  27.146  1.00  0.00     0.065 H 
ATOM     91  C   UNL A   1      38.532  30.057  31.046  1.00  0.00    -0.036 A 
ATOM     92  H   UNL A   1      39.615  28.237  30.948  1.00  0.00     0.065 H 
ATOM     93  C   UNL A   1      38.964  31.439  30.996  1.00  0.00     0.049 A 
ATOM     94  H   UNL A   1      40.923  32.130  30.734  1.00  0.00     0.167 HD
ATOM     95  C   UNL A   1      44.875  33.359  29.131  1.00  0.00     0.037 A 
ATOM     96  H   UNL A   1      44.563  31.575  26.765  1.00  0.00     0.065 H 
ATOM     97  H   UNL A   1      37.566  29.732  31.204  1.00  0.00     0.065 H 
ATOM     98  C   UNL A   1      38.247  32.584  31.133  1.00  0.00     0.037 A 
ATOM     99  C   UNL A   1      44.990  33.599  30.551  1.00  0.00     0.049 A 
ATOM    100  C   UNL A   1      39.218  33.669  31.426  1.00  0.00     0.074 A 
ATOM    101  C   UNL A   1      45.677  32.991  31.585  1.00  0.00    -0.036 A 
ATOM    102  N   UNL A   1      44.009  34.350  31.151  1.00  0.00    -0.354 N 
ATOM    103  N   UNL A   1      39.912  33.737  32.529  1.00  0.00    -0.248 NA
ATOM    104  C   UNL A   1      39.773  34.391  30.291  1.00  0.00    -0.034 C 
ATOM    105  C   UNL A   1      44.775  33.013  32.691  1.00  0.00    -0.036 A 
ATOM    106  H   UNL A   1      46.635  32.606  31.562  1.00  0.00     0.065 H 
ATOM    107  C   UNL A   1      43.627  33.703  32.298  1.00  0.00     0.049 A 
ATOM    108  H   UNL A   1      43.645  35.202  30.818  1.00  0.00     0.167 HD
ATOM    109  C   UNL A   1      41.180  34.123  32.121  1.00  0.00     0.074 A 
ATOM    110  C   UNL A   1      41.014  34.583  30.744  1.00  0.00    -0.034 C 
ATOM    111  H   UNL A   1      39.334  34.672  29.399  1.00  0.00     0.065 H 
ATOM    112  H   UNL A   1      44.942  32.592  33.618  1.00  0.00     0.065 H 
ATOM    113  C   UNL A   1      42.286  33.750  32.831  1.00  0.00     0.037 A 
ATOM    114  H   UNL A   1      41.771  35.007  30.184  1.00  0.00     0.065 H 
BRANCH  95 115
ATOM    115  C   UNL A   1      44.844  34.492  28.132  1.00  0.00     0.064 A 
ATOM    116  C   UNL A   1      46.039  35.191  27.867  1.00  0.00     0.173 A 
ATOM    117  C   UNL A   1      43.662  35.118  27.675  1.00  0.00     0.173 A 
ATOM    118  F   UNL A   1      47.220  34.698  28.266  1.00  0.00    -0.203 F 
ATOM    119  C   UNL A   1      46.038  36.459  27.281  1.00  0.00     0.198 A 
ATOM    120  C   UNL A   1      43.671  36.358  27.040  1.00  0.00     0.198 A 
ATOM    121  F   UNL A   1      42.444  34.622  27.919  1.00  0.00    -0.203 F 
ATOM    122  F   UNL A   1      47.186  37.143  27.178  1.00  0.00    -0.200 F 
ATOM    123  C   UNL A   1      44.854  37.046  26.876  1.00  0.00     0.200 A 
ATOM    124  F   UNL A   1      42.509  36.916  26.671  1.00  0.00    -0.200 F 
ATOM    125  F   UNL A   1      44.843  38.288  26.378  1.00  0.00    -0.200 F 
ENDBRANCH  95 115
BRANCH  98 126
ATOM    126  C   UNL A   1      36.854  32.867  30.706  1.00  0.00     0.064 A 
ATOM    127  C   UNL A   1      35.888  33.305  31.627  1.00  0.00     0.173 A 
ATOM    128  C   UNL A   1      36.523  33.003  29.343  1.00  0.00     0.173 A 
ATOM    129  F   UNL A   1      36.141  33.254  32.944  1.00  0.00    -0.203 F 
ATOM    130  C   UNL A   1      34.679  33.877  31.211  1.00  0.00     0.198 A 
ATOM    131  C   UNL A   1      35.315  33.569  28.929  1.00  0.00     0.198 A 
ATOM    132  F   UNL A   1      37.407  32.683  28.386  1.00  0.00    -0.203 F 
ATOM    133  F   UNL A   1      33.813  34.346  32.121  1.00  0.00    -0.200 F 
ATOM    134  C   UNL A   1      34.400  34.020  29.862  1.00  0.00     0.200 A 
ATOM    135  F   UNL A   1      35.076  33.739  27.621  1.00  0.00    -0.200 F 
ATOM    136  F   UNL A   1      33.276  34.629  29.463  1.00  0.00    -0.200 F 
ENDBRANCH  98 126
BRANCH 113 137
ATOM    137  C   UNL A   1      42.074  33.148  34.193  1.00  0.00     0.064 A 
ATOM    138  C   UNL A   1      41.966  31.768  34.445  1.00  0.00     0.173 A 
ATOM    139  C   UNL A   1      42.122  34.000  35.304  1.00  0.00     0.173 A 
ATOM    140  F   UNL A   1      42.010  30.878  33.447  1.00  0.00    -0.203 F 
ATOM    141  C   UNL A   1      41.868  31.275  35.746  1.00  0.00     0.198 A 
ATOM    142  C   UNL A   1      42.060  33.503  36.602  1.00  0.00     0.198 A 
ATOM    143  F   UNL A   1      42.278  35.322  35.128  1.00  0.00    -0.203 F 
ATOM    144  F   UNL A   1      41.753  29.955  35.958  1.00  0.00    -0.200 F 
ATOM    145  C   UNL A   1      41.922  32.142  36.823  1.00  0.00     0.200 A 
ATOM    146  F   UNL A   1      42.163  34.343  37.642  1.00  0.00    -0.200 F 
ATOM    147  F   UNL A   1      41.867  31.666  38.075  1.00  0.00    -0.200 F 
ENDBRANCH 113 137
ENDBRANCH  78  81
ENDBRANCH  68  71
ENDBRANCH  64  67
ENDBRANCH  61  64
ENDBRANCH  58  61
ENDBRANCH  55  58
ENDBRANCH   1  55
TORSDOF 20
ENDMDL
MODEL 4
REMARK VINA RESULT:     -11.6      4.976      9.935
REMARK SMILES C/C(=N\Nc1nc(-c2ccc(Cl)cc2)cs1)c1nnn(-c2ccc(C(=O)NCCCCCCNC(=O)c3ccc(-c4c5nc(c(-c6c(F)c(F)c(F)c(F)c6F)c6ccc([nH]6)c(-c6c(F)c(F)c(F)c(F)c6F)c6nc(c(-c7c(F)c(F)c(F)c(F)c7F)c7ccc4[nH]7)C=C6)C=C5)cc3)cc2)c1C
REMARK SMILES IDX 29 1 28 4 27 7 25 8 26 9 24 11 21 12 22 13 101 14 23 15
REMARK SMILES IDX 100 17 20 21 17 22 18 23 102 24 19 25 2 26 3 27 1 28 4 32
REMARK SMILES IDX 5 34 6 35 16 36 7 37 15 38 8 40 9 41 14 42 10 43 13 45 11 47
REMARK SMILES IDX 12 50 103 51 30 55 31 58 32 61 33 64 34 67 35 68 36 70 37 71
REMARK SMILES IDX 38 72 99 73 39 74 98 76 40 78 41 81 42 82 92 83 43 84 97 85
REMARK SMILES IDX 91 86 93 87 44 88 96 89 90 91 89 93 45 95 77 98 57 99 76 100
REMARK SMILES IDX 58 101 61 102 75 103 94 104 59 105 60 107 74 109 95 110
REMARK SMILES IDX 62 113 46 115 47 116 55 117 48 118 49 119 53 120 56 121
REMARK SMILES IDX 50 122 51 123 54 124 52 125 78 126 79 127 87 128 80 129
REMARK SMILES IDX 81 130 85 131 88 132 82 133 83 134 86 135 84 136 63 137
REMARK SMILES IDX 64 138 72 139 65 140 66 141 70 142 73 143 67 144 68 145
REMARK SMILES IDX 71 146 69 147
REMARK H PARENT 29 2 29 3 28 5 28 6 27 10 22 16 101 18 23 19 100 20 1 29 1 30
REMARK H PARENT 1 31 4 33 15 39 9 44 14 46 10 48 13 49 103 52 103 53 103 54
REMARK H PARENT 30 56 30 57 31 59 31 60 32 62 32 63 33 65 33 66 34 69 38 75
REMARK H PARENT 99 77 39 79 98 80 97 90 91 92 93 94 96 96 90 97 58 106 61 108
REMARK H PARENT 94 111 59 112 95 114
REMARK Flexibility Score: inf
ROOT
ATOM      1  C   UNL A   1      34.590  35.659  33.589  1.00  0.00    -0.036 C 
ATOM      2  H   UNL A   1      34.361  36.480  34.236  1.00  0.00     0.028 H 
ATOM      3  H   UNL A   1      35.309  35.921  32.841  1.00  0.00     0.028 H 
ENDROOT
BRANCH   1   4
ATOM      4  C   UNL A   1      33.309  35.247  32.859  1.00  0.00     0.018 C 
ATOM      5  H   UNL A   1      33.427  34.256  32.475  1.00  0.00     0.049 H 
ATOM      6  H   UNL A   1      32.492  35.281  33.549  1.00  0.00     0.049 H 
BRANCH   4   7
ATOM      7  N   UNL A   1      33.036  36.157  31.761  1.00  0.00    -0.352 N 
ATOM      8  C   UNL A   1      33.210  36.066  30.402  1.00  0.00     0.251 C 
ATOM      9  O   UNL A   1      32.847  37.019  29.712  1.00  0.00    -0.269 OA
ATOM     10  H   UNL A   1      32.646  37.014  32.049  1.00  0.00     0.163 HD
BRANCH   8  11
ATOM     11  C   UNL A   1      33.734  34.844  29.729  1.00  0.00     0.039 A 
ATOM     12  C   UNL A   1      34.312  32.455  28.420  1.00  0.00     0.067 A 
ATOM     13  C   UNL A   1      33.798  33.517  27.679  1.00  0.00    -0.036 A 
ATOM     14  C   UNL A   1      34.664  32.616  29.762  1.00  0.00    -0.036 A 
ATOM     15  C   UNL A   1      33.488  34.705  28.350  1.00  0.00    -0.047 A 
ATOM     16  H   UNL A   1      33.651  33.430  26.662  1.00  0.00     0.065 H 
ATOM     17  C   UNL A   1      34.422  33.831  30.398  1.00  0.00    -0.047 A 
ATOM     18  H   UNL A   1      35.102  31.838  30.281  1.00  0.00     0.065 H 
ATOM     19  H   UNL A   1      33.072  35.491  27.825  1.00  0.00     0.063 H 
ATOM     20  H   UNL A   1      34.752  33.982  31.364  1.00  0.00     0.063 H 
BRANCH  12  21
ATOM     21  N   UNL A   1      34.312  31.158  27.880  1.00  0.00    -0.217 N 
ATOM     22  C   UNL A   1      33.751  29.297  26.906  1.00  0.00     0.132 A 
ATOM     23  N   UNL A   1      35.051  29.201  27.332  1.00  0.00    -0.128 NA
ATOM     24  C   UNL A   1      33.254  30.548  27.237  1.00  0.00     0.071 A 
ATOM     25  N   UNL A   1      35.408  30.379  27.837  1.00  0.00    -0.061 NA
BRANCH  22  26
ATOM     26  C   UNL A   1      33.062  28.276  26.128  1.00  0.00     0.087 C 
ATOM     27  N   UNL A   1      32.439  27.356  26.810  1.00  0.00    -0.176 NA
BRANCH  26  28
ATOM     28  C   UNL A   1      33.102  28.478  24.634  1.00  0.00    -0.018 C 
ATOM     29  H   UNL A   1      33.656  29.367  24.410  1.00  0.00     0.030 H 
ATOM     30  H   UNL A   1      32.105  28.576  24.260  1.00  0.00     0.030 H 
ATOM     31  H   UNL A   1      33.577  27.638  24.172  1.00  0.00     0.030 H 
ENDBRANCH  26  28
BRANCH  27  32
ATOM     32  N   UNL A   1      31.602  26.406  26.265  1.00  0.00    -0.252 N 
ATOM     33  H   UNL A   1      30.643  26.588  26.391  1.00  0.00     0.193 HD
BRANCH  32  34
ATOM     34  C   UNL A   1      31.872  25.265  25.582  1.00  0.00     0.203 A 
ATOM     35  N   UNL A   1      32.839  24.418  25.842  1.00  0.00    -0.219 NA
ATOM     36  S   UNL A   1      30.959  24.857  24.170  1.00  0.00    -0.103 S 
ATOM     37  C   UNL A   1      33.095  23.622  24.745  1.00  0.00     0.084 A 
ATOM     38  C   UNL A   1      32.172  23.722  23.727  1.00  0.00     0.021 A 
ATOM     39  H   UNL A   1      32.203  23.197  22.839  1.00  0.00     0.076 H 
BRANCH  37  40
ATOM     40  C   UNL A   1      34.317  22.840  24.696  1.00  0.00     0.001 A 
ATOM     41  C   UNL A   1      34.309  21.517  25.156  1.00  0.00    -0.051 A 
ATOM     42  C   UNL A   1      35.531  23.423  24.303  1.00  0.00    -0.051 A 
ATOM     43  C   UNL A   1      35.489  20.772  25.191  1.00  0.00    -0.043 A 
ATOM     44  H   UNL A   1      33.424  21.091  25.473  1.00  0.00     0.063 H 
ATOM     45  C   UNL A   1      36.716  22.680  24.350  1.00  0.00    -0.043 A 
ATOM     46  H   UNL A   1      35.551  24.402  23.979  1.00  0.00     0.063 H 
ATOM     47  C   UNL A   1      36.688  21.356  24.786  1.00  0.00     0.041 A 
ATOM     48  H   UNL A   1      35.475  19.792  25.516  1.00  0.00     0.064 H 
ATOM     49  H   UNL A   1      37.609  23.111  24.062  1.00  0.00     0.064 H 
ATOM     50  Cl  UNL A   1      38.145  20.443  24.837  1.00  0.00    -0.084 Cl
ENDBRANCH  37  40
ENDBRANCH  32  34
ENDBRANCH  27  32
ENDBRANCH  22  26
BRANCH  24  51
ATOM     51  C   UNL A   1      31.975  31.229  26.902  1.00  0.00    -0.020 C 
ATOM     52  H   UNL A   1      31.628  30.889  25.949  1.00  0.00     0.030 H 
ATOM     53  H   UNL A   1      32.133  32.287  26.867  1.00  0.00     0.030 H 
ATOM     54  H   UNL A   1      31.244  31.001  27.650  1.00  0.00     0.030 H 
ENDBRANCH  24  51
ENDBRANCH  12  21
ENDBRANCH   8  11
ENDBRANCH   4   7
ENDBRANCH   1   4
BRANCH   1  55
ATOM     55  C   UNL A   1      35.205  34.533  34.431  1.00  0.00    -0.052 C 
ATOM     56  H   UNL A   1      34.463  34.200  35.126  1.00  0.00     0.027 H 
ATOM     57  H   UNL A   1      36.074  34.956  34.893  1.00  0.00     0.027 H 
BRANCH  55  58
ATOM     58  C   UNL A   1      35.704  33.308  33.646  1.00  0.00    -0.052 C 
ATOM     59  H   UNL A   1      35.615  33.532  32.604  1.00  0.00     0.027 H 
ATOM     60  H   UNL A   1      35.097  32.492  33.979  1.00  0.00     0.027 H 
BRANCH  58  61
ATOM     61  C   UNL A   1      37.153  32.868  33.907  1.00  0.00    -0.036 C 
ATOM     62  H   UNL A   1      37.238  31.828  33.671  1.00  0.00     0.028 H 
ATOM     63  H   UNL A   1      37.361  33.070  34.937  1.00  0.00     0.028 H 
BRANCH  61  64
ATOM     64  C   UNL A   1      38.179  33.632  33.089  1.00  0.00     0.018 C 
ATOM     65  H   UNL A   1      39.114  33.111  33.137  1.00  0.00     0.049 H 
ATOM     66  H   UNL A   1      38.255  34.617  33.499  1.00  0.00     0.049 H 
BRANCH  64  67
ATOM     67  N   UNL A   1      37.790  33.767  31.678  1.00  0.00    -0.352 N 
ATOM     68  C   UNL A   1      38.353  33.173  30.567  1.00  0.00     0.251 C 
ATOM     69  H   UNL A   1      37.025  34.360  31.503  1.00  0.00     0.163 HD
ATOM     70  O   UNL A   1      38.189  33.649  29.440  1.00  0.00    -0.269 OA
BRANCH  68  71
ATOM     71  C   UNL A   1      39.141  31.947  30.741  1.00  0.00     0.039 A 
ATOM     72  C   UNL A   1      38.586  30.665  30.670  1.00  0.00    -0.049 A 
ATOM     73  C   UNL A   1      40.503  32.116  30.951  1.00  0.00    -0.049 A 
ATOM     74  C   UNL A   1      39.440  29.567  30.757  1.00  0.00    -0.053 A 
ATOM     75  H   UNL A   1      37.569  30.536  30.555  1.00  0.00     0.063 H 
ATOM     76  C   UNL A   1      41.349  31.067  30.760  1.00  0.00    -0.053 A 
ATOM     77  H   UNL A   1      40.873  33.033  31.248  1.00  0.00     0.063 H 
ATOM     78  C   UNL A   1      40.826  29.787  30.795  1.00  0.00    -0.014 A 
ATOM     79  H   UNL A   1      39.059  28.609  30.794  1.00  0.00     0.063 H 
ATOM     80  H   UNL A   1      42.355  31.223  30.593  1.00  0.00     0.063 H 
BRANCH  78  81
ATOM     81  C   UNL A   1      41.794  28.703  30.792  1.00  0.00     0.031 A 
ATOM     82  C   UNL A   1      42.200  28.262  32.147  1.00  0.00     0.074 A 
ATOM     83  C   UNL A   1      42.087  28.005  29.669  1.00  0.00     0.049 A 
ATOM     84  N   UNL A   1      43.357  28.397  32.701  1.00  0.00    -0.248 NA
ATOM     85  C   UNL A   1      41.157  27.757  33.057  1.00  0.00    -0.034 C 
ATOM     86  C   UNL A   1      41.498  28.136  28.328  1.00  0.00    -0.036 A 
ATOM     87  N   UNL A   1      42.916  26.939  29.517  1.00  0.00    -0.354 N 
ATOM     88  C   UNL A   1      43.251  27.792  33.948  1.00  0.00     0.074 A 
ATOM     89  C   UNL A   1      41.844  27.616  34.192  1.00  0.00    -0.034 C 
ATOM     90  H   UNL A   1      40.161  27.563  32.867  1.00  0.00     0.065 H 
ATOM     91  C   UNL A   1      41.810  27.052  27.581  1.00  0.00    -0.036 A 
ATOM     92  H   UNL A   1      40.931  28.935  28.004  1.00  0.00     0.065 H 
ATOM     93  C   UNL A   1      42.759  26.245  28.320  1.00  0.00     0.049 A 
ATOM     94  H   UNL A   1      43.576  26.678  30.199  1.00  0.00     0.167 HD
ATOM     95  C   UNL A   1      44.344  27.233  34.535  1.00  0.00     0.037 A 
ATOM     96  H   UNL A   1      41.426  27.410  35.113  1.00  0.00     0.065 H 
ATOM     97  H   UNL A   1      41.437  26.839  26.644  1.00  0.00     0.065 H 
ATOM     98  C   UNL A   1      43.356  25.072  27.985  1.00  0.00     0.037 A 
ATOM     99  C   UNL A   1      45.558  27.701  33.908  1.00  0.00     0.049 A 
ATOM    100  C   UNL A   1      44.529  24.913  28.883  1.00  0.00     0.074 A 
ATOM    101  C   UNL A   1      46.136  28.943  33.718  1.00  0.00    -0.036 A 
ATOM    102  N   UNL A   1      46.170  26.867  33.003  1.00  0.00    -0.354 N 
ATOM    103  N   UNL A   1      45.578  25.688  28.842  1.00  0.00    -0.248 NA
ATOM    104  C   UNL A   1      44.316  24.212  30.140  1.00  0.00    -0.034 C 
ATOM    105  C   UNL A   1      46.686  28.896  32.402  1.00  0.00    -0.036 A 
ATOM    106  H   UNL A   1      46.164  29.731  34.385  1.00  0.00     0.065 H 
ATOM    107  C   UNL A   1      46.489  27.611  31.897  1.00  0.00     0.049 A 
ATOM    108  H   UNL A   1      46.348  25.907  33.127  1.00  0.00     0.167 HD
ATOM    109  C   UNL A   1      45.896  25.916  30.173  1.00  0.00     0.074 A 
ATOM    110  C   UNL A   1      45.131  24.922  30.923  1.00  0.00    -0.034 C 
ATOM    111  H   UNL A   1      43.713  23.403  30.360  1.00  0.00     0.065 H 
ATOM    112  H   UNL A   1      47.148  29.677  31.910  1.00  0.00     0.065 H 
ATOM    113  C   UNL A   1      46.508  27.076  30.556  1.00  0.00     0.037 A 
ATOM    114  H   UNL A   1      45.212  24.785  31.943  1.00  0.00     0.065 H 
BRANCH  95 115
ATOM    115  C   UNL A   1      44.312  25.970  35.364  1.00  0.00     0.064 A 
ATOM    116  C   UNL A   1      44.969  25.965  36.611  1.00  0.00     0.173 A 
ATOM    117  C   UNL A   1      43.950  24.699  34.864  1.00  0.00     0.173 A 
ATOM    118  F   UNL A   1      45.369  27.114  37.176  1.00  0.00    -0.203 F 
ATOM    119  C   UNL A   1      45.323  24.777  37.254  1.00  0.00     0.198 A 
ATOM    120  C   UNL A   1      44.256  23.518  35.537  1.00  0.00     0.198 A 
ATOM    121  F   UNL A   1      43.393  24.530  33.661  1.00  0.00    -0.203 F 
ATOM    122  F   UNL A   1      46.070  24.821  38.366  1.00  0.00    -0.200 F 
ATOM    123  C   UNL A   1      44.974  23.553  36.712  1.00  0.00     0.200 A 
ATOM    124  F   UNL A   1      43.923  22.342  34.985  1.00  0.00    -0.200 F 
ATOM    125  F   UNL A   1      45.372  22.413  37.290  1.00  0.00    -0.200 F 
ENDBRANCH  95 115
BRANCH  98 126
ATOM    126  C   UNL A   1      42.809  23.941  27.196  1.00  0.00     0.064 A 
ATOM    127  C   UNL A   1      43.574  23.317  26.197  1.00  0.00     0.173 A 
ATOM    128  C   UNL A   1      41.646  23.259  27.608  1.00  0.00     0.173 A 
ATOM    129  F   UNL A   1      44.721  23.875  25.779  1.00  0.00    -0.203 F 
ATOM    130  C   UNL A   1      43.219  22.070  25.667  1.00  0.00     0.198 A 
ATOM    131  C   UNL A   1      41.290  22.018  27.075  1.00  0.00     0.198 A 
ATOM    132  F   UNL A   1      40.888  23.735  28.607  1.00  0.00    -0.203 F 
ATOM    133  F   UNL A   1      44.012  21.475  24.764  1.00  0.00    -0.200 F 
ATOM    134  C   UNL A   1      42.083  21.416  26.116  1.00  0.00     0.200 A 
ATOM    135  F   UNL A   1      40.211  21.378  27.549  1.00  0.00    -0.200 F 
ATOM    136  F   UNL A   1      41.779  20.194  25.661  1.00  0.00    -0.200 F 
ENDBRANCH  98 126
BRANCH 113 137
ATOM    137  C   UNL A   1      47.062  27.966  29.476  1.00  0.00     0.064 A 
ATOM    138  C   UNL A   1      46.353  29.021  28.874  1.00  0.00     0.173 A 
ATOM    139  C   UNL A   1      48.415  27.828  29.139  1.00  0.00     0.173 A 
ATOM    140  F   UNL A   1      45.085  29.283  29.210  1.00  0.00    -0.203 F 
ATOM    141  C   UNL A   1      46.963  29.867  27.948  1.00  0.00     0.198 A 
ATOM    142  C   UNL A   1      49.030  28.696  28.242  1.00  0.00     0.198 A 
ATOM    143  F   UNL A   1      49.156  26.873  29.723  1.00  0.00    -0.203 F 
ATOM    144  F   UNL A   1      46.260  30.859  27.378  1.00  0.00    -0.200 F 
ATOM    145  C   UNL A   1      48.302  29.708  27.639  1.00  0.00     0.200 A 
ATOM    146  F   UNL A   1      50.339  28.567  27.985  1.00  0.00    -0.200 F 
ATOM    147  F   UNL A   1      48.900  30.545  26.778  1.00  0.00    -0.200 F 
ENDBRANCH 113 137
ENDBRANCH  78  81
ENDBRANCH  68  71
ENDBRANCH  64  67
ENDBRANCH  61  64
ENDBRANCH  58  61
ENDBRANCH  55  58
ENDBRANCH   1  55
TORSDOF 20
ENDMDL
MODEL 5
REMARK VINA RESULT:     -11.6      5.504     12.087
REMARK SMILES C/C(=N\Nc1nc(-c2ccc(Cl)cc2)cs1)c1nnn(-c2ccc(C(=O)NCCCCCCNC(=O)c3ccc(-c4c5nc(c(-c6c(F)c(F)c(F)c(F)c6F)c6ccc([nH]6)c(-c6c(F)c(F)c(F)c(F)c6F)c6nc(c(-c7c(F)c(F)c(F)c(F)c7F)c7ccc4[nH]7)C=C6)C=C5)cc3)cc2)c1C
REMARK SMILES IDX 29 1 28 4 27 7 25 8 26 9 24 11 21 12 22 13 101 14 23 15
REMARK SMILES IDX 100 17 20 21 17 22 18 23 102 24 19 25 2 26 3 27 1 28 4 32
REMARK SMILES IDX 5 34 6 35 16 36 7 37 15 38 8 40 9 41 14 42 10 43 13 45 11 47
REMARK SMILES IDX 12 50 103 51 30 55 31 58 32 61 33 64 34 67 35 68 36 70 37 71
REMARK SMILES IDX 38 72 99 73 39 74 98 76 40 78 41 81 42 82 92 83 43 84 97 85
REMARK SMILES IDX 91 86 93 87 44 88 96 89 90 91 89 93 45 95 77 98 57 99 76 100
REMARK SMILES IDX 58 101 61 102 75 103 94 104 59 105 60 107 74 109 95 110
REMARK SMILES IDX 62 113 46 115 47 116 55 117 48 118 49 119 53 120 56 121
REMARK SMILES IDX 50 122 51 123 54 124 52 125 78 126 79 127 87 128 80 129
REMARK SMILES IDX 81 130 85 131 88 132 82 133 83 134 86 135 84 136 63 137
REMARK SMILES IDX 64 138 72 139 65 140 66 141 70 142 73 143 67 144 68 145
REMARK SMILES IDX 71 146 69 147
REMARK H PARENT 29 2 29 3 28 5 28 6 27 10 22 16 101 18 23 19 100 20 1 29 1 30
REMARK H PARENT 1 31 4 33 15 39 9 44 14 46 10 48 13 49 103 52 103 53 103 54
REMARK H PARENT 30 56 30 57 31 59 31 60 32 62 32 63 33 65 33 66 34 69 38 75
REMARK H PARENT 99 77 39 79 98 80 97 90 91 92 93 94 96 96 90 97 58 106 61 108
REMARK H PARENT 94 111 59 112 95 114
REMARK Flexibility Score: inf
ROOT
ATOM      1  C   UNL A   1      36.505  33.492  34.645  1.00  0.00    -0.036 C 
ATOM      2  H   UNL A   1      35.445  33.484  34.795  1.00  0.00     0.028 H 
ATOM      3  H   UNL A   1      36.874  32.548  34.302  1.00  0.00     0.028 H 
ENDROOT
BRANCH   1   4
ATOM      4  C   UNL A   1      37.181  33.779  35.988  1.00  0.00     0.018 C 
ATOM      5  H   UNL A   1      37.820  34.631  35.885  1.00  0.00     0.049 H 
ATOM      6  H   UNL A   1      36.426  33.971  36.722  1.00  0.00     0.049 H 
BRANCH   4   7
ATOM      7  N   UNL A   1      37.970  32.637  36.413  1.00  0.00    -0.352 N 
ATOM      8  C   UNL A   1      39.032  31.970  35.854  1.00  0.00     0.251 C 
ATOM      9  O   UNL A   1      39.516  31.030  36.485  1.00  0.00    -0.269 OA
ATOM     10  H   UNL A   1      37.686  32.264  37.279  1.00  0.00     0.163 HD
BRANCH   8  11
ATOM     11  C   UNL A   1      39.669  32.385  34.573  1.00  0.00     0.039 A 
ATOM     12  C   UNL A   1      40.610  33.495  32.198  1.00  0.00     0.067 A 
ATOM     13  C   UNL A   1      40.972  34.091  33.404  1.00  0.00    -0.036 A 
ATOM     14  C   UNL A   1      39.908  32.287  32.171  1.00  0.00    -0.036 A 
ATOM     15  C   UNL A   1      40.474  33.541  34.590  1.00  0.00    -0.047 A 
ATOM     16  H   UNL A   1      41.591  34.916  33.422  1.00  0.00     0.065 H 
ATOM     17  C   UNL A   1      39.486  31.710  33.366  1.00  0.00    -0.047 A 
ATOM     18  H   UNL A   1      39.702  31.826  31.271  1.00  0.00     0.065 H 
ATOM     19  H   UNL A   1      40.700  33.990  35.492  1.00  0.00     0.063 H 
ATOM     20  H   UNL A   1      39.038  30.780  33.358  1.00  0.00     0.063 H 
BRANCH  12  21
ATOM     21  N   UNL A   1      40.787  34.192  30.991  1.00  0.00    -0.217 N 
ATOM     22  C   UNL A   1      41.616  35.323  29.330  1.00  0.00     0.132 A 
ATOM     23  N   UNL A   1      40.291  35.074  29.080  1.00  0.00    -0.128 NA
ATOM     24  C   UNL A   1      41.964  34.758  30.546  1.00  0.00     0.071 A 
ATOM     25  N   UNL A   1      39.825  34.300  30.056  1.00  0.00    -0.061 NA
BRANCH  22  26
ATOM     26  C   UNL A   1      42.523  35.976  28.394  1.00  0.00     0.087 C 
ATOM     27  N   UNL A   1      42.522  37.280  28.409  1.00  0.00    -0.176 NA
BRANCH  26  28
ATOM     28  C   UNL A   1      43.394  35.041  27.594  1.00  0.00    -0.018 C 
ATOM     29  H   UNL A   1      42.779  34.426  26.970  1.00  0.00     0.030 H 
ATOM     30  H   UNL A   1      43.959  34.421  28.260  1.00  0.00     0.030 H 
ATOM     31  H   UNL A   1      44.063  35.611  26.983  1.00  0.00     0.030 H 
ENDBRANCH  26  28
BRANCH  27  32
ATOM     32  N   UNL A   1      43.416  38.072  27.721  1.00  0.00    -0.252 N 
ATOM     33  H   UNL A   1      43.821  37.640  26.935  1.00  0.00     0.193 HD
BRANCH  32  34
ATOM     34  C   UNL A   1      43.834  39.344  27.941  1.00  0.00     0.203 A 
ATOM     35  N   UNL A   1      43.891  39.950  29.103  1.00  0.00    -0.219 NA
ATOM     36  S   UNL A   1      44.266  40.362  26.610  1.00  0.00    -0.103 S 
ATOM     37  C   UNL A   1      43.946  41.318  28.935  1.00  0.00     0.084 A 
ATOM     38  C   UNL A   1      44.150  41.736  27.637  1.00  0.00     0.021 A 
ATOM     39  H   UNL A   1      44.223  42.719  27.331  1.00  0.00     0.076 H 
BRANCH  37  40
ATOM     40  C   UNL A   1      43.698  42.191  30.068  1.00  0.00     0.001 A 
ATOM     41  C   UNL A   1      42.617  41.927  30.919  1.00  0.00    -0.051 A 
ATOM     42  C   UNL A   1      44.452  43.358  30.258  1.00  0.00    -0.051 A 
ATOM     43  C   UNL A   1      42.312  42.797  31.968  1.00  0.00    -0.043 A 
ATOM     44  H   UNL A   1      42.041  41.084  30.768  1.00  0.00     0.063 H 
ATOM     45  C   UNL A   1      44.139  44.236  31.301  1.00  0.00    -0.043 A 
ATOM     46  H   UNL A   1      45.240  43.571  29.626  1.00  0.00     0.063 H 
ATOM     47  C   UNL A   1      43.076  43.947  32.157  1.00  0.00     0.041 A 
ATOM     48  H   UNL A   1      41.524  42.589  32.602  1.00  0.00     0.064 H 
ATOM     49  H   UNL A   1      44.694  45.095  31.439  1.00  0.00     0.064 H 
ATOM     50  Cl  UNL A   1      42.698  45.025  33.442  1.00  0.00    -0.084 Cl
ENDBRANCH  37  40
ENDBRANCH  32  34
ENDBRANCH  27  32
ENDBRANCH  22  26
BRANCH  24  51
ATOM     51  C   UNL A   1      43.275  34.605  31.233  1.00  0.00    -0.020 C 
ATOM     52  H   UNL A   1      43.116  34.502  32.286  1.00  0.00     0.030 H 
ATOM     53  H   UNL A   1      43.878  35.469  31.046  1.00  0.00     0.030 H 
ATOM     54  H   UNL A   1      43.773  33.734  30.860  1.00  0.00     0.030 H 
ENDBRANCH  24  51
ENDBRANCH  12  21
ENDBRANCH   8  11
ENDBRANCH   4   7
ENDBRANCH   1   4
BRANCH   1  55
ATOM     55  C   UNL A   1      36.833  34.526  33.559  1.00  0.00    -0.052 C 
ATOM     56  H   UNL A   1      37.836  34.864  33.719  1.00  0.00     0.027 H 
ATOM     57  H   UNL A   1      36.096  35.295  33.657  1.00  0.00     0.027 H 
BRANCH  55  58
ATOM     58  C   UNL A   1      36.728  34.028  32.108  1.00  0.00    -0.052 C 
ATOM     59  H   UNL A   1      37.123  33.033  32.076  1.00  0.00     0.027 H 
ATOM     60  H   UNL A   1      37.270  34.741  31.523  1.00  0.00     0.027 H 
BRANCH  58  61
ATOM     61  C   UNL A   1      35.319  33.989  31.496  1.00  0.00    -0.036 C 
ATOM     62  H   UNL A   1      35.349  34.484  30.547  1.00  0.00     0.028 H 
ATOM     63  H   UNL A   1      34.664  34.475  32.187  1.00  0.00     0.028 H 
BRANCH  61  64
ATOM     64  C   UNL A   1      34.782  32.584  31.287  1.00  0.00     0.018 C 
ATOM     65  H   UNL A   1      33.918  32.451  31.905  1.00  0.00     0.049 H 
ATOM     66  H   UNL A   1      35.561  31.896  31.546  1.00  0.00     0.049 H 
BRANCH  64  67
ATOM     67  N   UNL A   1      34.405  32.324  29.891  1.00  0.00    -0.352 N 
ATOM     68  C   UNL A   1      35.174  31.800  28.873  1.00  0.00     0.251 C 
ATOM     69  H   UNL A   1      33.480  32.556  29.650  1.00  0.00     0.163 HD
ATOM     70  O   UNL A   1      34.875  31.984  27.690  1.00  0.00    -0.269 OA
BRANCH  68  71
ATOM     71  C   UNL A   1      36.356  30.998  29.217  1.00  0.00     0.039 A 
ATOM     72  C   UNL A   1      36.288  29.640  29.542  1.00  0.00    -0.049 A 
ATOM     73  C   UNL A   1      37.578  31.654  29.171  1.00  0.00    -0.049 A 
ATOM     74  C   UNL A   1      37.479  28.952  29.762  1.00  0.00    -0.053 A 
ATOM     75  H   UNL A   1      35.378  29.159  29.617  1.00  0.00     0.063 H 
ATOM     76  C   UNL A   1      38.728  30.929  29.114  1.00  0.00    -0.053 A 
ATOM     77  H   UNL A   1      37.615  32.685  29.179  1.00  0.00     0.063 H 
ATOM     78  C   UNL A   1      38.697  29.612  29.536  1.00  0.00    -0.014 A 
ATOM     79  H   UNL A   1      37.466  27.972  30.086  1.00  0.00     0.063 H 
ATOM     80  H   UNL A   1      39.602  31.351  28.764  1.00  0.00     0.063 H 
BRANCH  78  81
ATOM     81  C   UNL A   1      39.985  28.948  29.649  1.00  0.00     0.031 A 
ATOM     82  C   UNL A   1      40.441  28.765  31.046  1.00  0.00     0.074 A 
ATOM     83  C   UNL A   1      40.571  28.335  28.594  1.00  0.00     0.049 A 
ATOM     84  N   UNL A   1      41.440  29.338  31.626  1.00  0.00    -0.248 NA
ATOM     85  C   UNL A   1      39.594  27.977  31.958  1.00  0.00    -0.034 C 
ATOM     86  C   UNL A   1      40.053  28.164  27.228  1.00  0.00    -0.036 A 
ATOM     87  N   UNL A   1      41.731  27.629  28.551  1.00  0.00    -0.354 N 
ATOM     88  C   UNL A   1      41.483  28.812  32.912  1.00  0.00     0.074 A 
ATOM     89  C   UNL A   1      40.218  28.160  33.123  1.00  0.00    -0.034 C 
ATOM     90  H   UNL A   1      38.744  27.428  31.751  1.00  0.00     0.065 H 
ATOM     91  C   UNL A   1      40.772  27.221  26.578  1.00  0.00    -0.036 A 
ATOM     92  H   UNL A   1      39.260  28.686  26.824  1.00  0.00     0.065 H 
ATOM     93  C   UNL A   1      41.900  26.852  27.408  1.00  0.00     0.049 A 
ATOM     94  H   UNL A   1      42.400  27.663  29.273  1.00  0.00     0.167 HD
ATOM     95  C   UNL A   1      42.667  28.717  33.576  1.00  0.00     0.037 A 
ATOM     96  H   UNL A   1      39.848  27.874  34.043  1.00  0.00     0.065 H 
ATOM     97  H   UNL A   1      40.554  26.832  25.648  1.00  0.00     0.065 H 
ATOM     98  C   UNL A   1      42.893  25.953  27.185  1.00  0.00     0.037 A 
ATOM     99  C   UNL A   1      43.671  29.550  32.955  1.00  0.00     0.049 A 
ATOM    100  C   UNL A   1      43.991  26.279  28.130  1.00  0.00     0.074 A 
ATOM    101  C   UNL A   1      43.782  30.902  32.688  1.00  0.00    -0.036 A 
ATOM    102  N   UNL A   1      44.590  28.937  32.138  1.00  0.00    -0.354 N 
ATOM    103  N   UNL A   1      44.698  27.374  28.064  1.00  0.00    -0.248 NA
ATOM    104  C   UNL A   1      43.968  25.626  29.430  1.00  0.00    -0.034 C 
ATOM    105  C   UNL A   1      44.388  30.976  31.399  1.00  0.00    -0.036 A 
ATOM    106  H   UNL A   1      43.489  31.687  33.292  1.00  0.00     0.065 H 
ATOM    107  C   UNL A   1      44.689  29.677  30.988  1.00  0.00     0.049 A 
ATOM    108  H   UNL A   1      45.090  28.113  32.342  1.00  0.00     0.167 HD
ATOM    109  C   UNL A   1      44.837  27.781  29.382  1.00  0.00     0.074 A 
ATOM    110  C   UNL A   1      44.432  26.627  30.182  1.00  0.00    -0.034 C 
ATOM    111  H   UNL A   1      43.679  24.670  29.692  1.00  0.00     0.065 H 
ATOM    112  H   UNL A   1      44.571  31.839  30.863  1.00  0.00     0.065 H 
ATOM    113  C   UNL A   1      44.975  29.104  29.694  1.00  0.00     0.037 A 
ATOM    114  H   UNL A   1      44.496  26.590  31.212  1.00  0.00     0.065 H 
BRANCH  95 115
ATOM    115  C   UNL A   1      43.036  27.580  34.499  1.00  0.00     0.064 A 
ATOM    116  C   UNL A   1      43.295  26.312  33.939  1.00  0.00     0.173 A 
ATOM    117  C   UNL A   1      42.839  27.595  35.898  1.00  0.00     0.173 A 
ATOM    118  F   UNL A   1      43.487  26.177  32.618  1.00  0.00    -0.203 F 
ATOM    119  C   UNL A   1      43.260  25.145  34.705  1.00  0.00     0.198 A 
ATOM    120  C   UNL A   1      42.860  26.433  36.667  1.00  0.00     0.198 A 
ATOM    121  F   UNL A   1      42.505  28.703  36.567  1.00  0.00    -0.203 F 
ATOM    122  F   UNL A   1      43.373  23.953  34.103  1.00  0.00    -0.200 F 
ATOM    123  C   UNL A   1      43.033  25.205  36.067  1.00  0.00     0.200 A 
ATOM    124  F   UNL A   1      42.620  26.513  37.984  1.00  0.00    -0.200 F 
ATOM    125  F   UNL A   1      42.929  24.084  36.792  1.00  0.00    -0.200 F 
ENDBRANCH  95 115
BRANCH  98 126
ATOM    126  C   UNL A   1      42.829  24.655  26.468  1.00  0.00     0.064 A 
ATOM    127  C   UNL A   1      43.594  24.428  25.312  1.00  0.00     0.173 A 
ATOM    128  C   UNL A   1      42.253  23.518  27.068  1.00  0.00     0.173 A 
ATOM    129  F   UNL A   1      44.216  25.449  24.703  1.00  0.00    -0.203 F 
ATOM    130  C   UNL A   1      43.799  23.138  24.806  1.00  0.00     0.198 A 
ATOM    131  C   UNL A   1      42.454  22.233  26.560  1.00  0.00     0.198 A 
ATOM    132  F   UNL A   1      41.567  23.621  28.216  1.00  0.00    -0.203 F 
ATOM    133  F   UNL A   1      44.593  22.955  23.740  1.00  0.00    -0.200 F 
ATOM    134  C   UNL A   1      43.240  22.040  25.439  1.00  0.00     0.200 A 
ATOM    135  F   UNL A   1      41.941  21.176  27.207  1.00  0.00    -0.200 F 
ATOM    136  F   UNL A   1      43.492  20.801  24.998  1.00  0.00    -0.200 F 
ENDBRANCH  98 126
BRANCH 113 137
ATOM    137  C   UNL A   1      45.239  30.066  28.568  1.00  0.00     0.064 A 
ATOM    138  C   UNL A   1      44.240  30.644  27.764  1.00  0.00     0.173 A 
ATOM    139  C   UNL A   1      46.550  30.525  28.388  1.00  0.00     0.173 A 
ATOM    140  F   UNL A   1      42.950  30.333  27.935  1.00  0.00    -0.203 F 
ATOM    141  C   UNL A   1      44.550  31.603  26.800  1.00  0.00     0.198 A 
ATOM    142  C   UNL A   1      46.852  31.508  27.451  1.00  0.00     0.198 A 
ATOM    143  F   UNL A   1      47.538  30.049  29.163  1.00  0.00    -0.203 F 
ATOM    144  F   UNL A   1      43.579  32.130  26.038  1.00  0.00    -0.200 F 
ATOM    145  C   UNL A   1      45.855  32.039  26.650  1.00  0.00     0.200 A 
ATOM    146  F   UNL A   1      48.109  31.962  27.345  1.00  0.00    -0.200 F 
ATOM    147  F   UNL A   1      46.148  32.990  25.751  1.00  0.00    -0.200 F 
ENDBRANCH 113 137
ENDBRANCH  78  81
ENDBRANCH  68  71
ENDBRANCH  64  67
ENDBRANCH  61  64
ENDBRANCH  58  61
ENDBRANCH  55  58
ENDBRANCH   1  55
TORSDOF 20
ENDMDL
MODEL 6
REMARK VINA RESULT:     -11.5      3.002      7.082
REMARK SMILES C/C(=N\Nc1nc(-c2ccc(Cl)cc2)cs1)c1nnn(-c2ccc(C(=O)NCCCCCCNC(=O)c3ccc(-c4c5nc(c(-c6c(F)c(F)c(F)c(F)c6F)c6ccc([nH]6)c(-c6c(F)c(F)c(F)c(F)c6F)c6nc(c(-c7c(F)c(F)c(F)c(F)c7F)c7ccc4[nH]7)C=C6)C=C5)cc3)cc2)c1C
REMARK SMILES IDX 29 1 28 4 27 7 25 8 26 9 24 11 21 12 22 13 101 14 23 15
REMARK SMILES IDX 100 17 20 21 17 22 18 23 102 24 19 25 2 26 3 27 1 28 4 32
REMARK SMILES IDX 5 34 6 35 16 36 7 37 15 38 8 40 9 41 14 42 10 43 13 45 11 47
REMARK SMILES IDX 12 50 103 51 30 55 31 58 32 61 33 64 34 67 35 68 36 70 37 71
REMARK SMILES IDX 38 72 99 73 39 74 98 76 40 78 41 81 42 82 92 83 43 84 97 85
REMARK SMILES IDX 91 86 93 87 44 88 96 89 90 91 89 93 45 95 77 98 57 99 76 100
REMARK SMILES IDX 58 101 61 102 75 103 94 104 59 105 60 107 74 109 95 110
REMARK SMILES IDX 62 113 46 115 47 116 55 117 48 118 49 119 53 120 56 121
REMARK SMILES IDX 50 122 51 123 54 124 52 125 78 126 79 127 87 128 80 129
REMARK SMILES IDX 81 130 85 131 88 132 82 133 83 134 86 135 84 136 63 137
REMARK SMILES IDX 64 138 72 139 65 140 66 141 70 142 73 143 67 144 68 145
REMARK SMILES IDX 71 146 69 147
REMARK H PARENT 29 2 29 3 28 5 28 6 27 10 22 16 101 18 23 19 100 20 1 29 1 30
REMARK H PARENT 1 31 4 33 15 39 9 44 14 46 10 48 13 49 103 52 103 53 103 54
REMARK H PARENT 30 56 30 57 31 59 31 60 32 62 32 63 33 65 33 66 34 69 38 75
REMARK H PARENT 99 77 39 79 98 80 97 90 91 92 93 94 96 96 90 97 58 106 61 108
REMARK H PARENT 94 111 59 112 95 114
REMARK Flexibility Score: inf
ROOT
ATOM      1  C   UNL A   1      46.332  20.902  24.616  1.00  0.00    -0.036 C 
ATOM      2  H   UNL A   1      47.279  20.606  24.216  1.00  0.00     0.028 H 
ATOM      3  H   UNL A   1      46.271  20.745  25.673  1.00  0.00     0.028 H 
ENDROOT
BRANCH   1   4
ATOM      4  C   UNL A   1      45.243  20.043  23.969  1.00  0.00     0.018 C 
ATOM      5  H   UNL A   1      44.381  20.648  23.782  1.00  0.00     0.049 H 
ATOM      6  H   UNL A   1      45.618  19.643  23.050  1.00  0.00     0.049 H 
BRANCH   4   7
ATOM      7  N   UNL A   1      44.875  18.944  24.845  1.00  0.00    -0.352 N 
ATOM      8  C   UNL A   1      43.908  18.796  25.807  1.00  0.00     0.251 C 
ATOM      9  O   UNL A   1      43.826  17.706  26.375  1.00  0.00    -0.269 OA
ATOM     10  H   UNL A   1      45.434  18.142  24.724  1.00  0.00     0.163 HD
BRANCH   8  11
ATOM     11  C   UNL A   1      42.911  19.855  26.129  1.00  0.00     0.039 A 
ATOM     12  C   UNL A   1      40.776  21.601  26.515  1.00  0.00     0.067 A 
ATOM     13  C   UNL A   1      40.786  20.392  27.208  1.00  0.00    -0.036 A 
ATOM     14  C   UNL A   1      41.873  22.002  25.748  1.00  0.00    -0.036 A 
ATOM     15  C   UNL A   1      41.850  19.511  26.988  1.00  0.00    -0.047 A 
ATOM     16  H   UNL A   1      40.028  20.153  27.866  1.00  0.00     0.065 H 
ATOM     17  C   UNL A   1      42.961  21.146  25.602  1.00  0.00    -0.047 A 
ATOM     18  H   UNL A   1      41.877  22.928  25.292  1.00  0.00     0.065 H 
ATOM     19  H   UNL A   1      41.857  18.595  27.464  1.00  0.00     0.063 H 
ATOM     20  H   UNL A   1      43.806  21.468  25.104  1.00  0.00     0.063 H 
BRANCH  12  21
ATOM     21  N   UNL A   1      39.591  22.350  26.429  1.00  0.00    -0.217 N 
ATOM     22  C   UNL A   1      37.582  23.044  25.968  1.00  0.00     0.132 A 
ATOM     23  N   UNL A   1      38.211  23.986  26.740  1.00  0.00    -0.128 NA
ATOM     24  C   UNL A   1      38.442  21.977  25.761  1.00  0.00     0.071 A 
ATOM     25  N   UNL A   1      39.400  23.504  27.094  1.00  0.00    -0.061 NA
BRANCH  22  26
ATOM     26  C   UNL A   1      36.190  23.121  25.545  1.00  0.00     0.087 C 
ATOM     27  N   UNL A   1      35.900  24.066  24.693  1.00  0.00    -0.176 NA
BRANCH  26  28
ATOM     28  C   UNL A   1      35.296  22.040  26.096  1.00  0.00    -0.018 C 
ATOM     29  H   UNL A   1      34.843  22.380  27.005  1.00  0.00     0.030 H 
ATOM     30  H   UNL A   1      35.876  21.163  26.294  1.00  0.00     0.030 H 
ATOM     31  H   UNL A   1      34.532  21.810  25.383  1.00  0.00     0.030 H 
ENDBRANCH  26  28
BRANCH  27  32
ATOM     32  N   UNL A   1      34.686  24.200  24.055  1.00  0.00    -0.252 N 
ATOM     33  H   UNL A   1      34.647  23.784  23.163  1.00  0.00     0.193 HD
BRANCH  32  34
ATOM     34  C   UNL A   1      33.534  24.804  24.444  1.00  0.00     0.203 A 
ATOM     35  N   UNL A   1      33.295  26.094  24.430  1.00  0.00    -0.219 NA
ATOM     36  S   UNL A   1      32.244  23.869  25.117  1.00  0.00    -0.103 S 
ATOM     37  C   UNL A   1      32.235  26.400  25.258  1.00  0.00     0.084 A 
ATOM     38  C   UNL A   1      31.535  25.311  25.732  1.00  0.00     0.021 A 
ATOM     39  H   UNL A   1      30.714  25.354  26.356  1.00  0.00     0.076 H 
BRANCH  37  40
ATOM     40  C   UNL A   1      31.998  27.780  25.640  1.00  0.00     0.001 A 
ATOM     41  C   UNL A   1      31.561  28.697  24.675  1.00  0.00    -0.051 A 
ATOM     42  C   UNL A   1      32.309  28.236  26.930  1.00  0.00    -0.051 A 
ATOM     43  C   UNL A   1      31.402  30.046  25.001  1.00  0.00    -0.043 A 
ATOM     44  H   UNL A   1      31.357  28.373  23.717  1.00  0.00     0.063 H 
ATOM     45  C   UNL A   1      32.162  29.589  27.252  1.00  0.00    -0.043 A 
ATOM     46  H   UNL A   1      32.648  27.572  27.642  1.00  0.00     0.063 H 
ATOM     47  C   UNL A   1      31.701  30.486  26.289  1.00  0.00     0.041 A 
ATOM     48  H   UNL A   1      31.065  30.715  24.291  1.00  0.00     0.064 H 
ATOM     49  H   UNL A   1      32.392  29.923  28.201  1.00  0.00     0.064 H 
ATOM     50  Cl  UNL A   1      31.515  32.148  26.690  1.00  0.00    -0.084 Cl
ENDBRANCH  37  40
ENDBRANCH  32  34
ENDBRANCH  27  32
ENDBRANCH  22  26
BRANCH  24  51
ATOM     51  C   UNL A   1      38.241  20.647  25.126  1.00  0.00    -0.020 C 
ATOM     52  H   UNL A   1      38.866  20.566  24.261  1.00  0.00     0.030 H 
ATOM     53  H   UNL A   1      37.216  20.542  24.836  1.00  0.00     0.030 H 
ATOM     54  H   UNL A   1      38.497  19.877  25.823  1.00  0.00     0.030 H 
ENDBRANCH  24  51
ENDBRANCH  12  21
ENDBRANCH   8  11
ENDBRANCH   4   7
ENDBRANCH   1   4
BRANCH   1  55
ATOM     55  C   UNL A   1      46.152  22.407  24.373  1.00  0.00    -0.052 C 
ATOM     56  H   UNL A   1      45.269  22.541  23.782  1.00  0.00     0.027 H 
ATOM     57  H   UNL A   1      47.050  22.733  23.892  1.00  0.00     0.027 H 
BRANCH  55  58
ATOM     58  C   UNL A   1      46.014  23.276  25.635  1.00  0.00    -0.052 C 
ATOM     59  H   UNL A   1      46.979  23.339  26.092  1.00  0.00     0.027 H 
ATOM     60  H   UNL A   1      45.270  22.791  26.233  1.00  0.00     0.027 H 
BRANCH  58  61
ATOM     61  C   UNL A   1      45.499  24.708  25.429  1.00  0.00    -0.036 C 
ATOM     62  H   UNL A   1      44.839  24.712  24.587  1.00  0.00     0.028 H 
ATOM     63  H   UNL A   1      46.355  25.331  25.279  1.00  0.00     0.028 H 
BRANCH  61  64
ATOM     64  C   UNL A   1      44.749  25.265  26.628  1.00  0.00     0.018 C 
ATOM     65  H   UNL A   1      44.146  26.088  26.303  1.00  0.00     0.049 H 
ATOM     66  H   UNL A   1      45.475  25.571  27.352  1.00  0.00     0.049 H 
BRANCH  64  67
ATOM     67  N   UNL A   1      43.879  24.267  27.264  1.00  0.00    -0.352 N 
ATOM     68  C   UNL A   1      43.173  24.365  28.445  1.00  0.00     0.251 C 
ATOM     69  H   UNL A   1      43.789  23.413  26.782  1.00  0.00     0.163 HD
ATOM     70  O   UNL A   1      42.800  23.355  29.049  1.00  0.00    -0.269 OA
BRANCH  68  71
ATOM     71  C   UNL A   1      42.853  25.698  28.971  1.00  0.00     0.039 A 
ATOM     72  C   UNL A   1      43.640  26.352  29.924  1.00  0.00    -0.049 A 
ATOM     73  C   UNL A   1      41.725  26.312  28.445  1.00  0.00    -0.049 A 
ATOM     74  C   UNL A   1      43.297  27.652  30.287  1.00  0.00    -0.053 A 
ATOM     75  H   UNL A   1      44.456  25.882  30.348  1.00  0.00     0.063 H 
ATOM     76  C   UNL A   1      41.560  27.655  28.593  1.00  0.00    -0.053 A 
ATOM     77  H   UNL A   1      41.016  25.754  27.943  1.00  0.00     0.063 H 
ATOM     78  C   UNL A   1      42.253  28.295  29.604  1.00  0.00    -0.014 A 
ATOM     79  H   UNL A   1      43.802  28.135  31.047  1.00  0.00     0.063 H 
ATOM     80  H   UNL A   1      40.932  28.182  27.966  1.00  0.00     0.063 H 
BRANCH  78  81
ATOM     81  C   UNL A   1      41.887  29.680  29.849  1.00  0.00     0.031 A 
ATOM     82  C   UNL A   1      42.824  30.659  29.252  1.00  0.00     0.074 A 
ATOM     83  C   UNL A   1      40.676  30.024  30.346  1.00  0.00     0.049 A 
ATOM     84  N   UNL A   1      43.621  31.461  29.874  1.00  0.00    -0.248 NA
ATOM     85  C   UNL A   1      43.023  30.634  27.793  1.00  0.00    -0.034 C 
ATOM     86  C   UNL A   1      39.534  29.155  30.667  1.00  0.00    -0.036 A 
ATOM     87  N   UNL A   1      40.166  31.263  30.575  1.00  0.00    -0.354 N 
ATOM     88  C   UNL A   1      44.258  32.202  28.886  1.00  0.00     0.074 A 
ATOM     89  C   UNL A   1      44.018  31.511  27.647  1.00  0.00    -0.034 C 
ATOM     90  H   UNL A   1      42.525  30.086  27.074  1.00  0.00     0.065 H 
ATOM     91  C   UNL A   1      38.416  29.900  30.816  1.00  0.00    -0.036 A 
ATOM     92  H   UNL A   1      39.579  28.128  30.764  1.00  0.00     0.065 H 
ATOM     93  C   UNL A   1      38.790  31.299  30.780  1.00  0.00     0.049 A 
ATOM     94  H   UNL A   1      40.727  32.073  30.593  1.00  0.00     0.167 HD
ATOM     95  C   UNL A   1      44.682  33.469  29.143  1.00  0.00     0.037 A 
ATOM     96  H   UNL A   1      44.540  31.672  26.771  1.00  0.00     0.065 H 
ATOM     97  H   UNL A   1      37.459  29.534  30.937  1.00  0.00     0.065 H 
ATOM     98  C   UNL A   1      38.020  32.413  30.887  1.00  0.00     0.037 A 
ATOM     99  C   UNL A   1      44.731  33.714  30.566  1.00  0.00     0.049 A 
ATOM    100  C   UNL A   1      38.932  33.538  31.214  1.00  0.00     0.074 A 
ATOM    101  C   UNL A   1      45.403  33.137  31.628  1.00  0.00    -0.036 A 
ATOM    102  N   UNL A   1      43.696  34.423  31.126  1.00  0.00    -0.354 N 
ATOM    103  N   UNL A   1      39.579  33.637  32.343  1.00  0.00    -0.248 NA
ATOM    104  C   UNL A   1      39.499  34.283  30.101  1.00  0.00    -0.034 C 
ATOM    105  C   UNL A   1      44.458  33.121  32.697  1.00  0.00    -0.036 A 
ATOM    106  H   UNL A   1      46.376  32.793  31.643  1.00  0.00     0.065 H 
ATOM    107  C   UNL A   1      43.298  33.761  32.258  1.00  0.00     0.049 A 
ATOM    108  H   UNL A   1      43.309  35.259  30.776  1.00  0.00     0.167 HD
ATOM    109  C   UNL A   1      40.844  34.077  31.985  1.00  0.00     0.074 A 
ATOM    110  C   UNL A   1      40.713  34.528  30.601  1.00  0.00    -0.034 C 
ATOM    111  H   UNL A   1      39.085  34.545  29.192  1.00  0.00     0.065 H 
ATOM    112  H   UNL A   1      44.606  32.708  33.631  1.00  0.00     0.065 H 
ATOM    113  C   UNL A   1      41.936  33.751  32.738  1.00  0.00     0.037 A 
ATOM    114  H   UNL A   1      41.472  34.984  30.070  1.00  0.00     0.065 H 
BRANCH  95 115
ATOM    115  C   UNL A   1      44.642  34.600  28.141  1.00  0.00     0.064 A 
ATOM    116  C   UNL A   1      45.816  35.347  27.918  1.00  0.00     0.173 A 
ATOM    117  C   UNL A   1      43.453  35.176  27.639  1.00  0.00     0.173 A 
ATOM    118  F   UNL A   1      47.002  34.901  28.361  1.00  0.00    -0.203 F 
ATOM    119  C   UNL A   1      45.786  36.612  27.330  1.00  0.00     0.198 A 
ATOM    120  C   UNL A   1      43.435  36.415  27.002  1.00  0.00     0.198 A 
ATOM    121  F   UNL A   1      42.248  34.631  27.839  1.00  0.00    -0.203 F 
ATOM    122  F   UNL A   1      46.908  37.342  27.268  1.00  0.00    -0.200 F 
ATOM    123  C   UNL A   1      44.594  37.150  26.880  1.00  0.00     0.200 A 
ATOM    124  F   UNL A   1      42.266  36.925  26.590  1.00  0.00    -0.200 F 
ATOM    125  F   UNL A   1      44.551  38.391  26.379  1.00  0.00    -0.200 F 
ENDBRANCH  95 115
BRANCH  98 126
ATOM    126  C   UNL A   1      36.634  32.636  30.405  1.00  0.00     0.064 A 
ATOM    127  C   UNL A   1      35.759  33.495  31.089  1.00  0.00     0.173 A 
ATOM    128  C   UNL A   1      36.243  32.251  29.107  1.00  0.00     0.173 A 
ATOM    129  F   UNL A   1      36.076  33.947  32.311  1.00  0.00    -0.203 F 
ATOM    130  C   UNL A   1      34.580  33.968  30.499  1.00  0.00     0.198 A 
ATOM    131  C   UNL A   1      35.065  32.720  28.521  1.00  0.00     0.198 A 
ATOM    132  F   UNL A   1      37.045  31.493  28.344  1.00  0.00    -0.203 F 
ATOM    133  F   UNL A   1      33.804  34.841  31.158  1.00  0.00    -0.200 F 
ATOM    134  C   UNL A   1      34.241  33.590  29.210  1.00  0.00     0.200 A 
ATOM    135  F   UNL A   1      34.771  32.379  27.258  1.00  0.00    -0.200 F 
ATOM    136  F   UNL A   1      33.151  34.096  28.618  1.00  0.00    -0.200 F 
ENDBRANCH  98 126
BRANCH 113 137
ATOM    137  C   UNL A   1      41.697  33.141  34.092  1.00  0.00     0.064 A 
ATOM    138  C   UNL A   1      41.576  31.760  34.333  1.00  0.00     0.173 A 
ATOM    139  C   UNL A   1      41.732  33.985  35.210  1.00  0.00     0.173 A 
ATOM    140  F   UNL A   1      41.631  30.877  33.330  1.00  0.00    -0.203 F 
ATOM    141  C   UNL A   1      41.452  31.259  35.629  1.00  0.00     0.198 A 
ATOM    142  C   UNL A   1      41.644  33.480  36.503  1.00  0.00     0.198 A 
ATOM    143  F   UNL A   1      41.900  35.307  35.045  1.00  0.00    -0.203 F 
ATOM    144  F   UNL A   1      41.325  29.938  35.829  1.00  0.00    -0.200 F 
ATOM    145  C   UNL A   1      41.493  32.119  36.712  1.00  0.00     0.200 A 
ATOM    146  F   UNL A   1      41.735  34.312  37.550  1.00  0.00    -0.200 F 
ATOM    147  F   UNL A   1      41.414  31.635  37.960  1.00  0.00    -0.200 F 
ENDBRANCH 113 137
ENDBRANCH  78  81
ENDBRANCH  68  71
ENDBRANCH  64  67
ENDBRANCH  61  64
ENDBRANCH  58  61
ENDBRANCH  55  58
ENDBRANCH   1  55
TORSDOF 20
ENDMDL
MODEL 7
REMARK VINA RESULT:     -11.4      5.483     12.180
REMARK SMILES C/C(=N\Nc1nc(-c2ccc(Cl)cc2)cs1)c1nnn(-c2ccc(C(=O)NCCCCCCNC(=O)c3ccc(-c4c5nc(c(-c6c(F)c(F)c(F)c(F)c6F)c6ccc([nH]6)c(-c6c(F)c(F)c(F)c(F)c6F)c6nc(c(-c7c(F)c(F)c(F)c(F)c7F)c7ccc4[nH]7)C=C6)C=C5)cc3)cc2)c1C
REMARK SMILES IDX 29 1 28 4 27 7 25 8 26 9 24 11 21 12 22 13 101 14 23 15
REMARK SMILES IDX 100 17 20 21 17 22 18 23 102 24 19 25 2 26 3 27 1 28 4 32
REMARK SMILES IDX 5 34 6 35 16 36 7 37 15 38 8 40 9 41 14 42 10 43 13 45 11 47
REMARK SMILES IDX 12 50 103 51 30 55 31 58 32 61 33 64 34 67 35 68 36 70 37 71
REMARK SMILES IDX 38 72 99 73 39 74 98 76 40 78 41 81 42 82 92 83 43 84 97 85
REMARK SMILES IDX 91 86 93 87 44 88 96 89 90 91 89 93 45 95 77 98 57 99 76 100
REMARK SMILES IDX 58 101 61 102 75 103 94 104 59 105 60 107 74 109 95 110
REMARK SMILES IDX 62 113 46 115 47 116 55 117 48 118 49 119 53 120 56 121
REMARK SMILES IDX 50 122 51 123 54 124 52 125 78 126 79 127 87 128 80 129
REMARK SMILES IDX 81 130 85 131 88 132 82 133 83 134 86 135 84 136 63 137
REMARK SMILES IDX 64 138 72 139 65 140 66 141 70 142 73 143 67 144 68 145
REMARK SMILES IDX 71 146 69 147
REMARK H PARENT 29 2 29 3 28 5 28 6 27 10 22 16 101 18 23 19 100 20 1 29 1 30
REMARK H PARENT 1 31 4 33 15 39 9 44 14 46 10 48 13 49 103 52 103 53 103 54
REMARK H PARENT 30 56 30 57 31 59 31 60 32 62 32 63 33 65 33 66 34 69 38 75
REMARK H PARENT 99 77 39 79 98 80 97 90 91 92 93 94 96 96 90 97 58 106 61 108
REMARK H PARENT 94 111 59 112 95 114
REMARK Flexibility Score: inf
ROOT
ATOM      1  C   UNL A   1      38.956  31.307  34.180  1.00  0.00    -0.036 C 
ATOM      2  H   UNL A   1      38.824  30.319  34.568  1.00  0.00     0.028 H 
ATOM      3  H   UNL A   1      39.427  31.306  33.219  1.00  0.00     0.028 H 
ENDROOT
BRANCH   1   4
ATOM      4  C   UNL A   1      39.873  32.082  35.130  1.00  0.00     0.018 C 
ATOM      5  H   UNL A   1      39.805  31.658  36.110  1.00  0.00     0.049 H 
ATOM      6  H   UNL A   1      40.879  32.017  34.770  1.00  0.00     0.049 H 
BRANCH   4   7
ATOM      7  N   UNL A   1      39.483  33.479  35.185  1.00  0.00    -0.352 N 
ATOM      8  C   UNL A   1      39.720  34.552  34.362  1.00  0.00     0.251 C 
ATOM      9  O   UNL A   1      39.219  35.634  34.670  1.00  0.00    -0.269 OA
ATOM     10  H   UNL A   1      38.937  33.704  35.974  1.00  0.00     0.163 HD
BRANCH   8  11
ATOM     11  C   UNL A   1      40.476  34.444  33.083  1.00  0.00     0.039 A 
ATOM     12  C   UNL A   1      41.967  34.650  30.739  1.00  0.00     0.067 A 
ATOM     13  C   UNL A   1      42.632  34.704  31.962  1.00  0.00    -0.036 A 
ATOM     14  C   UNL A   1      40.602  34.360  30.672  1.00  0.00    -0.036 A 
ATOM     15  C   UNL A   1      41.872  34.624  33.134  1.00  0.00    -0.047 A 
ATOM     16  H   UNL A   1      43.658  34.799  32.003  1.00  0.00     0.065 H 
ATOM     17  C   UNL A   1      39.872  34.206  31.848  1.00  0.00    -0.047 A 
ATOM     18  H   UNL A   1      40.136  34.261  29.756  1.00  0.00     0.065 H 
ATOM     19  H   UNL A   1      42.342  34.699  34.051  1.00  0.00     0.063 H 
ATOM     20  H   UNL A   1      38.883  33.913  31.805  1.00  0.00     0.063 H 
BRANCH  12  21
ATOM     21  N   UNL A   1      42.620  35.067  29.567  1.00  0.00    -0.217 N 
ATOM     22  C   UNL A   1      43.736  36.197  28.082  1.00  0.00     0.132 A 
ATOM     23  N   UNL A   1      43.365  34.994  27.539  1.00  0.00    -0.128 NA
ATOM     24  C   UNL A   1      43.279  36.266  29.389  1.00  0.00     0.071 A 
ATOM     25  N   UNL A   1      42.769  34.277  28.488  1.00  0.00    -0.061 NA
BRANCH  22  26
ATOM     26  C   UNL A   1      44.578  37.179  27.413  1.00  0.00     0.087 C 
ATOM     27  N   UNL A   1      44.139  38.407  27.413  1.00  0.00    -0.176 NA
BRANCH  26  28
ATOM     28  C   UNL A   1      45.883  36.643  26.881  1.00  0.00    -0.018 C 
ATOM     29  H   UNL A   1      46.677  36.908  27.550  1.00  0.00     0.030 H 
ATOM     30  H   UNL A   1      46.075  37.062  25.916  1.00  0.00     0.030 H 
ATOM     31  H   UNL A   1      45.826  35.577  26.803  1.00  0.00     0.030 H 
ENDBRANCH  26  28
BRANCH  27  32
ATOM     32  N   UNL A   1      44.862  39.498  26.978  1.00  0.00    -0.252 N 
ATOM     33  H   UNL A   1      45.838  39.371  26.992  1.00  0.00     0.193 HD
BRANCH  32  34
ATOM     34  C   UNL A   1      44.460  40.715  26.532  1.00  0.00     0.203 A 
ATOM     35  N   UNL A   1      43.681  40.942  25.501  1.00  0.00    -0.219 NA
ATOM     36  S   UNL A   1      45.053  42.157  27.280  1.00  0.00    -0.103 S 
ATOM     37  C   UNL A   1      43.811  42.247  25.074  1.00  0.00     0.084 A 
ATOM     38  C   UNL A   1      44.527  43.067  25.919  1.00  0.00     0.021 A 
ATOM     39  H   UNL A   1      44.717  44.069  25.761  1.00  0.00     0.076 H 
BRANCH  37  40
ATOM     40  C   UNL A   1      43.293  42.632  23.773  1.00  0.00     0.001 A 
ATOM     41  C   UNL A   1      41.975  42.302  23.431  1.00  0.00    -0.051 A 
ATOM     42  C   UNL A   1      44.124  43.224  22.811  1.00  0.00    -0.051 A 
ATOM     43  C   UNL A   1      41.480  42.592  22.157  1.00  0.00    -0.043 A 
ATOM     44  H   UNL A   1      41.365  41.841  24.125  1.00  0.00     0.063 H 
ATOM     45  C   UNL A   1      43.632  43.502  21.531  1.00  0.00    -0.043 A 
ATOM     46  H   UNL A   1      45.102  43.454  23.047  1.00  0.00     0.063 H 
ATOM     47  C   UNL A   1      42.310  43.193  21.213  1.00  0.00     0.041 A 
ATOM     48  H   UNL A   1      40.503  42.362  21.915  1.00  0.00     0.064 H 
ATOM     49  H   UNL A   1      44.246  43.937  20.824  1.00  0.00     0.064 H 
ATOM     50  Cl  UNL A   1      41.707  43.542  19.641  1.00  0.00    -0.084 Cl
ENDBRANCH  37  40
ENDBRANCH  32  34
ENDBRANCH  27  32
ENDBRANCH  22  26
BRANCH  24  51
ATOM     51  C   UNL A   1      43.508  37.262  30.471  1.00  0.00    -0.020 C 
ATOM     52  H   UNL A   1      44.465  37.719  30.337  1.00  0.00     0.030 H 
ATOM     53  H   UNL A   1      43.477  36.769  31.420  1.00  0.00     0.030 H 
ATOM     54  H   UNL A   1      42.745  38.012  30.431  1.00  0.00     0.030 H 
ENDBRANCH  24  51
ENDBRANCH  12  21
ENDBRANCH   8  11
ENDBRANCH   4   7
ENDBRANCH   1   4
BRANCH   1  55
ATOM     55  C   UNL A   1      37.573  31.948  34.004  1.00  0.00    -0.052 C 
ATOM     56  H   UNL A   1      37.678  33.003  34.155  1.00  0.00     0.027 H 
ATOM     57  H   UNL A   1      36.937  31.469  34.718  1.00  0.00     0.027 H 
BRANCH  55  58
ATOM     58  C   UNL A   1      36.905  31.730  32.635  1.00  0.00    -0.052 C 
ATOM     59  H   UNL A   1      36.910  30.678  32.436  1.00  0.00     0.027 H 
ATOM     60  H   UNL A   1      37.474  32.317  31.945  1.00  0.00     0.027 H 
BRANCH  58  61
ATOM     61  C   UNL A   1      35.458  32.225  32.491  1.00  0.00    -0.036 C 
ATOM     62  H   UNL A   1      35.209  32.798  33.360  1.00  0.00     0.028 H 
ATOM     63  H   UNL A   1      34.839  31.359  32.384  1.00  0.00     0.028 H 
BRANCH  61  64
ATOM     64  C   UNL A   1      35.228  33.090  31.264  1.00  0.00     0.018 C 
ATOM     65  H   UNL A   1      36.177  33.333  30.833  1.00  0.00     0.049 H 
ATOM     66  H   UNL A   1      34.702  33.967  31.578  1.00  0.00     0.049 H 
BRANCH  64  67
ATOM     67  N   UNL A   1      34.407  32.420  30.247  1.00  0.00    -0.352 N 
ATOM     68  C   UNL A   1      34.818  31.719  29.132  1.00  0.00     0.251 C 
ATOM     69  H   UNL A   1      33.434  32.481  30.378  1.00  0.00     0.163 HD
ATOM     70  O   UNL A   1      34.056  31.539  28.177  1.00  0.00    -0.269 OA
BRANCH  68  71
ATOM     71  C   UNL A   1      36.178  31.168  29.101  1.00  0.00     0.039 A 
ATOM     72  C   UNL A   1      37.325  31.968  29.060  1.00  0.00    -0.049 A 
ATOM     73  C   UNL A   1      36.283  29.785  29.151  1.00  0.00    -0.049 A 
ATOM     74  C   UNL A   1      38.569  31.345  29.128  1.00  0.00    -0.053 A 
ATOM     75  H   UNL A   1      37.250  32.995  28.982  1.00  0.00     0.063 H 
ATOM     76  C   UNL A   1      37.470  29.212  29.490  1.00  0.00    -0.053 A 
ATOM     77  H   UNL A   1      35.466  29.194  28.933  1.00  0.00     0.063 H 
ATOM     78  C   UNL A   1      38.625  29.961  29.351  1.00  0.00    -0.014 A 
ATOM     79  H   UNL A   1      39.437  31.894  29.015  1.00  0.00     0.063 H 
ATOM     80  H   UNL A   1      37.508  28.244  29.843  1.00  0.00     0.063 H 
BRANCH  78  81
ATOM     81  C   UNL A   1      39.876  29.242  29.528  1.00  0.00     0.031 A 
ATOM     82  C   UNL A   1      40.241  29.023  30.947  1.00  0.00     0.074 A 
ATOM     83  C   UNL A   1      40.495  28.616  28.500  1.00  0.00     0.049 A 
ATOM     84  N   UNL A   1      41.228  29.547  31.591  1.00  0.00    -0.248 NA
ATOM     85  C   UNL A   1      39.310  28.261  31.797  1.00  0.00    -0.034 C 
ATOM     86  C   UNL A   1      40.052  28.484  27.104  1.00  0.00    -0.036 A 
ATOM     87  N   UNL A   1      41.626  27.862  28.515  1.00  0.00    -0.354 N 
ATOM     88  C   UNL A   1      41.174  29.005  32.870  1.00  0.00     0.074 A 
ATOM     89  C   UNL A   1      39.873  28.404  32.998  1.00  0.00    -0.034 C 
ATOM     90  H   UNL A   1      38.452  27.751  31.534  1.00  0.00     0.065 H 
ATOM     91  C   UNL A   1      40.767  27.518  26.484  1.00  0.00    -0.036 A 
ATOM     92  H   UNL A   1      39.305  29.044  26.663  1.00  0.00     0.065 H 
ATOM     93  C   UNL A   1      41.829  27.092  27.372  1.00  0.00     0.049 A 
ATOM     94  H   UNL A   1      42.253  27.859  29.274  1.00  0.00     0.167 HD
ATOM     95  C   UNL A   1      42.313  28.852  33.599  1.00  0.00     0.037 A 
ATOM     96  H   UNL A   1      39.439  28.124  33.891  1.00  0.00     0.065 H 
ATOM     97  H   UNL A   1      40.587  27.149  25.537  1.00  0.00     0.065 H 
ATOM     98  C   UNL A   1      42.794  26.154  27.194  1.00  0.00     0.037 A 
ATOM     99  C   UNL A   1      43.385  29.648  33.049  1.00  0.00     0.049 A 
ATOM    100  C   UNL A   1      43.848  26.422  28.205  1.00  0.00     0.074 A 
ATOM    101  C   UNL A   1      43.568  30.997  32.808  1.00  0.00    -0.036 A 
ATOM    102  N   UNL A   1      44.324  29.006  32.278  1.00  0.00    -0.354 N 
ATOM    103  N   UNL A   1      44.603  27.487  28.195  1.00  0.00    -0.248 NA
ATOM    104  C   UNL A   1      43.723  25.756  29.492  1.00  0.00    -0.034 C 
ATOM    105  C   UNL A   1      44.250  31.060  31.557  1.00  0.00    -0.036 A 
ATOM    106  H   UNL A   1      43.274  31.787  33.405  1.00  0.00     0.065 H 
ATOM    107  C   UNL A   1      44.520  29.754  31.146  1.00  0.00     0.049 A 
ATOM    108  H   UNL A   1      44.776  28.160  32.499  1.00  0.00     0.167 HD
ATOM    109  C   UNL A   1      44.682  27.872  29.525  1.00  0.00     0.074 A 
ATOM    110  C   UNL A   1      44.183  26.727  30.284  1.00  0.00    -0.034 C 
ATOM    111  H   UNL A   1      43.379  24.810  29.724  1.00  0.00     0.065 H 
ATOM    112  H   UNL A   1      44.500  31.921  31.045  1.00  0.00     0.065 H 
ATOM    113  C   UNL A   1      44.857  29.184  29.863  1.00  0.00     0.037 A 
ATOM    114  H   UNL A   1      44.186  26.676  31.315  1.00  0.00     0.065 H 
BRANCH  95 115
ATOM    115  C   UNL A   1      42.580  27.689  34.526  1.00  0.00     0.064 A 
ATOM    116  C   UNL A   1      43.104  26.498  33.983  1.00  0.00     0.173 A 
ATOM    117  C   UNL A   1      42.059  27.579  35.835  1.00  0.00     0.173 A 
ATOM    118  F   UNL A   1      43.614  26.482  32.742  1.00  0.00    -0.203 F 
ATOM    119  C   UNL A   1      43.020  25.279  34.658  1.00  0.00     0.198 A 
ATOM    120  C   UNL A   1      42.028  26.371  36.528  1.00  0.00     0.198 A 
ATOM    121  F   UNL A   1      41.456  28.597  36.458  1.00  0.00    -0.203 F 
ATOM    122  F   UNL A   1      43.404  24.152  34.043  1.00  0.00    -0.200 F 
ATOM    123  C   UNL A   1      42.474  25.214  35.927  1.00  0.00     0.200 A 
ATOM    124  F   UNL A   1      41.479  26.328  37.750  1.00  0.00    -0.200 F 
ATOM    125  F   UNL A   1      42.330  24.037  36.548  1.00  0.00    -0.200 F 
ENDBRANCH  95 115
BRANCH  98 126
ATOM    126  C   UNL A   1      42.718  24.869  26.456  1.00  0.00     0.064 A 
ATOM    127  C   UNL A   1      43.570  24.604  25.372  1.00  0.00     0.173 A 
ATOM    128  C   UNL A   1      42.022  23.764  26.986  1.00  0.00     0.173 A 
ATOM    129  F   UNL A   1      44.305  25.590  24.835  1.00  0.00    -0.203 F 
ATOM    130  C   UNL A   1      43.742  23.308  24.869  1.00  0.00     0.198 A 
ATOM    131  C   UNL A   1      42.191  22.473  26.481  1.00  0.00     0.198 A 
ATOM    132  F   UNL A   1      41.241  23.899  28.069  1.00  0.00    -0.203 F 
ATOM    133  F   UNL A   1      44.617  23.086  23.877  1.00  0.00    -0.200 F 
ATOM    134  C   UNL A   1      43.062  22.242  25.433  1.00  0.00     0.200 A 
ATOM    135  F   UNL A   1      41.558  21.444  27.064  1.00  0.00    -0.200 F 
ATOM    136  F   UNL A   1      43.278  20.993  25.000  1.00  0.00    -0.200 F 
ENDBRANCH  98 126
BRANCH 113 137
ATOM    137  C   UNL A   1      45.225  30.147  28.767  1.00  0.00     0.064 A 
ATOM    138  C   UNL A   1      44.306  30.727  27.874  1.00  0.00     0.173 A 
ATOM    139  C   UNL A   1      46.548  30.606  28.712  1.00  0.00     0.173 A 
ATOM    140  F   UNL A   1      43.006  30.416  27.923  1.00  0.00    -0.203 F 
ATOM    141  C   UNL A   1      44.706  31.687  26.944  1.00  0.00     0.198 A 
ATOM    142  C   UNL A   1      46.937  31.590  27.808  1.00  0.00     0.198 A 
ATOM    143  F   UNL A   1      47.458  30.128  29.575  1.00  0.00    -0.203 F 
ATOM    144  F   UNL A   1      43.811  32.215  26.095  1.00  0.00    -0.200 F 
ATOM    145  C   UNL A   1      46.020  32.122  26.917  1.00  0.00     0.200 A 
ATOM    146  F   UNL A   1      48.199  32.042  27.820  1.00  0.00    -0.200 F 
ATOM    147  F   UNL A   1      46.397  33.073  26.051  1.00  0.00    -0.200 F 
ENDBRANCH 113 137
ENDBRANCH  78  81
ENDBRANCH  68  71
ENDBRANCH  64  67
ENDBRANCH  61  64
ENDBRANCH  58  61
ENDBRANCH  55  58
ENDBRANCH   1  55
TORSDOF 20
ENDMDL
MODEL 8
REMARK VINA RESULT:     -11.3      1.572      2.403
REMARK SMILES C/C(=N\Nc1nc(-c2ccc(Cl)cc2)cs1)c1nnn(-c2ccc(C(=O)NCCCCCCNC(=O)c3ccc(-c4c5nc(c(-c6c(F)c(F)c(F)c(F)c6F)c6ccc([nH]6)c(-c6c(F)c(F)c(F)c(F)c6F)c6nc(c(-c7c(F)c(F)c(F)c(F)c7F)c7ccc4[nH]7)C=C6)C=C5)cc3)cc2)c1C
REMARK SMILES IDX 29 1 28 4 27 7 25 8 26 9 24 11 21 12 22 13 101 14 23 15
REMARK SMILES IDX 100 17 20 21 17 22 18 23 102 24 19 25 2 26 3 27 1 28 4 32
REMARK SMILES IDX 5 34 6 35 16 36 7 37 15 38 8 40 9 41 14 42 10 43 13 45 11 47
REMARK SMILES IDX 12 50 103 51 30 55 31 58 32 61 33 64 34 67 35 68 36 70 37 71
REMARK SMILES IDX 38 72 99 73 39 74 98 76 40 78 41 81 42 82 92 83 43 84 97 85
REMARK SMILES IDX 91 86 93 87 44 88 96 89 90 91 89 93 45 95 77 98 57 99 76 100
REMARK SMILES IDX 58 101 61 102 75 103 94 104 59 105 60 107 74 109 95 110
REMARK SMILES IDX 62 113 46 115 47 116 55 117 48 118 49 119 53 120 56 121
REMARK SMILES IDX 50 122 51 123 54 124 52 125 78 126 79 127 87 128 80 129
REMARK SMILES IDX 81 130 85 131 88 132 82 133 83 134 86 135 84 136 63 137
REMARK SMILES IDX 64 138 72 139 65 140 66 141 70 142 73 143 67 144 68 145
REMARK SMILES IDX 71 146 69 147
REMARK H PARENT 29 2 29 3 28 5 28 6 27 10 22 16 101 18 23 19 100 20 1 29 1 30
REMARK H PARENT 1 31 4 33 15 39 9 44 14 46 10 48 13 49 103 52 103 53 103 54
REMARK H PARENT 30 56 30 57 31 59 31 60 32 62 32 63 33 65 33 66 34 69 38 75
REMARK H PARENT 99 77 39 79 98 80 97 90 91 92 93 94 96 96 90 97 58 106 61 108
REMARK H PARENT 94 111 59 112 95 114
REMARK Flexibility Score: inf
ROOT
ATOM      1  C   UNL A   1      47.329  30.763  27.087  1.00  0.00    -0.036 C 
ATOM      2  H   UNL A   1      47.928  31.490  26.580  1.00  0.00     0.028 H 
ATOM      3  H   UNL A   1      47.232  30.974  28.132  1.00  0.00     0.028 H 
ENDROOT
BRANCH   1   4
ATOM      4  C   UNL A   1      48.015  29.400  26.964  1.00  0.00     0.018 C 
ATOM      5  H   UNL A   1      47.487  28.804  26.249  1.00  0.00     0.049 H 
ATOM      6  H   UNL A   1      49.025  29.548  26.646  1.00  0.00     0.049 H 
BRANCH   4   7
ATOM      7  N   UNL A   1      48.021  28.717  28.246  1.00  0.00    -0.352 N 
ATOM      8  C   UNL A   1      47.481  27.531  28.679  1.00  0.00     0.251 C 
ATOM      9  O   UNL A   1      47.686  27.201  29.847  1.00  0.00    -0.269 OA
ATOM     10  H   UNL A   1      48.511  29.204  28.947  1.00  0.00     0.163 HD
BRANCH   8  11
ATOM     11  C   UNL A   1      46.742  26.598  27.783  1.00  0.00     0.039 A 
ATOM     12  C   UNL A   1      45.055  24.874  26.392  1.00  0.00     0.067 A 
ATOM     13  C   UNL A   1      44.743  26.232  26.427  1.00  0.00    -0.036 A 
ATOM     14  C   UNL A   1      46.256  24.396  26.919  1.00  0.00    -0.036 A 
ATOM     15  C   UNL A   1      45.583  27.086  27.150  1.00  0.00    -0.047 A 
ATOM     16  H   UNL A   1      43.914  26.597  25.934  1.00  0.00     0.065 H 
ATOM     17  C   UNL A   1      47.122  25.273  27.567  1.00  0.00    -0.047 A 
ATOM     18  H   UNL A   1      46.502  23.397  26.829  1.00  0.00     0.065 H 
ATOM     19  H   UNL A   1      45.349  28.089  27.218  1.00  0.00     0.063 H 
ATOM     20  H   UNL A   1      48.045  24.943  27.888  1.00  0.00     0.063 H 
BRANCH  12  21
ATOM     21  N   UNL A   1      44.084  23.942  25.989  1.00  0.00    -0.217 N 
ATOM     22  C   UNL A   1      42.401  22.567  25.930  1.00  0.00     0.132 A 
ATOM     23  N   UNL A   1      43.005  22.582  24.700  1.00  0.00    -0.128 NA
ATOM     24  C   UNL A   1      43.067  23.439  26.776  1.00  0.00     0.071 A 
ATOM     25  N   UNL A   1      43.970  23.499  24.724  1.00  0.00    -0.061 NA
BRANCH  22  26
ATOM     26  C   UNL A   1      41.181  21.832  26.240  1.00  0.00     0.087 C 
ATOM     27  N   UNL A   1      40.101  22.548  26.390  1.00  0.00    -0.176 NA
BRANCH  26  28
ATOM     28  C   UNL A   1      41.330  20.332  26.264  1.00  0.00    -0.018 C 
ATOM     29  H   UNL A   1      40.701  19.899  25.513  1.00  0.00     0.030 H 
ATOM     30  H   UNL A   1      41.045  19.960  27.226  1.00  0.00     0.030 H 
ATOM     31  H   UNL A   1      42.350  20.071  26.068  1.00  0.00     0.030 H 
ENDBRANCH  26  28
BRANCH  27  32
ATOM     32  N   UNL A   1      38.831  22.031  26.524  1.00  0.00    -0.252 N 
ATOM     33  H   UNL A   1      38.729  21.385  27.260  1.00  0.00     0.193 HD
BRANCH  32  34
ATOM     34  C   UNL A   1      37.695  22.259  25.817  1.00  0.00     0.203 A 
ATOM     35  N   UNL A   1      36.927  23.319  25.907  1.00  0.00    -0.219 NA
ATOM     36  S   UNL A   1      37.082  21.054  24.738  1.00  0.00    -0.103 S 
ATOM     37  C   UNL A   1      35.675  23.057  25.392  1.00  0.00     0.084 A 
ATOM     38  C   UNL A   1      35.565  21.862  24.713  1.00  0.00     0.021 A 
ATOM     39  H   UNL A   1      34.707  21.510  24.259  1.00  0.00     0.076 H 
BRANCH  37  40
ATOM     40  C   UNL A   1      34.579  23.968  25.670  1.00  0.00     0.001 A 
ATOM     41  C   UNL A   1      33.460  23.505  26.374  1.00  0.00    -0.051 A 
ATOM     42  C   UNL A   1      34.572  25.269  25.146  1.00  0.00    -0.051 A 
ATOM     43  C   UNL A   1      32.360  24.340  26.584  1.00  0.00    -0.043 A 
ATOM     44  H   UNL A   1      33.447  22.539  26.738  1.00  0.00     0.063 H 
ATOM     45  C   UNL A   1      33.465  26.101  25.345  1.00  0.00    -0.043 A 
ATOM     46  H   UNL A   1      35.384  25.613  24.611  1.00  0.00     0.063 H 
ATOM     47  C   UNL A   1      32.368  25.636  26.071  1.00  0.00     0.041 A 
ATOM     48  H   UNL A   1      31.544  24.000  27.117  1.00  0.00     0.064 H 
ATOM     49  H   UNL A   1      33.461  27.058  24.958  1.00  0.00     0.064 H 
ATOM     50  Cl  UNL A   1      31.012  26.664  26.320  1.00  0.00    -0.084 Cl
ENDBRANCH  37  40
ENDBRANCH  32  34
ENDBRANCH  27  32
ENDBRANCH  22  26
BRANCH  24  51
ATOM     51  C   UNL A   1      42.767  23.912  28.154  1.00  0.00    -0.020 C 
ATOM     52  H   UNL A   1      41.729  24.161  28.227  1.00  0.00     0.030 H 
ATOM     53  H   UNL A   1      43.357  24.777  28.371  1.00  0.00     0.030 H 
ATOM     54  H   UNL A   1      42.997  23.136  28.855  1.00  0.00     0.030 H 
ENDBRANCH  24  51
ENDBRANCH  12  21
ENDBRANCH   8  11
ENDBRANCH   4   7
ENDBRANCH   1   4
BRANCH   1  55
ATOM     55  C   UNL A   1      45.916  30.795  26.488  1.00  0.00    -0.052 C 
ATOM     56  H   UNL A   1      45.321  30.076  27.012  1.00  0.00     0.027 H 
ATOM     57  H   UNL A   1      46.037  30.582  25.446  1.00  0.00     0.027 H 
BRANCH  55  58
ATOM     58  C   UNL A   1      45.191  32.150  26.557  1.00  0.00    -0.052 C 
ATOM     59  H   UNL A   1      44.910  32.316  27.577  1.00  0.00     0.027 H 
ATOM     60  H   UNL A   1      44.370  32.068  25.877  1.00  0.00     0.027 H 
BRANCH  58  61
ATOM     61  C   UNL A   1      45.986  33.378  26.087  1.00  0.00    -0.036 C 
ATOM     62  H   UNL A   1      46.644  33.073  25.301  1.00  0.00     0.028 H 
ATOM     63  H   UNL A   1      46.514  33.755  26.937  1.00  0.00     0.028 H 
BRANCH  61  64
ATOM     64  C   UNL A   1      45.112  34.508  25.570  1.00  0.00     0.018 C 
ATOM     65  H   UNL A   1      44.121  34.379  25.954  1.00  0.00     0.049 H 
ATOM     66  H   UNL A   1      45.129  34.470  24.500  1.00  0.00     0.049 H 
BRANCH  64  67
ATOM     67  N   UNL A   1      45.604  35.832  25.974  1.00  0.00    -0.352 N 
ATOM     68  C   UNL A   1      45.034  36.734  26.849  1.00  0.00     0.251 C 
ATOM     69  H   UNL A   1      46.455  36.113  25.566  1.00  0.00     0.163 HD
ATOM     70  O   UNL A   1      45.333  37.932  26.812  1.00  0.00    -0.269 OA
BRANCH  68  71
ATOM     71  C   UNL A   1      44.072  36.246  27.844  1.00  0.00     0.039 A 
ATOM     72  C   UNL A   1      42.730  36.641  27.867  1.00  0.00    -0.049 A 
ATOM     73  C   UNL A   1      44.553  35.326  28.765  1.00  0.00    -0.049 A 
ATOM     74  C   UNL A   1      41.881  36.046  28.797  1.00  0.00    -0.053 A 
ATOM     75  H   UNL A   1      42.379  37.355  27.210  1.00  0.00     0.063 H 
ATOM     76  C   UNL A   1      43.677  34.561  29.472  1.00  0.00    -0.053 A 
ATOM     77  H   UNL A   1      45.569  35.221  28.912  1.00  0.00     0.063 H 
ATOM     78  C   UNL A   1      42.370  34.998  29.591  1.00  0.00    -0.014 A 
ATOM     79  H   UNL A   1      40.907  36.372  28.901  1.00  0.00     0.063 H 
ATOM     80  H   UNL A   1      43.981  33.676  29.907  1.00  0.00     0.063 H 
BRANCH  78  81
ATOM     81  C   UNL A   1      41.533  34.257  30.521  1.00  0.00     0.031 A 
ATOM     82  C   UNL A   1      42.181  33.994  31.827  1.00  0.00     0.074 A 
ATOM     83  C   UNL A   1      40.212  34.064  30.299  1.00  0.00     0.049 A 
ATOM     84  N   UNL A   1      42.554  32.854  32.300  1.00  0.00    -0.248 NA
ATOM     85  C   UNL A   1      42.614  35.147  32.635  1.00  0.00    -0.034 C 
ATOM     86  C   UNL A   1      39.383  34.567  29.192  1.00  0.00    -0.036 A 
ATOM     87  N   UNL A   1      39.292  33.451  31.090  1.00  0.00    -0.354 N 
ATOM     88  C   UNL A   1      43.067  33.120  33.565  1.00  0.00     0.074 A 
ATOM     89  C   UNL A   1      43.275  34.542  33.624  1.00  0.00    -0.034 C 
ATOM     90  H   UNL A   1      42.450  36.154  32.479  1.00  0.00     0.065 H 
ATOM     91  C   UNL A   1      38.074  34.443  29.505  1.00  0.00    -0.036 A 
ATOM     92  H   UNL A   1      39.747  34.957  28.309  1.00  0.00     0.065 H 
ATOM     93  C   UNL A   1      37.967  33.696  30.741  1.00  0.00     0.049 A 
ATOM     94  H   UNL A   1      39.544  32.879  31.851  1.00  0.00     0.167 HD
ATOM     95  C   UNL A   1      43.001  32.177  34.544  1.00  0.00     0.037 A 
ATOM     96  H   UNL A   1      43.851  35.025  34.331  1.00  0.00     0.065 H 
ATOM     97  H   UNL A   1      37.285  34.816  28.955  1.00  0.00     0.065 H 
ATOM     98  C   UNL A   1      36.867  33.324  31.446  1.00  0.00     0.037 A 
ATOM     99  C   UNL A   1      42.731  30.873  33.983  1.00  0.00     0.049 A 
ATOM    100  C   UNL A   1      37.291  32.238  32.365  1.00  0.00     0.074 A 
ATOM    101  C   UNL A   1      43.370  30.060  33.066  1.00  0.00    -0.036 A 
ATOM    102  N   UNL A   1      41.443  30.401  34.060  1.00  0.00    -0.354 N 
ATOM    103  N   UNL A   1      37.673  31.058  31.960  1.00  0.00    -0.248 NA
ATOM    104  C   UNL A   1      37.756  32.627  33.688  1.00  0.00    -0.034 C 
ATOM    105  C   UNL A   1      42.321  29.482  32.291  1.00  0.00    -0.036 A 
ATOM    106  H   UNL A   1      44.386  29.905  32.965  1.00  0.00     0.065 H 
ATOM    107  C   UNL A   1      41.105  29.905  32.828  1.00  0.00     0.049 A 
ATOM    108  H   UNL A   1      40.866  30.417  34.858  1.00  0.00     0.167 HD
ATOM    109  C   UNL A   1      38.764  30.750  32.759  1.00  0.00     0.074 A 
ATOM    110  C   UNL A   1      38.722  31.719  33.852  1.00  0.00    -0.034 C 
ATOM    111  H   UNL A   1      37.435  33.383  34.314  1.00  0.00     0.065 H 
ATOM    112  H   UNL A   1      42.441  28.860  31.476  1.00  0.00     0.065 H 
ATOM    113  C   UNL A   1      39.762  29.940  32.297  1.00  0.00     0.037 A 
ATOM    114  H   UNL A   1      39.365  31.704  34.660  1.00  0.00     0.065 H 
BRANCH  95 115
ATOM    115  C   UNL A   1      42.756  32.482  36.004  1.00  0.00     0.064 A 
ATOM    116  C   UNL A   1      43.614  31.912  36.966  1.00  0.00     0.173 A 
ATOM    117  C   UNL A   1      41.558  33.034  36.511  1.00  0.00     0.173 A 
ATOM    118  F   UNL A   1      44.774  31.349  36.596  1.00  0.00    -0.203 F 
ATOM    119  C   UNL A   1      43.254  31.814  38.311  1.00  0.00     0.198 A 
ATOM    120  C   UNL A   1      41.228  32.983  37.864  1.00  0.00     0.198 A 
ATOM    121  F   UNL A   1      40.606  33.539  35.720  1.00  0.00    -0.203 F 
ATOM    122  F   UNL A   1      44.039  31.138  39.161  1.00  0.00    -0.200 F 
ATOM    123  C   UNL A   1      42.056  32.342  38.758  1.00  0.00     0.200 A 
ATOM    124  F   UNL A   1      40.054  33.486  38.272  1.00  0.00    -0.200 F 
ATOM    125  F   UNL A   1      41.677  32.188  40.033  1.00  0.00    -0.200 F 
ENDBRANCH  95 115
BRANCH  98 126
ATOM    126  C   UNL A   1      35.585  34.050  31.621  1.00  0.00     0.064 A 
ATOM    127  C   UNL A   1      35.423  34.998  32.645  1.00  0.00     0.173 A 
ATOM    128  C   UNL A   1      34.602  34.050  30.611  1.00  0.00     0.173 A 
ATOM    129  F   UNL A   1      36.337  35.097  33.622  1.00  0.00    -0.203 F 
ATOM    130  C   UNL A   1      34.363  35.913  32.641  1.00  0.00     0.198 A 
ATOM    131  C   UNL A   1      33.543  34.960  30.610  1.00  0.00     0.198 A 
ATOM    132  F   UNL A   1      34.707  33.234  29.551  1.00  0.00    -0.203 F 
ATOM    133  F   UNL A   1      34.281  36.848  33.600  1.00  0.00    -0.200 F 
ATOM    134  C   UNL A   1      33.431  35.902  31.616  1.00  0.00     0.200 A 
ATOM    135  F   UNL A   1      32.673  34.965  29.590  1.00  0.00    -0.200 F 
ATOM    136  F   UNL A   1      32.457  36.820  31.574  1.00  0.00    -0.200 F 
ENDBRANCH  98 126
BRANCH 113 137
ATOM    137  C   UNL A   1      39.518  29.187  31.018  1.00  0.00     0.064 A 
ATOM    138  C   UNL A   1      39.827  29.674  29.735  1.00  0.00     0.173 A 
ATOM    139  C   UNL A   1      39.080  27.859  31.110  1.00  0.00     0.173 A 
ATOM    140  F   UNL A   1      40.341  30.898  29.566  1.00  0.00    -0.203 F 
ATOM    141  C   UNL A   1      39.662  28.881  28.599  1.00  0.00     0.198 A 
ATOM    142  C   UNL A   1      38.951  27.058  29.979  1.00  0.00     0.198 A 
ATOM    143  F   UNL A   1      38.822  27.321  32.313  1.00  0.00    -0.203 F 
ATOM    144  F   UNL A   1      39.952  29.375  27.386  1.00  0.00    -0.200 F 
ATOM    145  C   UNL A   1      39.231  27.572  28.724  1.00  0.00     0.200 A 
ATOM    146  F   UNL A   1      38.581  25.776  30.111  1.00  0.00    -0.200 F 
ATOM    147  F   UNL A   1      39.110  26.796  27.637  1.00  0.00    -0.200 F 
ENDBRANCH 113 137
ENDBRANCH  78  81
ENDBRANCH  68  71
ENDBRANCH  64  67
ENDBRANCH  61  64
ENDBRANCH  58  61
ENDBRANCH  55  58
ENDBRANCH   1  55
TORSDOF 20
ENDMDL
MODEL 9
REMARK VINA RESULT:     -11.3      6.322     10.807
REMARK SMILES C/C(=N\Nc1nc(-c2ccc(Cl)cc2)cs1)c1nnn(-c2ccc(C(=O)NCCCCCCNC(=O)c3ccc(-c4c5nc(c(-c6c(F)c(F)c(F)c(F)c6F)c6ccc([nH]6)c(-c6c(F)c(F)c(F)c(F)c6F)c6nc(c(-c7c(F)c(F)c(F)c(F)c7F)c7ccc4[nH]7)C=C6)C=C5)cc3)cc2)c1C
REMARK SMILES IDX 29 1 28 4 27 7 25 8 26 9 24 11 21 12 22 13 101 14 23 15
REMARK SMILES IDX 100 17 20 21 17 22 18 23 102 24 19 25 2 26 3 27 1 28 4 32
REMARK SMILES IDX 5 34 6 35 16 36 7 37 15 38 8 40 9 41 14 42 10 43 13 45 11 47
REMARK SMILES IDX 12 50 103 51 30 55 31 58 32 61 33 64 34 67 35 68 36 70 37 71
REMARK SMILES IDX 38 72 99 73 39 74 98 76 40 78 41 81 42 82 92 83 43 84 97 85
REMARK SMILES IDX 91 86 93 87 44 88 96 89 90 91 89 93 45 95 77 98 57 99 76 100
REMARK SMILES IDX 58 101 61 102 75 103 94 104 59 105 60 107 74 109 95 110
REMARK SMILES IDX 62 113 46 115 47 116 55 117 48 118 49 119 53 120 56 121
REMARK SMILES IDX 50 122 51 123 54 124 52 125 78 126 79 127 87 128 80 129
REMARK SMILES IDX 81 130 85 131 88 132 82 133 83 134 86 135 84 136 63 137
REMARK SMILES IDX 64 138 72 139 65 140 66 141 70 142 73 143 67 144 68 145
REMARK SMILES IDX 71 146 69 147
REMARK H PARENT 29 2 29 3 28 5 28 6 27 10 22 16 101 18 23 19 100 20 1 29 1 30
REMARK H PARENT 1 31 4 33 15 39 9 44 14 46 10 48 13 49 103 52 103 53 103 54
REMARK H PARENT 30 56 30 57 31 59 31 60 32 62 32 63 33 65 33 66 34 69 38 75
REMARK H PARENT 99 77 39 79 98 80 97 90 91 92 93 94 96 96 90 97 58 106 61 108
REMARK H PARENT 94 111 59 112 95 114
REMARK Flexibility Score: inf
ROOT
ATOM      1  C   UNL A   1      46.243  24.908  25.561  1.00  0.00    -0.036 C 
ATOM      2  H   UNL A   1      45.846  25.724  24.994  1.00  0.00     0.028 H 
ATOM      3  H   UNL A   1      45.614  24.643  26.385  1.00  0.00     0.028 H 
ENDROOT
BRANCH   1   4
ATOM      4  C   UNL A   1      47.593  25.334  26.143  1.00  0.00     0.018 C 
ATOM      5  H   UNL A   1      47.818  24.725  26.993  1.00  0.00     0.049 H 
ATOM      6  H   UNL A   1      48.347  25.212  25.392  1.00  0.00     0.049 H 
BRANCH   4   7
ATOM      7  N   UNL A   1      47.554  26.728  26.548  1.00  0.00    -0.352 N 
ATOM      8  C   UNL A   1      47.245  27.351  27.732  1.00  0.00     0.251 C 
ATOM      9  O   UNL A   1      47.332  28.579  27.773  1.00  0.00    -0.269 OA
ATOM     10  H   UNL A   1      47.799  27.353  25.828  1.00  0.00     0.163 HD
BRANCH   8  11
ATOM     11  C   UNL A   1      46.897  26.609  28.976  1.00  0.00     0.039 A 
ATOM     12  C   UNL A   1      45.960  25.519  31.361  1.00  0.00     0.067 A 
ATOM     13  C   UNL A   1      45.162  25.424  30.222  1.00  0.00    -0.036 A 
ATOM     14  C   UNL A   1      47.261  26.023  31.290  1.00  0.00    -0.036 A 
ATOM     15  C   UNL A   1      45.631  25.996  29.035  1.00  0.00    -0.047 A 
ATOM     16  H   UNL A   1      44.250  24.943  30.254  1.00  0.00     0.065 H 
ATOM     17  C   UNL A   1      47.743  26.518  30.081  1.00  0.00    -0.047 A 
ATOM     18  H   UNL A   1      47.862  26.029  32.129  1.00  0.00     0.065 H 
ATOM     19  H   UNL A   1      45.039  25.968  28.189  1.00  0.00     0.063 H 
ATOM     20  H   UNL A   1      48.728  26.818  30.004  1.00  0.00     0.063 H 
BRANCH  12  21
ATOM     21  N   UNL A   1      45.404  25.280  32.629  1.00  0.00    -0.217 N 
ATOM     22  C   UNL A   1      45.062  24.629  34.675  1.00  0.00     0.132 A 
ATOM     23  N   UNL A   1      43.962  25.322  34.239  1.00  0.00    -0.128 NA
ATOM     24  C   UNL A   1      46.008  24.595  33.663  1.00  0.00     0.071 A 
ATOM     25  N   UNL A   1      44.226  25.796  33.024  1.00  0.00    -0.061 NA
BRANCH  22  26
ATOM     26  C   UNL A   1      45.233  24.121  36.030  1.00  0.00     0.087 C 
ATOM     27  N   UNL A   1      45.292  22.825  36.154  1.00  0.00    -0.176 NA
BRANCH  26  28
ATOM     28  C   UNL A   1      45.397  25.180  37.091  1.00  0.00    -0.018 C 
ATOM     29  H   UNL A   1      45.010  24.817  38.021  1.00  0.00     0.030 H 
ATOM     30  H   UNL A   1      44.863  26.061  36.802  1.00  0.00     0.030 H 
ATOM     31  H   UNL A   1      46.436  25.413  37.205  1.00  0.00     0.030 H 
ENDBRANCH  26  28
BRANCH  27  32
ATOM     32  N   UNL A   1      45.610  22.163  37.321  1.00  0.00    -0.252 N 
ATOM     33  H   UNL A   1      45.224  22.562  38.133  1.00  0.00     0.193 HD
BRANCH  32  34
ATOM     34  C   UNL A   1      46.362  21.055  37.542  1.00  0.00     0.203 A 
ATOM     35  N   UNL A   1      46.018  20.018  38.268  1.00  0.00    -0.219 NA
ATOM     36  S   UNL A   1      47.973  20.956  36.918  1.00  0.00    -0.103 S 
ATOM     37  C   UNL A   1      47.130  19.287  38.628  1.00  0.00     0.084 A 
ATOM     38  C   UNL A   1      48.297  19.651  37.990  1.00  0.00     0.021 A 
ATOM     39  H   UNL A   1      49.219  19.210  38.133  1.00  0.00     0.076 H 
BRANCH  37  40
ATOM     40  C   UNL A   1      47.025  18.291  39.680  1.00  0.00     0.001 A 
ATOM     41  C   UNL A   1      45.919  17.432  39.708  1.00  0.00    -0.051 A 
ATOM     42  C   UNL A   1      47.952  18.252  40.731  1.00  0.00    -0.051 A 
ATOM     43  C   UNL A   1      45.757  16.520  40.753  1.00  0.00    -0.043 A 
ATOM     44  H   UNL A   1      45.218  17.474  38.952  1.00  0.00     0.063 H 
ATOM     45  C   UNL A   1      47.783  17.348  41.785  1.00  0.00    -0.043 A 
ATOM     46  H   UNL A   1      48.761  18.893  40.729  1.00  0.00     0.063 H 
ATOM     47  C   UNL A   1      46.691  16.480  41.787  1.00  0.00     0.041 A 
ATOM     48  H   UNL A   1      44.948  15.878  40.762  1.00  0.00     0.064 H 
ATOM     49  H   UNL A   1      48.466  17.321  42.559  1.00  0.00     0.064 H 
ATOM     50  Cl  UNL A   1      46.489  15.365  43.080  1.00  0.00    -0.084 Cl
ENDBRANCH  37  40
ENDBRANCH  32  34
ENDBRANCH  27  32
ENDBRANCH  22  26
BRANCH  24  51
ATOM     51  C   UNL A   1      47.414  24.107  33.632  1.00  0.00    -0.020 C 
ATOM     52  H   UNL A   1      48.059  24.854  34.045  1.00  0.00     0.030 H 
ATOM     53  H   UNL A   1      47.700  23.908  32.621  1.00  0.00     0.030 H 
ATOM     54  H   UNL A   1      47.492  23.210  34.211  1.00  0.00     0.030 H 
ENDBRANCH  24  51
ENDBRANCH  12  21
ENDBRANCH   8  11
ENDBRANCH   4   7
ENDBRANCH   1   4
BRANCH   1  55
ATOM     55  C   UNL A   1      46.329  23.678  24.646  1.00  0.00    -0.052 C 
ATOM     56  H   UNL A   1      47.364  23.464  24.481  1.00  0.00     0.027 H 
ATOM     57  H   UNL A   1      45.792  23.938  23.758  1.00  0.00     0.027 H 
BRANCH  55  58
ATOM     58  C   UNL A   1      45.660  22.400  25.181  1.00  0.00    -0.052 C 
ATOM     59  H   UNL A   1      46.348  21.932  25.855  1.00  0.00     0.027 H 
ATOM     60  H   UNL A   1      45.424  21.820  24.313  1.00  0.00     0.027 H 
BRANCH  58  61
ATOM     61  C   UNL A   1      44.328  22.581  25.924  1.00  0.00    -0.036 C 
ATOM     62  H   UNL A   1      44.424  23.411  26.591  1.00  0.00     0.028 H 
ATOM     63  H   UNL A   1      44.129  21.665  26.440  1.00  0.00     0.028 H 
BRANCH  61  64
ATOM     64  C   UNL A   1      43.147  22.838  25.004  1.00  0.00     0.018 C 
ATOM     65  H   UNL A   1      43.364  22.422  24.042  1.00  0.00     0.049 H 
ATOM     66  H   UNL A   1      42.999  23.897  24.952  1.00  0.00     0.049 H 
BRANCH  64  67
ATOM     67  N   UNL A   1      41.901  22.240  25.504  1.00  0.00    -0.352 N 
ATOM     68  C   UNL A   1      41.092  22.668  26.536  1.00  0.00     0.251 C 
ATOM     69  H   UNL A   1      41.605  21.425  25.039  1.00  0.00     0.163 HD
ATOM     70  O   UNL A   1      40.309  21.893  27.093  1.00  0.00    -0.269 OA
BRANCH  68  71
ATOM     71  C   UNL A   1      41.163  24.072  26.958  1.00  0.00     0.039 A 
ATOM     72  C   UNL A   1      40.415  25.089  26.354  1.00  0.00    -0.049 A 
ATOM     73  C   UNL A   1      41.998  24.351  28.030  1.00  0.00    -0.049 A 
ATOM     74  C   UNL A   1      40.487  26.372  26.892  1.00  0.00    -0.053 A 
ATOM     75  H   UNL A   1      39.824  24.892  25.531  1.00  0.00     0.063 H 
ATOM     76  C   UNL A   1      41.853  25.522  28.709  1.00  0.00    -0.053 A 
ATOM     77  H   UNL A   1      42.724  23.675  28.312  1.00  0.00     0.063 H 
ATOM     78  C   UNL A   1      41.208  26.571  28.079  1.00  0.00    -0.014 A 
ATOM     79  H   UNL A   1      40.018  27.163  26.424  1.00  0.00     0.063 H 
ATOM     80  H   UNL A   1      42.215  25.624  29.670  1.00  0.00     0.063 H 
BRANCH  78  81
ATOM     81  C   UNL A   1      41.261  27.853  28.762  1.00  0.00     0.031 A 
ATOM     82  C   UNL A   1      42.404  28.701  28.351  1.00  0.00     0.074 A 
ATOM     83  C   UNL A   1      40.225  28.317  29.499  1.00  0.00     0.049 A 
ATOM     84  N   UNL A   1      43.426  29.038  29.063  1.00  0.00    -0.248 NA
ATOM     85  C   UNL A   1      42.510  29.089  26.934  1.00  0.00    -0.034 C 
ATOM     86  C   UNL A   1      38.902  27.708  29.709  1.00  0.00    -0.036 A 
ATOM     87  N   UNL A   1      40.098  29.507  30.143  1.00  0.00    -0.354 N 
ATOM     88  C   UNL A   1      44.193  29.867  28.252  1.00  0.00     0.074 A 
ATOM     89  C   UNL A   1      43.703  29.686  26.912  1.00  0.00    -0.034 C 
ATOM     90  H   UNL A   1      41.840  28.940  26.163  1.00  0.00     0.065 H 
ATOM     91  C   UNL A   1      38.049  28.624  30.219  1.00  0.00    -0.036 A 
ATOM     92  H   UNL A   1      38.661  26.727  29.498  1.00  0.00     0.065 H 
ATOM     93  C   UNL A   1      38.800  29.821  30.538  1.00  0.00     0.049 A 
ATOM     94  H   UNL A   1      40.864  30.100  30.318  1.00  0.00     0.167 HD
ATOM     95  C   UNL A   1      44.970  30.838  28.804  1.00  0.00     0.037 A 
ATOM     96  H   UNL A   1      44.202  29.978  26.057  1.00  0.00     0.065 H 
ATOM     97  H   UNL A   1      37.035  28.493  30.358  1.00  0.00     0.065 H 
ATOM     98  C   UNL A   1      38.383  31.001  31.066  1.00  0.00     0.037 A 
ATOM     99  C   UNL A   1      45.162  30.601  30.217  1.00  0.00     0.049 A 
ATOM    100  C   UNL A   1      39.591  31.697  31.576  1.00  0.00     0.074 A 
ATOM    101  C   UNL A   1      45.698  29.568  30.963  1.00  0.00    -0.036 A 
ATOM    102  N   UNL A   1      44.400  31.334  31.094  1.00  0.00    -0.354 N 
ATOM    103  N   UNL A   1      40.298  31.268  32.586  1.00  0.00    -0.248 NA
ATOM    104  C   UNL A   1      40.286  32.587  30.658  1.00  0.00    -0.034 C 
ATOM    105  C   UNL A   1      44.845  29.455  32.102  1.00  0.00    -0.036 A 
ATOM    106  H   UNL A   1      46.534  29.003  30.745  1.00  0.00     0.065 H 
ATOM    107  C   UNL A   1      43.892  30.471  32.030  1.00  0.00     0.049 A 
ATOM    108  H   UNL A   1      44.247  32.306  31.058  1.00  0.00     0.167 HD
ATOM    109  C   UNL A   1      41.615  31.464  32.199  1.00  0.00     0.074 A 
ATOM    110  C   UNL A   1      41.544  32.347  31.037  1.00  0.00    -0.034 C 
ATOM    111  H   UNL A   1      39.914  33.217  29.930  1.00  0.00     0.065 H 
ATOM    112  H   UNL A   1      44.920  28.744  32.847  1.00  0.00     0.065 H 
ATOM    113  C   UNL A   1      42.610  30.654  32.669  1.00  0.00     0.037 A 
ATOM    114  H   UNL A   1      42.372  32.740  30.562  1.00  0.00     0.065 H 
BRANCH  95 115
ATOM    115  C   UNL A   1      45.198  32.198  28.187  1.00  0.00     0.064 A 
ATOM    116  C   UNL A   1      44.088  33.045  27.992  1.00  0.00     0.173 A 
ATOM    117  C   UNL A   1      46.375  32.574  27.501  1.00  0.00     0.173 A 
ATOM    118  F   UNL A   1      42.914  32.779  28.585  1.00  0.00    -0.203 F 
ATOM    119  C   UNL A   1      44.128  34.122  27.103  1.00  0.00     0.198 A 
ATOM    120  C   UNL A   1      46.426  33.682  26.659  1.00  0.00     0.198 A 
ATOM    121  F   UNL A   1      47.487  31.833  27.520  1.00  0.00    -0.203 F 
ATOM    122  F   UNL A   1      43.008  34.811  26.845  1.00  0.00    -0.200 F 
ATOM    123  C   UNL A   1      45.294  34.434  26.430  1.00  0.00     0.200 A 
ATOM    124  F   UNL A   1      47.563  33.957  26.003  1.00  0.00    -0.200 F 
ATOM    125  F   UNL A   1      45.317  35.422  25.526  1.00  0.00    -0.200 F 
ENDBRANCH  95 115
BRANCH  98 126
ATOM    126  C   UNL A   1      37.093  31.706  30.864  1.00  0.00     0.064 A 
ATOM    127  C   UNL A   1      36.151  31.806  31.901  1.00  0.00     0.173 A 
ATOM    128  C   UNL A   1      36.889  32.550  29.754  1.00  0.00     0.173 A 
ATOM    129  F   UNL A   1      36.295  31.071  33.015  1.00  0.00    -0.203 F 
ATOM    130  C   UNL A   1      35.090  32.718  31.848  1.00  0.00     0.198 A 
ATOM    131  C   UNL A   1      35.828  33.456  29.700  1.00  0.00     0.198 A 
ATOM    132  F   UNL A   1      37.773  32.584  28.746  1.00  0.00    -0.203 F 
ATOM    133  F   UNL A   1      34.251  32.831  32.889  1.00  0.00    -0.200 F 
ATOM    134  C   UNL A   1      34.937  33.552  30.753  1.00  0.00     0.200 A 
ATOM    135  F   UNL A   1      35.716  34.286  28.652  1.00  0.00    -0.200 F 
ATOM    136  F   UNL A   1      33.964  34.472  30.731  1.00  0.00    -0.200 F 
ENDBRANCH  98 126
BRANCH 113 137
ATOM    137  C   UNL A   1      42.280  29.729  33.808  1.00  0.00     0.064 A 
ATOM    138  C   UNL A   1      41.717  28.448  33.657  1.00  0.00     0.173 A 
ATOM    139  C   UNL A   1      42.681  30.103  35.098  1.00  0.00     0.173 A 
ATOM    140  F   UNL A   1      41.395  27.974  32.448  1.00  0.00    -0.203 F 
ATOM    141  C   UNL A   1      41.528  27.606  34.752  1.00  0.00     0.198 A 
ATOM    142  C   UNL A   1      42.524  29.246  36.183  1.00  0.00     0.198 A 
ATOM    143  F   UNL A   1      43.274  31.291  35.295  1.00  0.00    -0.203 F 
ATOM    144  F   UNL A   1      40.977  26.394  34.581  1.00  0.00    -0.200 F 
ATOM    145  C   UNL A   1      41.938  28.003  36.013  1.00  0.00     0.200 A 
ATOM    146  F   UNL A   1      42.969  29.618  37.392  1.00  0.00    -0.200 F 
ATOM    147  F   UNL A   1      41.793  27.179  37.060  1.00  0.00    -0.200 F 
ENDBRANCH 113 137
ENDBRANCH  78  81
ENDBRANCH  68  71
ENDBRANCH  64  67
ENDBRANCH  61  64
ENDBRANCH  58  61
ENDBRANCH  55  58
ENDBRANCH   1  55
TORSDOF 20
ENDMDL
MODEL 10
REMARK VINA RESULT:     -11.3      5.494     11.891
REMARK SMILES C/C(=N\Nc1nc(-c2ccc(Cl)cc2)cs1)c1nnn(-c2ccc(C(=O)NCCCCCCNC(=O)c3ccc(-c4c5nc(c(-c6c(F)c(F)c(F)c(F)c6F)c6ccc([nH]6)c(-c6c(F)c(F)c(F)c(F)c6F)c6nc(c(-c7c(F)c(F)c(F)c(F)c7F)c7ccc4[nH]7)C=C6)C=C5)cc3)cc2)c1C
REMARK SMILES IDX 29 1 28 4 27 7 25 8 26 9 24 11 21 12 22 13 101 14 23 15
REMARK SMILES IDX 100 17 20 21 17 22 18 23 102 24 19 25 2 26 3 27 1 28 4 32
REMARK SMILES IDX 5 34 6 35 16 36 7 37 15 38 8 40 9 41 14 42 10 43 13 45 11 47
REMARK SMILES IDX 12 50 103 51 30 55 31 58 32 61 33 64 34 67 35 68 36 70 37 71
REMARK SMILES IDX 38 72 99 73 39 74 98 76 40 78 41 81 42 82 92 83 43 84 97 85
REMARK SMILES IDX 91 86 93 87 44 88 96 89 90 91 89 93 45 95 77 98 57 99 76 100
REMARK SMILES IDX 58 101 61 102 75 103 94 104 59 105 60 107 74 109 95 110
REMARK SMILES IDX 62 113 46 115 47 116 55 117 48 118 49 119 53 120 56 121
REMARK SMILES IDX 50 122 51 123 54 124 52 125 78 126 79 127 87 128 80 129
REMARK SMILES IDX 81 130 85 131 88 132 82 133 83 134 86 135 84 136 63 137
REMARK SMILES IDX 64 138 72 139 65 140 66 141 70 142 73 143 67 144 68 145
REMARK SMILES IDX 71 146 69 147
REMARK H PARENT 29 2 29 3 28 5 28 6 27 10 22 16 101 18 23 19 100 20 1 29 1 30
REMARK H PARENT 1 31 4 33 15 39 9 44 14 46 10 48 13 49 103 52 103 53 103 54
REMARK H PARENT 30 56 30 57 31 59 31 60 32 62 32 63 33 65 33 66 34 69 38 75
REMARK H PARENT 99 77 39 79 98 80 97 90 91 92 93 94 96 96 90 97 58 106 61 108
REMARK H PARENT 94 111 59 112 95 114
REMARK Flexibility Score: inf
ROOT
ATOM      1  C   UNL A   1      38.105  31.132  33.251  1.00  0.00    -0.036 C 
ATOM      2  H   UNL A   1      38.419  30.428  32.509  1.00  0.00     0.028 H 
ATOM      3  H   UNL A   1      38.719  32.009  33.263  1.00  0.00     0.028 H 
ENDROOT
BRANCH   1   4
ATOM      4  C   UNL A   1      38.233  30.474  34.627  1.00  0.00     0.018 C 
ATOM      5  H   UNL A   1      37.644  29.581  34.647  1.00  0.00     0.049 H 
ATOM      6  H   UNL A   1      39.262  30.241  34.805  1.00  0.00     0.049 H 
BRANCH   4   7
ATOM      7  N   UNL A   1      37.769  31.376  35.666  1.00  0.00    -0.352 N 
ATOM      8  C   UNL A   1      38.214  32.594  36.118  1.00  0.00     0.251 C 
ATOM      9  O   UNL A   1      37.578  33.139  37.020  1.00  0.00    -0.269 OA
ATOM     10  H   UNL A   1      36.973  31.048  36.145  1.00  0.00     0.163 HD
BRANCH   8  11
ATOM     11  C   UNL A   1      39.370  33.313  35.513  1.00  0.00     0.039 A 
ATOM     12  C   UNL A   1      41.380  34.525  34.014  1.00  0.00     0.067 A 
ATOM     13  C   UNL A   1      40.099  35.072  33.981  1.00  0.00    -0.036 A 
ATOM     14  C   UNL A   1      41.696  33.478  34.883  1.00  0.00    -0.036 A 
ATOM     15  C   UNL A   1      39.091  34.441  34.718  1.00  0.00    -0.047 A 
ATOM     16  H   UNL A   1      39.899  35.919  33.429  1.00  0.00     0.065 H 
ATOM     17  C   UNL A   1      40.697  32.910  35.670  1.00  0.00    -0.047 A 
ATOM     18  H   UNL A   1      42.664  33.126  34.942  1.00  0.00     0.065 H 
ATOM     19  H   UNL A   1      38.126  34.809  34.677  1.00  0.00     0.063 H 
ATOM     20  H   UNL A   1      40.938  32.192  36.370  1.00  0.00     0.063 H 
BRANCH  12  21
ATOM     21  N   UNL A   1      42.326  34.897  33.045  1.00  0.00    -0.217 N 
ATOM     22  C   UNL A   1      43.554  35.009  31.254  1.00  0.00     0.132 A 
ATOM     23  N   UNL A   1      43.927  36.012  32.111  1.00  0.00    -0.128 NA
ATOM     24  C   UNL A   1      42.521  34.283  31.824  1.00  0.00     0.071 A 
ATOM     25  N   UNL A   1      43.104  35.990  33.156  1.00  0.00    -0.061 NA
BRANCH  22  26
ATOM     26  C   UNL A   1      44.094  34.829  29.912  1.00  0.00     0.087 C 
ATOM     27  N   UNL A   1      43.397  35.347  28.939  1.00  0.00    -0.176 NA
BRANCH  26  28
ATOM     28  C   UNL A   1      45.430  34.134  29.851  1.00  0.00    -0.018 C 
ATOM     29  H   UNL A   1      45.978  34.335  30.749  1.00  0.00     0.030 H 
ATOM     30  H   UNL A   1      45.982  34.496  29.008  1.00  0.00     0.030 H 
ATOM     31  H   UNL A   1      45.280  33.079  29.754  1.00  0.00     0.030 H 
ENDBRANCH  26  28
BRANCH  27  32
ATOM     32  N   UNL A   1      43.817  35.424  27.628  1.00  0.00    -0.252 N 
ATOM     33  H   UNL A   1      43.322  34.843  27.007  1.00  0.00     0.193 HD
BRANCH  32  34
ATOM     34  C   UNL A   1      44.796  36.163  27.047  1.00  0.00     0.203 A 
ATOM     35  N   UNL A   1      45.790  35.701  26.326  1.00  0.00    -0.219 NA
ATOM     36  S   UNL A   1      44.864  37.873  27.301  1.00  0.00    -0.103 S 
ATOM     37  C   UNL A   1      46.806  36.631  26.248  1.00  0.00     0.084 A 
ATOM     38  C   UNL A   1      46.486  37.882  26.729  1.00  0.00     0.021 A 
ATOM     39  H   UNL A   1      47.120  38.697  26.743  1.00  0.00     0.076 H 
BRANCH  37  40
ATOM     40  C   UNL A   1      48.117  36.224  25.776  1.00  0.00     0.001 A 
ATOM     41  C   UNL A   1      48.901  37.130  25.052  1.00  0.00    -0.051 A 
ATOM     42  C   UNL A   1      48.562  34.903  25.934  1.00  0.00    -0.051 A 
ATOM     43  C   UNL A   1      50.131  36.736  24.520  1.00  0.00    -0.043 A 
ATOM     44  H   UNL A   1      48.567  38.096  24.908  1.00  0.00     0.063 H 
ATOM     45  C   UNL A   1      49.789  34.505  25.390  1.00  0.00    -0.043 A 
ATOM     46  H   UNL A   1      47.984  34.223  26.450  1.00  0.00     0.063 H 
ATOM     47  C   UNL A   1      50.571  35.425  24.694  1.00  0.00     0.041 A 
ATOM     48  H   UNL A   1      50.713  37.412  24.001  1.00  0.00     0.064 H 
ATOM     49  H   UNL A   1      50.114  33.532  25.506  1.00  0.00     0.064 H 
ATOM     50  Cl  UNL A   1      52.081  34.934  24.033  1.00  0.00    -0.084 Cl
ENDBRANCH  37  40
ENDBRANCH  32  34
ENDBRANCH  27  32
ENDBRANCH  22  26
BRANCH  24  51
ATOM     51  C   UNL A   1      41.658  33.195  31.290  1.00  0.00    -0.020 C 
ATOM     52  H   UNL A   1      41.141  32.722  32.098  1.00  0.00     0.030 H 
ATOM     53  H   UNL A   1      42.265  32.474  30.784  1.00  0.00     0.030 H 
ATOM     54  H   UNL A   1      40.946  33.608  30.606  1.00  0.00     0.030 H 
ENDBRANCH  24  51
ENDBRANCH  12  21
ENDBRANCH   8  11
ENDBRANCH   4   7
ENDBRANCH   1   4
BRANCH   1  55
ATOM     55  C   UNL A   1      36.677  31.585  32.918  1.00  0.00    -0.052 C 
ATOM     56  H   UNL A   1      36.035  31.255  33.708  1.00  0.00     0.027 H 
ATOM     57  H   UNL A   1      36.450  31.154  31.965  1.00  0.00     0.027 H 
BRANCH  55  58
ATOM     58  C   UNL A   1      36.479  33.101  32.748  1.00  0.00    -0.052 C 
ATOM     59  H   UNL A   1      37.404  33.512  32.399  1.00  0.00     0.027 H 
ATOM     60  H   UNL A   1      36.170  33.456  33.709  1.00  0.00     0.027 H 
BRANCH  58  61
ATOM     61  C   UNL A   1      35.375  33.545  31.778  1.00  0.00    -0.036 C 
ATOM     62  H   UNL A   1      35.813  34.175  31.032  1.00  0.00     0.028 H 
ATOM     63  H   UNL A   1      34.634  34.055  32.357  1.00  0.00     0.028 H 
BRANCH  61  64
ATOM     64  C   UNL A   1      34.676  32.391  31.079  1.00  0.00     0.018 C 
ATOM     65  H   UNL A   1      33.682  32.307  31.468  1.00  0.00     0.049 H 
ATOM     66  H   UNL A   1      35.248  31.506  31.263  1.00  0.00     0.049 H 
BRANCH  64  67
ATOM     67  N   UNL A   1      34.598  32.576  29.624  1.00  0.00    -0.352 N 
ATOM     68  C   UNL A   1      35.567  32.340  28.671  1.00  0.00     0.251 C 
ATOM     69  H   UNL A   1      33.738  32.913  29.284  1.00  0.00     0.163 HD
ATOM     70  O   UNL A   1      35.514  32.881  27.562  1.00  0.00    -0.269 OA
BRANCH  68  71
ATOM     71  C   UNL A   1      36.663  31.416  28.987  1.00  0.00     0.039 A 
ATOM     72  C   UNL A   1      36.557  30.029  28.847  1.00  0.00    -0.049 A 
ATOM     73  C   UNL A   1      37.852  31.995  29.410  1.00  0.00    -0.049 A 
ATOM     74  C   UNL A   1      37.688  29.251  29.087  1.00  0.00    -0.053 A 
ATOM     75  H   UNL A   1      35.663  29.592  28.572  1.00  0.00     0.063 H 
ATOM     76  C   UNL A   1      39.003  31.270  29.374  1.00  0.00    -0.053 A 
ATOM     77  H   UNL A   1      37.863  32.969  29.750  1.00  0.00     0.063 H 
ATOM     78  C   UNL A   1      38.911  29.890  29.343  1.00  0.00    -0.014 A 
ATOM     79  H   UNL A   1      37.627  28.220  29.076  1.00  0.00     0.063 H 
ATOM     80  H   UNL A   1      39.922  31.738  29.368  1.00  0.00     0.063 H 
BRANCH  78  81
ATOM     81  C   UNL A   1      40.158  29.164  29.512  1.00  0.00     0.031 A 
ATOM     82  C   UNL A   1      40.478  28.848  30.924  1.00  0.00     0.074 A 
ATOM     83  C   UNL A   1      40.815  28.613  28.465  1.00  0.00     0.049 A 
ATOM     84  N   UNL A   1      41.440  29.329  31.635  1.00  0.00    -0.248 NA
ATOM     85  C   UNL A   1      39.523  28.027  31.688  1.00  0.00    -0.034 C 
ATOM     86  C   UNL A   1      40.418  28.576  27.049  1.00  0.00    -0.036 A 
ATOM     87  N   UNL A   1      41.948  27.863  28.464  1.00  0.00    -0.354 N 
ATOM     88  C   UNL A   1      41.347  28.700  32.871  1.00  0.00     0.074 A 
ATOM     89  C   UNL A   1      40.046  28.088  32.914  1.00  0.00    -0.034 C 
ATOM     90  H   UNL A   1      38.677  27.534  31.362  1.00  0.00     0.065 H 
ATOM     91  C   UNL A   1      41.159  27.659  26.387  1.00  0.00    -0.036 A 
ATOM     92  H   UNL A   1      39.684  29.164  26.623  1.00  0.00     0.065 H 
ATOM     93  C   UNL A   1      42.193  27.175  27.279  1.00  0.00     0.049 A 
ATOM     94  H   UNL A   1      42.550  27.810  29.243  1.00  0.00     0.167 HD
ATOM     95  C   UNL A   1      42.462  28.500  33.626  1.00  0.00     0.037 A 
ATOM     96  H   UNL A   1      39.583  27.744  33.771  1.00  0.00     0.065 H 
ATOM     97  H   UNL A   1      41.012  27.356  25.412  1.00  0.00     0.065 H 
ATOM     98  C   UNL A   1      43.169  26.255  27.068  1.00  0.00     0.037 A 
ATOM     99  C   UNL A   1      43.547  29.336  33.168  1.00  0.00     0.049 A 
ATOM    100  C   UNL A   1      44.187  26.455  28.130  1.00  0.00     0.074 A 
ATOM    101  C   UNL A   1      43.731  30.699  33.027  1.00  0.00    -0.036 A 
ATOM    102  N   UNL A   1      44.514  28.751  32.386  1.00  0.00    -0.354 N 
ATOM    103  N   UNL A   1      44.937  27.520  28.219  1.00  0.00    -0.248 NA
ATOM    104  C   UNL A   1      44.023  25.700  29.363  1.00  0.00    -0.034 C 
ATOM    105  C   UNL A   1      44.454  30.850  31.807  1.00  0.00    -0.036 A 
ATOM    106  H   UNL A   1      43.413  31.444  33.667  1.00  0.00     0.065 H 
ATOM    107  C   UNL A   1      44.744  29.577  31.316  1.00  0.00     0.049 A 
ATOM    108  H   UNL A   1      44.963  27.893  32.563  1.00  0.00     0.167 HD
ATOM    109  C   UNL A   1      44.969  27.812  29.575  1.00  0.00     0.074 A 
ATOM    110  C   UNL A   1      44.451  26.616  30.236  1.00  0.00    -0.034 C 
ATOM    111  H   UNL A   1      43.676  24.740  29.517  1.00  0.00     0.065 H 
ATOM    112  H   UNL A   1      44.716  31.745  31.364  1.00  0.00     0.065 H 
ATOM    113  C   UNL A   1      45.126  29.098  30.008  1.00  0.00     0.037 A 
ATOM    114  H   UNL A   1      44.420  26.493  31.260  1.00  0.00     0.065 H 
BRANCH  95 115
ATOM    115  C   UNL A   1      42.704  27.276  34.478  1.00  0.00     0.064 A 
ATOM    116  C   UNL A   1      42.575  27.392  35.877  1.00  0.00     0.173 A 
ATOM    117  C   UNL A   1      43.354  26.106  34.025  1.00  0.00     0.173 A 
ATOM    118  F   UNL A   1      41.985  28.467  36.421  1.00  0.00    -0.203 F 
ATOM    119  C   UNL A   1      43.139  26.460  36.750  1.00  0.00     0.198 A 
ATOM    120  C   UNL A   1      43.867  25.150  34.899  1.00  0.00     0.198 A 
ATOM    121  F   UNL A   1      43.625  25.887  32.734  1.00  0.00    -0.203 F 
ATOM    122  F   UNL A   1      43.112  26.686  38.071  1.00  0.00    -0.200 F 
ATOM    123  C   UNL A   1      43.793  25.344  36.261  1.00  0.00     0.200 A 
ATOM    124  F   UNL A   1      44.512  24.085  34.403  1.00  0.00    -0.200 F 
ATOM    125  F   UNL A   1      44.395  24.486  37.094  1.00  0.00    -0.200 F 
ENDBRANCH  95 115
BRANCH  98 126
ATOM    126  C   UNL A   1      43.124  25.023  26.241  1.00  0.00     0.064 A 
ATOM    127  C   UNL A   1      44.095  24.774  25.259  1.00  0.00     0.173 A 
ATOM    128  C   UNL A   1      42.308  23.932  26.602  1.00  0.00     0.173 A 
ATOM    129  F   UNL A   1      44.944  25.746  24.889  1.00  0.00    -0.203 F 
ATOM    130  C   UNL A   1      44.265  23.504  24.695  1.00  0.00     0.198 A 
ATOM    131  C   UNL A   1      42.475  22.666  26.036  1.00  0.00     0.198 A 
ATOM    132  F   UNL A   1      41.401  24.048  27.583  1.00  0.00    -0.203 F 
ATOM    133  F   UNL A   1      45.250  23.290  23.809  1.00  0.00    -0.200 F 
ATOM    134  C   UNL A   1      43.463  22.447  25.095  1.00  0.00     0.200 A 
ATOM    135  F   UNL A   1      41.720  21.644  26.463  1.00  0.00    -0.200 F 
ATOM    136  F   UNL A   1      43.670  21.216  24.608  1.00  0.00    -0.200 F 
ENDBRANCH  98 126
BRANCH 113 137
ATOM    137  C   UNL A   1      45.526  30.136  28.994  1.00  0.00     0.064 A 
ATOM    138  C   UNL A   1      46.848  30.374  28.579  1.00  0.00     0.173 A 
ATOM    139  C   UNL A   1      44.508  30.819  28.316  1.00  0.00     0.173 A 
ATOM    140  F   UNL A   1      47.871  29.694  29.107  1.00  0.00    -0.203 F 
ATOM    141  C   UNL A   1      47.135  31.286  27.563  1.00  0.00     0.198 A 
ATOM    142  C   UNL A   1      44.794  31.701  27.278  1.00  0.00     0.198 A 
ATOM    143  F   UNL A   1      43.223  30.592  28.632  1.00  0.00    -0.203 F 
ATOM    144  F   UNL A   1      48.407  31.504  27.194  1.00  0.00    -0.200 F 
ATOM    145  C   UNL A   1      46.107  31.943  26.909  1.00  0.00     0.200 A 
ATOM    146  F   UNL A   1      43.792  32.297  26.617  1.00  0.00    -0.200 F 
ATOM    147  F   UNL A   1      46.379  32.790  25.906  1.00  0.00    -0.200 F 
ENDBRANCH 113 137
ENDBRANCH  78  81
ENDBRANCH  68  71
ENDBRANCH  64  67
ENDBRANCH  61  64
ENDBRANCH  58  61
ENDBRANCH  55  58
ENDBRANCH   1  55
TORSDOF 20
ENDMDL
