MODEL 1
REMARK VINA RESULT:     -12.3      0.000      0.000
REMARK SMILES C[C@@H](C(=O)NCCCCCCNC(=O)c1ccc(-c2c3nc(c(-c4c(F)c(F)c(F)c(F)c4F)c4ccc([nH]4)c(-c4c(F)c(F)c(F)c(F)c4F)c4nc(c(-c5c(F)c(F)c(F)c(F)c5F)c5ccc2[nH]5)C=C4)C=C3)cc1)c1ccc(C[C@H]2CCC[C@@H]2O)cc1
REMARK SMILES IDX 7 1 6 4 5 7 3 8 4 9 2 11 1 13 78 17 79 18 90 19 80 20 89 22
REMARK SMILES IDX 81 24 82 27 83 30 84 31 87 32 85 34 86 37 88 43 8 45 9 48
REMARK SMILES IDX 10 51 11 54 12 57 13 58 14 60 15 61 16 62 77 63 17 64 76 66
REMARK SMILES IDX 18 68 19 71 20 72 70 73 21 74 75 75 69 76 71 77 22 78 74 79
REMARK SMILES IDX 68 81 67 83 23 85 55 88 35 89 54 90 36 91 39 92 53 93 72 94
REMARK SMILES IDX 37 95 38 97 52 99 73 100 40 103 24 105 25 106 33 107 26 108
REMARK SMILES IDX 27 109 31 110 34 111 28 112 29 113 32 114 30 115 56 116
REMARK SMILES IDX 57 117 65 118 58 119 59 120 63 121 66 122 60 123 61 124
REMARK SMILES IDX 64 125 62 126 41 127 42 128 50 129 43 130 44 131 48 132
REMARK SMILES IDX 51 133 45 134 46 135 49 136 47 137
REMARK H PARENT 7 2 7 3 6 5 6 6 5 10 2 12 1 14 1 15 1 16 79 21 90 23 80 25
REMARK H PARENT 89 26 82 28 82 29 83 33 84 35 84 36 87 38 85 39 85 40 86 41
REMARK H PARENT 86 42 88 44 8 46 8 47 9 49 9 50 10 52 10 53 11 55 11 56 12 59
REMARK H PARENT 16 65 77 67 17 69 76 70 75 80 69 82 71 84 74 86 68 87 36 96
REMARK H PARENT 39 98 72 101 37 102 73 104
REMARK Flexibility Score: inf
ROOT
ATOM      1  C   UNL A   1      32.133  28.474  26.676  1.00  0.00    -0.036 C 
ATOM      2  H   UNL A   1      31.722  27.906  27.484  1.00  0.00     0.028 H 
ATOM      3  H   UNL A   1      31.565  28.374  25.774  1.00  0.00     0.028 H 
ENDROOT
BRANCH   1   4
ATOM      4  C   UNL A   1      33.536  27.941  26.378  1.00  0.00     0.017 C 
ATOM      5  H   UNL A   1      34.186  28.180  27.194  1.00  0.00     0.049 H 
ATOM      6  H   UNL A   1      33.486  26.880  26.250  1.00  0.00     0.049 H 
BRANCH   4   7
ATOM      7  N   UNL A   1      34.052  28.538  25.168  1.00  0.00    -0.356 N 
ATOM      8  C   UNL A   1      33.960  28.128  23.872  1.00  0.00     0.227 C 
ATOM      9  O   UNL A   1      34.639  28.758  23.060  1.00  0.00    -0.274 OA
ATOM     10  H   UNL A   1      34.552  29.376  25.301  1.00  0.00     0.163 HD
BRANCH   8  11
ATOM     11  C   UNL A   1      33.006  26.981  23.502  1.00  0.00     0.060 C 
ATOM     12  H   UNL A   1      33.019  26.372  24.382  1.00  0.00     0.045 H 
BRANCH  11  13
ATOM     13  C   UNL A   1      33.475  26.158  22.297  1.00  0.00    -0.049 C 
ATOM     14  H   UNL A   1      34.536  26.249  22.193  1.00  0.00     0.024 H 
ATOM     15  H   UNL A   1      32.998  26.520  21.411  1.00  0.00     0.024 H 
ATOM     16  H   UNL A   1      33.219  25.130  22.446  1.00  0.00     0.024 H 
ENDBRANCH  11  13
BRANCH  11  17
ATOM     17  C   UNL A   1      31.579  27.432  23.219  1.00  0.00    -0.036 A 
ATOM     18  C   UNL A   1      31.344  28.699  22.668  1.00  0.00    -0.058 A 
ATOM     19  C   UNL A   1      30.479  26.652  23.606  1.00  0.00    -0.058 A 
ATOM     20  C   UNL A   1      30.043  29.187  22.552  1.00  0.00    -0.059 A 
ATOM     21  H   UNL A   1      32.139  29.273  22.346  1.00  0.00     0.063 H 
ATOM     22  C   UNL A   1      29.181  27.140  23.487  1.00  0.00    -0.059 A 
ATOM     23  H   UNL A   1      30.634  25.704  23.983  1.00  0.00     0.063 H 
ATOM     24  C   UNL A   1      28.956  28.434  23.008  1.00  0.00    -0.048 A 
ATOM     25  H   UNL A   1      29.881  30.113  22.126  1.00  0.00     0.063 H 
ATOM     26  H   UNL A   1      28.382  26.545  23.754  1.00  0.00     0.063 H 
BRANCH  24  27
ATOM     27  C   UNL A   1      27.570  29.027  23.068  1.00  0.00    -0.023 C 
ATOM     28  H   UNL A   1      27.206  28.920  24.069  1.00  0.00     0.032 H 
ATOM     29  H   UNL A   1      26.984  28.496  22.347  1.00  0.00     0.032 H 
BRANCH  27  30
ATOM     30  C   UNL A   1      27.486  30.516  22.683  1.00  0.00    -0.011 C 
ATOM     31  C   UNL A   1      28.005  31.526  23.722  1.00  0.00    -0.048 C 
ATOM     32  C   UNL A   1      28.217  30.898  21.393  1.00  0.00     0.057 C 
ATOM     33  H   UNL A   1      26.424  30.589  22.581  1.00  0.00     0.033 H 
ATOM     34  C   UNL A   1      28.642  32.668  22.922  1.00  0.00    -0.050 C 
ATOM     35  H   UNL A   1      28.734  31.066  24.356  1.00  0.00     0.027 H 
ATOM     36  H   UNL A   1      27.215  31.881  24.350  1.00  0.00     0.027 H 
ATOM     37  C   UNL A   1      28.258  32.416  21.472  1.00  0.00    -0.027 C 
ATOM     38  H   UNL A   1      29.189  30.460  21.304  1.00  0.00     0.060 H 
ATOM     39  H   UNL A   1      29.706  32.655  23.034  1.00  0.00     0.027 H 
ATOM     40  H   UNL A   1      28.302  33.625  23.260  1.00  0.00     0.027 H 
ATOM     41  H   UNL A   1      28.992  32.817  20.804  1.00  0.00     0.029 H 
ATOM     42  H   UNL A   1      27.337  32.880  21.191  1.00  0.00     0.029 H 
BRANCH  32  43
ATOM     43  O   UNL A   1      27.513  30.447  20.254  1.00  0.00    -0.393 OA
ATOM     44  H   UNL A   1      28.144  30.186  19.565  1.00  0.00     0.210 HD
ENDBRANCH  32  43
ENDBRANCH  27  30
ENDBRANCH  24  27
ENDBRANCH  11  17
ENDBRANCH   8  11
ENDBRANCH   4   7
ENDBRANCH   1   4
BRANCH   1  45
ATOM     45  C   UNL A   1      32.100  29.960  27.061  1.00  0.00    -0.052 C 
ATOM     46  H   UNL A   1      33.110  30.297  27.170  1.00  0.00     0.027 H 
ATOM     47  H   UNL A   1      31.533  30.024  27.966  1.00  0.00     0.027 H 
BRANCH  45  48
ATOM     48  C   UNL A   1      31.401  30.872  26.049  1.00  0.00    -0.052 C 
ATOM     49  H   UNL A   1      30.415  30.491  25.882  1.00  0.00     0.027 H 
ATOM     50  H   UNL A   1      32.006  30.869  25.168  1.00  0.00     0.027 H 
BRANCH  48  51
ATOM     51  C   UNL A   1      31.280  32.331  26.490  1.00  0.00    -0.036 C 
ATOM     52  H   UNL A   1      30.442  32.415  27.150  1.00  0.00     0.028 H 
ATOM     53  H   UNL A   1      31.164  32.914  25.600  1.00  0.00     0.028 H 
BRANCH  51  54
ATOM     54  C   UNL A   1      32.511  32.864  27.208  1.00  0.00     0.018 C 
ATOM     55  H   UNL A   1      33.358  32.765  26.561  1.00  0.00     0.049 H 
ATOM     56  H   UNL A   1      32.642  32.298  28.106  1.00  0.00     0.049 H 
BRANCH  54  57
ATOM     57  N   UNL A   1      32.361  34.263  27.576  1.00  0.00    -0.352 N 
ATOM     58  C   UNL A   1      32.991  34.959  28.574  1.00  0.00     0.251 C 
ATOM     59  H   UNL A   1      31.720  34.779  27.036  1.00  0.00     0.163 HD
ATOM     60  O   UNL A   1      32.601  36.080  28.893  1.00  0.00    -0.269 OA
BRANCH  58  61
ATOM     61  C   UNL A   1      34.138  34.348  29.276  1.00  0.00     0.039 A 
ATOM     62  C   UNL A   1      33.899  33.524  30.376  1.00  0.00    -0.049 A 
ATOM     63  C   UNL A   1      35.446  34.596  28.850  1.00  0.00    -0.049 A 
ATOM     64  C   UNL A   1      34.973  32.919  31.031  1.00  0.00    -0.053 A 
ATOM     65  H   UNL A   1      32.934  33.362  30.705  1.00  0.00     0.063 H 
ATOM     66  C   UNL A   1      36.506  33.924  29.445  1.00  0.00    -0.053 A 
ATOM     67  H   UNL A   1      35.624  35.279  28.097  1.00  0.00     0.063 H 
ATOM     68  C   UNL A   1      36.283  33.099  30.558  1.00  0.00    -0.014 A 
ATOM     69  H   UNL A   1      34.804  32.337  31.865  1.00  0.00     0.063 H 
ATOM     70  H   UNL A   1      37.460  34.031  29.067  1.00  0.00     0.063 H 
BRANCH  68  71
ATOM     71  C   UNL A   1      37.441  32.473  31.243  1.00  0.00     0.031 A 
ATOM     72  C   UNL A   1      38.206  31.372  30.561  1.00  0.00     0.074 A 
ATOM     73  C   UNL A   1      37.771  32.855  32.491  1.00  0.00     0.049 A 
ATOM     74  N   UNL A   1      39.215  30.665  31.003  1.00  0.00    -0.248 NA
ATOM     75  C   UNL A   1      37.753  30.991  29.214  1.00  0.00    -0.034 C 
ATOM     76  C   UNL A   1      37.081  33.883  33.271  1.00  0.00    -0.036 A 
ATOM     77  N   UNL A   1      38.772  32.421  33.323  1.00  0.00    -0.354 N 
ATOM     78  C   UNL A   1      39.500  29.748  30.000  1.00  0.00     0.074 A 
ATOM     79  C   UNL A   1      38.519  29.943  28.956  1.00  0.00    -0.034 C 
ATOM     80  H   UNL A   1      37.028  31.427  28.623  1.00  0.00     0.065 H 
ATOM     81  C   UNL A   1      37.701  34.025  34.453  1.00  0.00    -0.036 A 
ATOM     82  H   UNL A   1      36.251  34.412  32.962  1.00  0.00     0.065 H 
ATOM     83  C   UNL A   1      38.805  33.074  34.530  1.00  0.00     0.049 A 
ATOM     84  H   UNL A   1      39.406  31.709  33.077  1.00  0.00     0.167 HD
ATOM     85  C   UNL A   1      40.505  28.841  29.942  1.00  0.00     0.037 A 
ATOM     86  H   UNL A   1      38.428  29.343  28.121  1.00  0.00     0.065 H 
ATOM     87  H   UNL A   1      37.439  34.699  35.190  1.00  0.00     0.065 H 
ATOM     88  C   UNL A   1      39.636  32.919  35.579  1.00  0.00     0.037 A 
ATOM     89  C   UNL A   1      41.494  28.671  30.974  1.00  0.00     0.049 A 
ATOM     90  C   UNL A   1      40.740  31.899  35.495  1.00  0.00     0.074 A 
ATOM     91  C   UNL A   1      42.592  27.829  30.988  1.00  0.00    -0.036 A 
ATOM     92  N   UNL A   1      41.500  29.355  32.182  1.00  0.00    -0.354 N 
ATOM     93  N   UNL A   1      41.047  31.086  34.513  1.00  0.00    -0.248 NA
ATOM     94  C   UNL A   1      41.619  31.783  36.667  1.00  0.00    -0.034 C 
ATOM     95  C   UNL A   1      43.225  27.957  32.229  1.00  0.00    -0.036 A 
ATOM     96  H   UNL A   1      42.892  27.213  30.217  1.00  0.00     0.065 H 
ATOM     97  C   UNL A   1      42.566  28.932  32.961  1.00  0.00     0.049 A 
ATOM     98  H   UNL A   1      40.843  30.040  32.446  1.00  0.00     0.167 HD
ATOM     99  C   UNL A   1      42.178  30.396  34.927  1.00  0.00     0.074 A 
ATOM    100  C   UNL A   1      42.504  30.889  36.250  1.00  0.00    -0.034 C 
ATOM    101  H   UNL A   1      41.562  32.270  37.575  1.00  0.00     0.065 H 
ATOM    102  H   UNL A   1      44.045  27.417  32.546  1.00  0.00     0.065 H 
ATOM    103  C   UNL A   1      42.885  29.444  34.271  1.00  0.00     0.037 A 
ATOM    104  H   UNL A   1      43.323  30.584  36.799  1.00  0.00     0.065 H 
BRANCH  85 105
ATOM    105  C   UNL A   1      40.571  27.957  28.728  1.00  0.00     0.064 A 
ATOM    106  C   UNL A   1      41.329  28.302  27.597  1.00  0.00     0.173 A 
ATOM    107  C   UNL A   1      39.870  26.743  28.696  1.00  0.00     0.173 A 
ATOM    108  F   UNL A   1      42.012  29.457  27.567  1.00  0.00    -0.203 F 
ATOM    109  C   UNL A   1      41.341  27.491  26.465  1.00  0.00     0.198 A 
ATOM    110  C   UNL A   1      39.915  25.914  27.578  1.00  0.00     0.198 A 
ATOM    111  F   UNL A   1      39.134  26.357  29.750  1.00  0.00    -0.203 F 
ATOM    112  F   UNL A   1      42.013  27.879  25.372  1.00  0.00    -0.200 F 
ATOM    113  C   UNL A   1      40.639  26.295  26.458  1.00  0.00     0.200 A 
ATOM    114  F   UNL A   1      39.249  24.751  27.579  1.00  0.00    -0.200 F 
ATOM    115  F   UNL A   1      40.651  25.515  25.369  1.00  0.00    -0.200 F 
ENDBRANCH  85 105
BRANCH  88 116
ATOM    116  C   UNL A   1      39.487  33.787  36.776  1.00  0.00     0.064 A 
ATOM    117  C   UNL A   1      40.107  35.043  36.833  1.00  0.00     0.173 A 
ATOM    118  C   UNL A   1      38.724  33.386  37.883  1.00  0.00     0.173 A 
ATOM    119  F   UNL A   1      40.862  35.463  35.807  1.00  0.00    -0.203 F 
ATOM    120  C   UNL A   1      39.987  35.857  37.957  1.00  0.00     0.198 A 
ATOM    121  C   UNL A   1      38.581  34.213  38.995  1.00  0.00     0.198 A 
ATOM    122  F   UNL A   1      38.105  32.197  37.877  1.00  0.00    -0.203 F 
ATOM    123  F   UNL A   1      40.628  37.033  38.001  1.00  0.00    -0.200 F 
ATOM    124  C   UNL A   1      39.219  35.444  39.034  1.00  0.00     0.200 A 
ATOM    125  F   UNL A   1      37.824  33.818  40.028  1.00  0.00    -0.200 F 
ATOM    126  F   UNL A   1      39.099  36.230  40.114  1.00  0.00    -0.200 F 
ENDBRANCH  88 116
BRANCH 103 127
ATOM    127  C   UNL A   1      44.122  28.913  34.943  1.00  0.00     0.064 A 
ATOM    128  C   UNL A   1      45.375  29.522  34.784  1.00  0.00     0.173 A 
ATOM    129  C   UNL A   1      44.038  27.794  35.786  1.00  0.00     0.173 A 
ATOM    130  F   UNL A   1      45.513  30.585  33.978  1.00  0.00    -0.203 F 
ATOM    131  C   UNL A   1      46.504  29.010  35.418  1.00  0.00     0.198 A 
ATOM    132  C   UNL A   1      45.161  27.308  36.449  1.00  0.00     0.198 A 
ATOM    133  F   UNL A   1      42.862  27.179  35.981  1.00  0.00    -0.203 F 
ATOM    134  F   UNL A   1      47.702  29.572  35.205  1.00  0.00    -0.200 F 
ATOM    135  C   UNL A   1      46.395  27.909  36.255  1.00  0.00     0.200 A 
ATOM    136  F   UNL A   1      45.050  26.256  37.272  1.00  0.00    -0.200 F 
ATOM    137  F   UNL A   1      47.482  27.423  36.871  1.00  0.00    -0.200 F 
ENDBRANCH 103 127
ENDBRANCH  68  71
ENDBRANCH  58  61
ENDBRANCH  54  57
ENDBRANCH  51  54
ENDBRANCH  48  51
ENDBRANCH  45  48
ENDBRANCH   1  45
TORSDOF 18
ENDMDL
MODEL 2
REMARK VINA RESULT:     -12.3      0.626      7.231
REMARK SMILES C[C@@H](C(=O)NCCCCCCNC(=O)c1ccc(-c2c3nc(c(-c4c(F)c(F)c(F)c(F)c4F)c4ccc([nH]4)c(-c4c(F)c(F)c(F)c(F)c4F)c4nc(c(-c5c(F)c(F)c(F)c(F)c5F)c5ccc2[nH]5)C=C4)C=C3)cc1)c1ccc(C[C@H]2CCC[C@@H]2O)cc1
REMARK SMILES IDX 7 1 6 4 5 7 3 8 4 9 2 11 1 13 78 17 79 18 90 19 80 20 89 22
REMARK SMILES IDX 81 24 82 27 83 30 84 31 87 32 85 34 86 37 88 43 8 45 9 48
REMARK SMILES IDX 10 51 11 54 12 57 13 58 14 60 15 61 16 62 77 63 17 64 76 66
REMARK SMILES IDX 18 68 19 71 20 72 70 73 21 74 75 75 69 76 71 77 22 78 74 79
REMARK SMILES IDX 68 81 67 83 23 85 55 88 35 89 54 90 36 91 39 92 53 93 72 94
REMARK SMILES IDX 37 95 38 97 52 99 73 100 40 103 24 105 25 106 33 107 26 108
REMARK SMILES IDX 27 109 31 110 34 111 28 112 29 113 32 114 30 115 56 116
REMARK SMILES IDX 57 117 65 118 58 119 59 120 63 121 66 122 60 123 61 124
REMARK SMILES IDX 64 125 62 126 41 127 42 128 50 129 43 130 44 131 48 132
REMARK SMILES IDX 51 133 45 134 46 135 49 136 47 137
REMARK H PARENT 7 2 7 3 6 5 6 6 5 10 2 12 1 14 1 15 1 16 79 21 90 23 80 25
REMARK H PARENT 89 26 82 28 82 29 83 33 84 35 84 36 87 38 85 39 85 40 86 41
REMARK H PARENT 86 42 88 44 8 46 8 47 9 49 9 50 10 52 10 53 11 55 11 56 12 59
REMARK H PARENT 16 65 77 67 17 69 76 70 75 80 69 82 71 84 74 86 68 87 36 96
REMARK H PARENT 39 98 72 101 37 102 73 104
REMARK Flexibility Score: inf
ROOT
ATOM      1  C   UNL A   1      32.057  28.419  26.790  1.00  0.00    -0.036 C 
ATOM      2  H   UNL A   1      31.673  27.922  27.656  1.00  0.00     0.028 H 
ATOM      3  H   UNL A   1      31.429  28.293  25.932  1.00  0.00     0.028 H 
ENDROOT
BRANCH   1   4
ATOM      4  C   UNL A   1      33.413  27.799  26.443  1.00  0.00     0.017 C 
ATOM      5  H   UNL A   1      34.090  27.951  27.257  1.00  0.00     0.049 H 
ATOM      6  H   UNL A   1      33.282  26.752  26.266  1.00  0.00     0.049 H 
BRANCH   4   7
ATOM      7  N   UNL A   1      33.954  28.415  25.253  1.00  0.00    -0.356 N 
ATOM      8  C   UNL A   1      33.902  28.016  23.951  1.00  0.00     0.227 C 
ATOM      9  O   UNL A   1      34.595  28.663  23.164  1.00  0.00    -0.274 OA
ATOM     10  H   UNL A   1      34.439  29.257  25.407  1.00  0.00     0.163 HD
BRANCH   8  11
ATOM     11  C   UNL A   1      32.973  26.861  23.544  1.00  0.00     0.060 C 
ATOM     12  H   UNL A   1      32.987  26.233  24.410  1.00  0.00     0.045 H 
BRANCH  11  13
ATOM     13  C   UNL A   1      33.469  26.075  22.325  1.00  0.00    -0.049 C 
ATOM     14  H   UNL A   1      34.501  26.300  22.151  1.00  0.00     0.024 H 
ATOM     15  H   UNL A   1      32.895  26.349  21.466  1.00  0.00     0.024 H 
ATOM     16  H   UNL A   1      33.360  25.026  22.509  1.00  0.00     0.024 H 
ENDBRANCH  11  13
BRANCH  11  17
ATOM     17  C   UNL A   1      31.541  27.294  23.256  1.00  0.00    -0.036 A 
ATOM     18  C   UNL A   1      31.299  28.479  22.550  1.00  0.00    -0.058 A 
ATOM     19  C   UNL A   1      30.448  26.589  23.783  1.00  0.00    -0.058 A 
ATOM     20  C   UNL A   1      30.000  28.969  22.416  1.00  0.00    -0.059 A 
ATOM     21  H   UNL A   1      32.087  28.993  22.126  1.00  0.00     0.063 H 
ATOM     22  C   UNL A   1      29.151  27.078  23.647  1.00  0.00    -0.059 A 
ATOM     23  H   UNL A   1      30.607  25.698  24.277  1.00  0.00     0.063 H 
ATOM     24  C   UNL A   1      28.922  28.300  23.008  1.00  0.00    -0.048 A 
ATOM     25  H   UNL A   1      29.832  29.832  21.877  1.00  0.00     0.063 H 
ATOM     26  H   UNL A   1      28.357  26.536  24.020  1.00  0.00     0.063 H 
BRANCH  24  27
ATOM     27  C   UNL A   1      27.546  28.918  23.039  1.00  0.00    -0.023 C 
ATOM     28  H   UNL A   1      27.141  28.777  24.019  1.00  0.00     0.032 H 
ATOM     29  H   UNL A   1      26.981  28.428  22.274  1.00  0.00     0.032 H 
BRANCH  27  30
ATOM     30  C   UNL A   1      27.505  30.422  22.714  1.00  0.00    -0.011 C 
ATOM     31  C   UNL A   1      28.052  31.375  23.791  1.00  0.00    -0.048 C 
ATOM     32  C   UNL A   1      28.247  30.835  21.439  1.00  0.00     0.057 C 
ATOM     33  H   UNL A   1      26.446  30.530  22.616  1.00  0.00     0.033 H 
ATOM     34  C   UNL A   1      28.722  32.529  23.037  1.00  0.00    -0.050 C 
ATOM     35  H   UNL A   1      28.768  30.869  24.406  1.00  0.00     0.027 H 
ATOM     36  H   UNL A   1      27.273  31.727  24.434  1.00  0.00     0.027 H 
ATOM     37  C   UNL A   1      28.331  32.346  21.579  1.00  0.00    -0.027 C 
ATOM     38  H   UNL A   1      29.206  30.372  21.331  1.00  0.00     0.060 H 
ATOM     39  H   UNL A   1      29.785  32.482  23.148  1.00  0.00     0.027 H 
ATOM     40  H   UNL A   1      28.410  33.482  23.413  1.00  0.00     0.027 H 
ATOM     41  H   UNL A   1      29.077  32.753  20.926  1.00  0.00     0.029 H 
ATOM     42  H   UNL A   1      27.424  32.848  21.317  1.00  0.00     0.029 H 
BRANCH  32  43
ATOM     43  O   UNL A   1      27.531  30.449  20.283  1.00  0.00    -0.393 OA
ATOM     44  H   UNL A   1      26.579  30.545  20.445  1.00  0.00     0.210 HD
ENDBRANCH  32  43
ENDBRANCH  27  30
ENDBRANCH  24  27
ENDBRANCH  11  17
ENDBRANCH   8  11
ENDBRANCH   4   7
ENDBRANCH   1   4
BRANCH   1  45
ATOM     45  C   UNL A   1      32.117  29.925  27.081  1.00  0.00    -0.052 C 
ATOM     46  H   UNL A   1      33.143  30.226  27.062  1.00  0.00     0.027 H 
ATOM     47  H   UNL A   1      31.654  30.066  28.036  1.00  0.00     0.027 H 
BRANCH  45  48
ATOM     48  C   UNL A   1      31.344  30.803  26.094  1.00  0.00    -0.052 C 
ATOM     49  H   UNL A   1      30.339  30.438  26.038  1.00  0.00     0.027 H 
ATOM     50  H   UNL A   1      31.864  30.742  25.161  1.00  0.00     0.027 H 
BRANCH  48  51
ATOM     51  C   UNL A   1      31.292  32.284  26.469  1.00  0.00    -0.036 C 
ATOM     52  H   UNL A   1      30.556  32.412  27.234  1.00  0.00     0.028 H 
ATOM     53  H   UNL A   1      31.056  32.821  25.574  1.00  0.00     0.028 H 
BRANCH  51  54
ATOM     54  C   UNL A   1      32.614  32.839  26.978  1.00  0.00     0.018 C 
ATOM     55  H   UNL A   1      33.300  32.903  26.160  1.00  0.00     0.049 H 
ATOM     56  H   UNL A   1      32.980  32.180  27.739  1.00  0.00     0.049 H 
BRANCH  54  57
ATOM     57  N   UNL A   1      32.458  34.160  27.566  1.00  0.00    -0.352 N 
ATOM     58  C   UNL A   1      33.100  34.698  28.650  1.00  0.00     0.251 C 
ATOM     59  H   UNL A   1      31.803  34.747  27.124  1.00  0.00     0.163 HD
ATOM     60  O   UNL A   1      32.705  35.750  29.149  1.00  0.00    -0.269 OA
BRANCH  58  61
ATOM     61  C   UNL A   1      34.264  33.998  29.228  1.00  0.00     0.039 A 
ATOM     62  C   UNL A   1      35.549  34.424  28.890  1.00  0.00    -0.049 A 
ATOM     63  C   UNL A   1      34.085  32.919  30.098  1.00  0.00    -0.049 A 
ATOM     64  C   UNL A   1      36.657  33.788  29.451  1.00  0.00    -0.053 A 
ATOM     65  H   UNL A   1      35.680  35.204  28.227  1.00  0.00     0.063 H 
ATOM     66  C   UNL A   1      35.184  32.345  30.726  1.00  0.00    -0.053 A 
ATOM     67  H   UNL A   1      33.138  32.548  30.273  1.00  0.00     0.063 H 
ATOM     68  C   UNL A   1      36.482  32.756  30.389  1.00  0.00    -0.014 A 
ATOM     69  H   UNL A   1      37.609  34.076  29.177  1.00  0.00     0.063 H 
ATOM     70  H   UNL A   1      35.045  31.616  31.442  1.00  0.00     0.063 H 
BRANCH  68  71
ATOM     71  C   UNL A   1      37.645  32.060  30.992  1.00  0.00     0.031 A 
ATOM     72  C   UNL A   1      38.095  32.424  32.380  1.00  0.00     0.074 A 
ATOM     73  C   UNL A   1      38.325  31.144  30.278  1.00  0.00     0.049 A 
ATOM     74  N   UNL A   1      39.111  31.970  33.070  1.00  0.00    -0.248 NA
ATOM     75  C   UNL A   1      37.318  33.463  33.074  1.00  0.00    -0.034 C 
ATOM     76  C   UNL A   1      38.011  30.735  28.909  1.00  0.00    -0.036 A 
ATOM     77  N   UNL A   1      39.424  30.390  30.607  1.00  0.00    -0.354 N 
ATOM     78  C   UNL A   1      39.105  32.681  34.263  1.00  0.00     0.074 A 
ATOM     79  C   UNL A   1      38.026  33.641  34.178  1.00  0.00    -0.034 C 
ATOM     80  H   UNL A   1      36.447  33.930  32.779  1.00  0.00     0.065 H 
ATOM     81  C   UNL A   1      38.873  29.780  28.527  1.00  0.00    -0.036 A 
ATOM     82  H   UNL A   1      37.248  31.120  28.329  1.00  0.00     0.065 H 
ATOM     83  C   UNL A   1      39.824  29.538  29.608  1.00  0.00     0.049 A 
ATOM     84  H   UNL A   1      39.882  30.456  31.476  1.00  0.00     0.167 HD
ATOM     85  C   UNL A   1      39.909  32.531  35.343  1.00  0.00     0.037 A 
ATOM     86  H   UNL A   1      37.835  34.368  34.885  1.00  0.00     0.065 H 
ATOM     87  H   UNL A   1      38.866  29.295  27.616  1.00  0.00     0.065 H 
ATOM     88  C   UNL A   1      40.845  28.659  29.573  1.00  0.00     0.037 A 
ATOM     89  C   UNL A   1      40.964  31.555  35.430  1.00  0.00     0.049 A 
ATOM     90  C   UNL A   1      41.731  28.517  30.781  1.00  0.00     0.074 A 
ATOM     91  C   UNL A   1      41.795  31.275  36.499  1.00  0.00    -0.036 A 
ATOM     92  N   UNL A   1      41.337  30.703  34.399  1.00  0.00    -0.354 N 
ATOM     93  N   UNL A   1      41.672  29.141  31.933  1.00  0.00    -0.248 NA
ATOM     94  C   UNL A   1      42.821  27.536  30.685  1.00  0.00    -0.034 C 
ATOM     95  C   UNL A   1      42.711  30.297  36.096  1.00  0.00    -0.036 A 
ATOM     96  H   UNL A   1      41.747  31.710  37.434  1.00  0.00     0.065 H 
ATOM     97  C   UNL A   1      42.406  29.916  34.799  1.00  0.00     0.049 A 
ATOM     98  H   UNL A   1      40.906  30.664  33.514  1.00  0.00     0.167 HD
ATOM     99  C   UNL A   1      42.685  28.601  32.713  1.00  0.00     0.074 A 
ATOM    100  C   UNL A   1      43.340  27.594  31.904  1.00  0.00    -0.034 C 
ATOM    101  H   UNL A   1      43.107  26.956  29.881  1.00  0.00     0.065 H 
ATOM    102  H   UNL A   1      43.484  29.923  36.668  1.00  0.00     0.065 H 
ATOM    103  C   UNL A   1      43.038  28.907  33.986  1.00  0.00     0.037 A 
ATOM    104  H   UNL A   1      44.113  26.995  32.234  1.00  0.00     0.065 H 
BRANCH  85 105
ATOM    105  C   UNL A   1      39.685  33.455  36.507  1.00  0.00     0.064 A 
ATOM    106  C   UNL A   1      40.353  34.685  36.620  1.00  0.00     0.173 A 
ATOM    107  C   UNL A   1      38.785  33.107  37.525  1.00  0.00     0.173 A 
ATOM    108  F   UNL A   1      41.234  35.065  35.681  1.00  0.00    -0.203 F 
ATOM    109  C   UNL A   1      40.166  35.506  37.729  1.00  0.00     0.198 A 
ATOM    110  C   UNL A   1      38.569  33.948  38.614  1.00  0.00     0.198 A 
ATOM    111  F   UNL A   1      38.113  31.947  37.469  1.00  0.00    -0.203 F 
ATOM    112  F   UNL A   1      40.870  36.640  37.848  1.00  0.00    -0.200 F 
ATOM    113  C   UNL A   1      39.270  35.141  38.722  1.00  0.00     0.200 A 
ATOM    114  F   UNL A   1      37.692  33.600  39.565  1.00  0.00    -0.200 F 
ATOM    115  F   UNL A   1      39.089  35.931  39.789  1.00  0.00    -0.200 F 
ENDBRANCH  85 105
BRANCH  88 116
ATOM    116  C   UNL A   1      41.051  27.811  28.370  1.00  0.00     0.064 A 
ATOM    117  C   UNL A   1      41.887  28.236  27.328  1.00  0.00     0.173 A 
ATOM    118  C   UNL A   1      40.424  26.564  28.235  1.00  0.00     0.173 A 
ATOM    119  F   UNL A   1      42.493  29.430  27.402  1.00  0.00    -0.203 F 
ATOM    120  C   UNL A   1      42.073  27.457  26.189  1.00  0.00     0.198 A 
ATOM    121  C   UNL A   1      40.635  25.771  27.108  1.00  0.00     0.198 A 
ATOM    122  F   UNL A   1      39.620  26.107  29.205  1.00  0.00    -0.203 F 
ATOM    123  F   UNL A   1      42.842  27.909  25.189  1.00  0.00    -0.200 F 
ATOM    124  C   UNL A   1      41.453  26.222  26.082  1.00  0.00     0.200 A 
ATOM    125  F   UNL A   1      40.046  24.571  27.016  1.00  0.00    -0.200 F 
ATOM    126  F   UNL A   1      41.637  25.469  24.989  1.00  0.00    -0.200 F 
ENDBRANCH  88 116
BRANCH 103 127
ATOM    127  C   UNL A   1      44.144  28.102  34.610  1.00  0.00     0.064 A 
ATOM    128  C   UNL A   1      45.481  28.523  34.578  1.00  0.00     0.173 A 
ATOM    129  C   UNL A   1      43.849  26.904  35.280  1.00  0.00     0.173 A 
ATOM    130  F   UNL A   1      45.819  29.653  33.938  1.00  0.00    -0.203 F 
ATOM    131  C   UNL A   1      46.486  27.758  35.164  1.00  0.00     0.198 A 
ATOM    132  C   UNL A   1      44.851  26.161  35.898  1.00  0.00     0.198 A 
ATOM    133  F   UNL A   1      42.586  26.460  35.349  1.00  0.00    -0.203 F 
ATOM    134  F   UNL A   1      47.765  28.150  35.070  1.00  0.00    -0.200 F 
ATOM    135  C   UNL A   1      46.170  26.582  35.830  1.00  0.00     0.200 A 
ATOM    136  F   UNL A   1      44.540  25.036  36.556  1.00  0.00    -0.200 F 
ATOM    137  F   UNL A   1      47.138  25.852  36.400  1.00  0.00    -0.200 F 
ENDBRANCH 103 127
ENDBRANCH  68  71
ENDBRANCH  58  61
ENDBRANCH  54  57
ENDBRANCH  51  54
ENDBRANCH  48  51
ENDBRANCH  45  48
ENDBRANCH   1  45
TORSDOF 18
ENDMDL
MODEL 3
REMARK VINA RESULT:     -12.1      2.105      7.797
REMARK SMILES C[C@@H](C(=O)NCCCCCCNC(=O)c1ccc(-c2c3nc(c(-c4c(F)c(F)c(F)c(F)c4F)c4ccc([nH]4)c(-c4c(F)c(F)c(F)c(F)c4F)c4nc(c(-c5c(F)c(F)c(F)c(F)c5F)c5ccc2[nH]5)C=C4)C=C3)cc1)c1ccc(C[C@H]2CCC[C@@H]2O)cc1
REMARK SMILES IDX 7 1 6 4 5 7 3 8 4 9 2 11 1 13 78 17 79 18 90 19 80 20 89 22
REMARK SMILES IDX 81 24 82 27 83 30 84 31 87 32 85 34 86 37 88 43 8 45 9 48
REMARK SMILES IDX 10 51 11 54 12 57 13 58 14 60 15 61 16 62 77 63 17 64 76 66
REMARK SMILES IDX 18 68 19 71 20 72 70 73 21 74 75 75 69 76 71 77 22 78 74 79
REMARK SMILES IDX 68 81 67 83 23 85 55 88 35 89 54 90 36 91 39 92 53 93 72 94
REMARK SMILES IDX 37 95 38 97 52 99 73 100 40 103 24 105 25 106 33 107 26 108
REMARK SMILES IDX 27 109 31 110 34 111 28 112 29 113 32 114 30 115 56 116
REMARK SMILES IDX 57 117 65 118 58 119 59 120 63 121 66 122 60 123 61 124
REMARK SMILES IDX 64 125 62 126 41 127 42 128 50 129 43 130 44 131 48 132
REMARK SMILES IDX 51 133 45 134 46 135 49 136 47 137
REMARK H PARENT 7 2 7 3 6 5 6 6 5 10 2 12 1 14 1 15 1 16 79 21 90 23 80 25
REMARK H PARENT 89 26 82 28 82 29 83 33 84 35 84 36 87 38 85 39 85 40 86 41
REMARK H PARENT 86 42 88 44 8 46 8 47 9 49 9 50 10 52 10 53 11 55 11 56 12 59
REMARK H PARENT 16 65 77 67 17 69 76 70 75 80 69 82 71 84 74 86 68 87 36 96
REMARK H PARENT 39 98 72 101 37 102 73 104
REMARK Flexibility Score: inf
ROOT
ATOM      1  C   UNL A   1      33.824  26.260  25.215  1.00  0.00    -0.036 C 
ATOM      2  H   UNL A   1      32.987  26.328  24.552  1.00  0.00     0.028 H 
ATOM      3  H   UNL A   1      34.729  26.622  24.774  1.00  0.00     0.028 H 
ENDROOT
BRANCH   1   4
ATOM      4  C   UNL A   1      34.053  24.783  25.548  1.00  0.00     0.017 C 
ATOM      5  H   UNL A   1      34.002  24.206  24.649  1.00  0.00     0.049 H 
ATOM      6  H   UNL A   1      35.018  24.673  25.999  1.00  0.00     0.049 H 
BRANCH   4   7
ATOM      7  N   UNL A   1      33.045  24.316  26.472  1.00  0.00    -0.356 N 
ATOM      8  C   UNL A   1      31.773  23.885  26.247  1.00  0.00     0.227 C 
ATOM      9  O   UNL A   1      31.084  23.696  27.251  1.00  0.00    -0.274 OA
ATOM     10  H   UNL A   1      33.322  24.308  27.417  1.00  0.00     0.163 HD
BRANCH   8  11
ATOM     11  C   UNL A   1      31.304  23.613  24.809  1.00  0.00     0.060 C 
ATOM     12  H   UNL A   1      30.487  22.937  24.952  1.00  0.00     0.045 H 
BRANCH  11  13
ATOM     13  C   UNL A   1      32.374  22.956  23.929  1.00  0.00    -0.049 C 
ATOM     14  H   UNL A   1      32.516  21.941  24.239  1.00  0.00     0.024 H 
ATOM     15  H   UNL A   1      33.294  23.491  24.027  1.00  0.00     0.024 H 
ATOM     16  H   UNL A   1      32.056  22.975  22.907  1.00  0.00     0.024 H 
ENDBRANCH  11  13
BRANCH  11  17
ATOM     17  C   UNL A   1      30.810  24.855  24.076  1.00  0.00    -0.036 A 
ATOM     18  C   UNL A   1      31.452  25.273  22.903  1.00  0.00    -0.058 A 
ATOM     19  C   UNL A   1      29.795  25.661  24.612  1.00  0.00    -0.058 A 
ATOM     20  C   UNL A   1      31.115  26.490  22.310  1.00  0.00    -0.059 A 
ATOM     21  H   UNL A   1      32.177  24.677  22.474  1.00  0.00     0.063 H 
ATOM     22  C   UNL A   1      29.459  26.874  24.018  1.00  0.00    -0.059 A 
ATOM     23  H   UNL A   1      29.291  25.350  25.457  1.00  0.00     0.063 H 
ATOM     24  C   UNL A   1      30.153  27.324  22.892  1.00  0.00    -0.048 A 
ATOM     25  H   UNL A   1      31.580  26.778  21.435  1.00  0.00     0.063 H 
ATOM     26  H   UNL A   1      28.694  27.443  24.412  1.00  0.00     0.063 H 
BRANCH  24  27
ATOM     27  C   UNL A   1      29.922  28.722  22.374  1.00  0.00    -0.023 C 
ATOM     28  H   UNL A   1      29.428  28.647  21.428  1.00  0.00     0.032 H 
ATOM     29  H   UNL A   1      30.886  29.182  22.313  1.00  0.00     0.032 H 
BRANCH  27  30
ATOM     30  C   UNL A   1      29.070  29.618  23.291  1.00  0.00    -0.011 C 
ATOM     31  C   UNL A   1      29.701  30.950  23.732  1.00  0.00    -0.048 C 
ATOM     32  C   UNL A   1      27.705  30.022  22.724  1.00  0.00     0.057 C 
ATOM     33  H   UNL A   1      28.979  28.949  24.120  1.00  0.00     0.033 H 
ATOM     34  C   UNL A   1      28.551  31.961  23.807  1.00  0.00    -0.050 C 
ATOM     35  H   UNL A   1      30.431  31.271  23.018  1.00  0.00     0.027 H 
ATOM     36  H   UNL A   1      30.199  30.854  24.674  1.00  0.00     0.027 H 
ATOM     37  C   UNL A   1      27.278  31.145  23.656  1.00  0.00    -0.027 C 
ATOM     38  H   UNL A   1      27.738  30.322  21.698  1.00  0.00     0.060 H 
ATOM     39  H   UNL A   1      28.632  32.678  23.016  1.00  0.00     0.027 H 
ATOM     40  H   UNL A   1      28.565  32.508  24.727  1.00  0.00     0.027 H 
ATOM     41  H   UNL A   1      26.494  31.730  23.220  1.00  0.00     0.029 H 
ATOM     42  H   UNL A   1      26.886  30.796  24.588  1.00  0.00     0.029 H 
BRANCH  32  43
ATOM     43  O   UNL A   1      26.799  28.937  22.752  1.00  0.00    -0.393 OA
ATOM     44  H   UNL A   1      26.244  28.959  21.958  1.00  0.00     0.210 HD
ENDBRANCH  32  43
ENDBRANCH  27  30
ENDBRANCH  24  27
ENDBRANCH  11  17
ENDBRANCH   8  11
ENDBRANCH   4   7
ENDBRANCH   1   4
BRANCH   1  45
ATOM     45  C   UNL A   1      33.543  27.137  26.443  1.00  0.00    -0.052 C 
ATOM     46  H   UNL A   1      34.133  28.026  26.359  1.00  0.00     0.027 H 
ATOM     47  H   UNL A   1      33.790  26.546  27.300  1.00  0.00     0.027 H 
BRANCH  45  48
ATOM     48  C   UNL A   1      32.079  27.553  26.615  1.00  0.00    -0.052 C 
ATOM     49  H   UNL A   1      31.828  27.472  27.652  1.00  0.00     0.027 H 
ATOM     50  H   UNL A   1      31.503  26.902  25.992  1.00  0.00     0.027 H 
BRANCH  48  51
ATOM     51  C   UNL A   1      31.769  28.980  26.160  1.00  0.00    -0.036 C 
ATOM     52  H   UNL A   1      31.154  29.444  26.902  1.00  0.00     0.028 H 
ATOM     53  H   UNL A   1      31.282  28.902  25.210  1.00  0.00     0.028 H 
BRANCH  51  54
ATOM     54  C   UNL A   1      33.003  29.845  25.952  1.00  0.00     0.018 C 
ATOM     55  H   UNL A   1      33.298  29.784  24.925  1.00  0.00     0.049 H 
ATOM     56  H   UNL A   1      33.775  29.482  26.598  1.00  0.00     0.049 H 
BRANCH  54  57
ATOM     57  N   UNL A   1      32.753  31.237  26.288  1.00  0.00    -0.352 N 
ATOM     58  C   UNL A   1      33.350  32.007  27.252  1.00  0.00     0.251 C 
ATOM     59  H   UNL A   1      32.062  31.687  25.751  1.00  0.00     0.163 HD
ATOM     60  O   UNL A   1      32.882  33.103  27.552  1.00  0.00    -0.269 OA
BRANCH  58  61
ATOM     61  C   UNL A   1      34.557  31.506  27.940  1.00  0.00     0.039 A 
ATOM     62  C   UNL A   1      35.635  32.370  28.135  1.00  0.00    -0.049 A 
ATOM     63  C   UNL A   1      34.622  30.183  28.386  1.00  0.00    -0.049 A 
ATOM     64  C   UNL A   1      36.769  31.915  28.809  1.00  0.00    -0.053 A 
ATOM     65  H   UNL A   1      35.595  33.339  27.782  1.00  0.00     0.063 H 
ATOM     66  C   UNL A   1      35.713  29.758  29.135  1.00  0.00    -0.053 A 
ATOM     67  H   UNL A   1      33.862  29.522  28.159  1.00  0.00     0.063 H 
ATOM     68  C   UNL A   1      36.809  30.612  29.331  1.00  0.00    -0.014 A 
ATOM     69  H   UNL A   1      37.583  32.539  28.925  1.00  0.00     0.063 H 
ATOM     70  H   UNL A   1      35.717  28.813  29.548  1.00  0.00     0.063 H 
BRANCH  68  71
ATOM     71  C   UNL A   1      38.008  30.105  30.043  1.00  0.00     0.031 A 
ATOM     72  C   UNL A   1      38.284  30.554  31.452  1.00  0.00     0.074 A 
ATOM     73  C   UNL A   1      38.870  29.287  29.411  1.00  0.00     0.049 A 
ATOM     74  N   UNL A   1      39.296  30.266  32.232  1.00  0.00    -0.248 NA
ATOM     75  C   UNL A   1      37.310  31.478  32.053  1.00  0.00    -0.034 C 
ATOM     76  C   UNL A   1      38.732  28.814  28.034  1.00  0.00    -0.036 A 
ATOM     77  N   UNL A   1      40.036  28.709  29.847  1.00  0.00    -0.354 N 
ATOM     78  C   UNL A   1      39.089  30.988  33.400  1.00  0.00     0.074 A 
ATOM     79  C   UNL A   1      37.893  31.777  33.203  1.00  0.00    -0.034 C 
ATOM     80  H   UNL A   1      36.408  31.808  31.677  1.00  0.00     0.065 H 
ATOM     81  C   UNL A   1      39.752  27.990  27.749  1.00  0.00    -0.036 A 
ATOM     82  H   UNL A   1      37.971  29.072  27.385  1.00  0.00     0.065 H 
ATOM     83  C   UNL A   1      40.637  27.908  28.907  1.00  0.00     0.049 A 
ATOM     84  H   UNL A   1      40.407  28.856  30.747  1.00  0.00     0.167 HD
ATOM     85  C   UNL A   1      39.815  30.976  34.543  1.00  0.00     0.037 A 
ATOM     86  H   UNL A   1      37.540  32.480  33.872  1.00  0.00     0.065 H 
ATOM     87  H   UNL A   1      39.890  27.494  26.854  1.00  0.00     0.065 H 
ATOM     88  C   UNL A   1      41.773  27.190  28.978  1.00  0.00     0.037 A 
ATOM     89  C   UNL A   1      40.990  30.169  34.741  1.00  0.00     0.049 A 
ATOM     90  C   UNL A   1      42.569  27.199  30.255  1.00  0.00     0.074 A 
ATOM     91  C   UNL A   1      41.762  30.031  35.880  1.00  0.00    -0.036 A 
ATOM     92  N   UNL A   1      41.566  29.364  33.767  1.00  0.00    -0.354 N 
ATOM     93  N   UNL A   1      42.326  27.827  31.380  1.00  0.00    -0.248 NA
ATOM     94  C   UNL A   1      43.794  26.389  30.273  1.00  0.00    -0.034 C 
ATOM     95  C   UNL A   1      42.841  29.193  35.578  1.00  0.00    -0.036 A 
ATOM     96  H   UNL A   1      41.575  30.470  36.795  1.00  0.00     0.065 H 
ATOM     97  C   UNL A   1      42.702  28.750  34.272  1.00  0.00     0.049 A 
ATOM     98  H   UNL A   1      41.219  29.247  32.853  1.00  0.00     0.167 HD
ATOM     99  C   UNL A   1      43.340  27.455  32.253  1.00  0.00     0.074 A 
ATOM    100  C   UNL A   1      44.198  26.542  31.527  1.00  0.00    -0.034 C 
ATOM    101  H   UNL A   1      44.226  25.843  29.511  1.00  0.00     0.065 H 
ATOM    102  H   UNL A   1      43.611  28.946  36.219  1.00  0.00     0.065 H 
ATOM    103  C   UNL A   1      43.538  27.831  33.540  1.00  0.00     0.037 A 
ATOM    104  H   UNL A   1      45.021  26.070  31.933  1.00  0.00     0.065 H 
BRANCH  85 105
ATOM    105  C   UNL A   1      39.364  31.876  35.660  1.00  0.00     0.064 A 
ATOM    106  C   UNL A   1      38.425  31.459  36.618  1.00  0.00     0.173 A 
ATOM    107  C   UNL A   1      39.880  33.175  35.777  1.00  0.00     0.173 A 
ATOM    108  F   UNL A   1      37.889  30.230  36.550  1.00  0.00    -0.203 F 
ATOM    109  C   UNL A   1      37.986  32.323  37.618  1.00  0.00     0.198 A 
ATOM    110  C   UNL A   1      39.469  34.024  36.802  1.00  0.00     0.198 A 
ATOM    111  F   UNL A   1      40.784  33.627  34.894  1.00  0.00    -0.203 F 
ATOM    112  F   UNL A   1      37.036  31.925  38.476  1.00  0.00    -0.200 F 
ATOM    113  C   UNL A   1      38.513  33.602  37.713  1.00  0.00     0.200 A 
ATOM    114  F   UNL A   1      39.991  35.254  36.900  1.00  0.00    -0.200 F 
ATOM    115  F   UNL A   1      38.091  34.434  38.676  1.00  0.00    -0.200 F 
ENDBRANCH  85 105
BRANCH  88 116
ATOM    116  C   UNL A   1      42.198  26.361  27.819  1.00  0.00     0.064 A 
ATOM    117  C   UNL A   1      43.171  26.827  26.923  1.00  0.00     0.173 A 
ATOM    118  C   UNL A   1      41.649  25.092  27.582  1.00  0.00     0.173 A 
ATOM    119  F   UNL A   1      43.713  28.042  27.097  1.00  0.00    -0.203 F 
ATOM    120  C   UNL A   1      43.565  26.066  25.825  1.00  0.00     0.198 A 
ATOM    121  C   UNL A   1      42.065  24.319  26.500  1.00  0.00     0.198 A 
ATOM    122  F   UNL A   1      40.720  24.597  28.413  1.00  0.00    -0.203 F 
ATOM    123  F   UNL A   1      44.464  26.556  24.961  1.00  0.00    -0.200 F 
ATOM    124  C   UNL A   1      43.016  24.810  25.618  1.00  0.00     0.200 A 
ATOM    125  F   UNL A   1      41.544  23.099  26.313  1.00  0.00    -0.200 F 
ATOM    126  F   UNL A   1      43.398  24.075  24.564  1.00  0.00    -0.200 F 
ENDBRANCH  88 116
BRANCH 103 127
ATOM    127  C   UNL A   1      44.695  27.208  34.272  1.00  0.00     0.064 A 
ATOM    128  C   UNL A   1      44.575  25.990  34.956  1.00  0.00     0.173 A 
ATOM    129  C   UNL A   1      45.954  27.831  34.257  1.00  0.00     0.173 A 
ATOM    130  F   UNL A   1      43.391  25.361  35.014  1.00  0.00    -0.203 F 
ATOM    131  C   UNL A   1      45.663  25.435  35.626  1.00  0.00     0.198 A 
ATOM    132  C   UNL A   1      47.048  27.255  34.895  1.00  0.00     0.198 A 
ATOM    133  F   UNL A   1      46.126  28.993  33.610  1.00  0.00    -0.203 F 
ATOM    134  F   UNL A   1      45.510  24.301  36.322  1.00  0.00    -0.200 F 
ATOM    135  C   UNL A   1      46.899  26.064  35.589  1.00  0.00     0.200 A 
ATOM    136  F   UNL A   1      48.246  27.854  34.841  1.00  0.00    -0.200 F 
ATOM    137  F   UNL A   1      47.947  25.523  36.227  1.00  0.00    -0.200 F 
ENDBRANCH 103 127
ENDBRANCH  68  71
ENDBRANCH  58  61
ENDBRANCH  54  57
ENDBRANCH  51  54
ENDBRANCH  48  51
ENDBRANCH  45  48
ENDBRANCH   1  45
TORSDOF 18
ENDMDL
MODEL 4
REMARK VINA RESULT:     -12.0      0.978      7.441
REMARK SMILES C[C@@H](C(=O)NCCCCCCNC(=O)c1ccc(-c2c3nc(c(-c4c(F)c(F)c(F)c(F)c4F)c4ccc([nH]4)c(-c4c(F)c(F)c(F)c(F)c4F)c4nc(c(-c5c(F)c(F)c(F)c(F)c5F)c5ccc2[nH]5)C=C4)C=C3)cc1)c1ccc(C[C@H]2CCC[C@@H]2O)cc1
REMARK SMILES IDX 7 1 6 4 5 7 3 8 4 9 2 11 1 13 78 17 79 18 90 19 80 20 89 22
REMARK SMILES IDX 81 24 82 27 83 30 84 31 87 32 85 34 86 37 88 43 8 45 9 48
REMARK SMILES IDX 10 51 11 54 12 57 13 58 14 60 15 61 16 62 77 63 17 64 76 66
REMARK SMILES IDX 18 68 19 71 20 72 70 73 21 74 75 75 69 76 71 77 22 78 74 79
REMARK SMILES IDX 68 81 67 83 23 85 55 88 35 89 54 90 36 91 39 92 53 93 72 94
REMARK SMILES IDX 37 95 38 97 52 99 73 100 40 103 24 105 25 106 33 107 26 108
REMARK SMILES IDX 27 109 31 110 34 111 28 112 29 113 32 114 30 115 56 116
REMARK SMILES IDX 57 117 65 118 58 119 59 120 63 121 66 122 60 123 61 124
REMARK SMILES IDX 64 125 62 126 41 127 42 128 50 129 43 130 44 131 48 132
REMARK SMILES IDX 51 133 45 134 46 135 49 136 47 137
REMARK H PARENT 7 2 7 3 6 5 6 6 5 10 2 12 1 14 1 15 1 16 79 21 90 23 80 25
REMARK H PARENT 89 26 82 28 82 29 83 33 84 35 84 36 87 38 85 39 85 40 86 41
REMARK H PARENT 86 42 88 44 8 46 8 47 9 49 9 50 10 52 10 53 11 55 11 56 12 59
REMARK H PARENT 16 65 77 67 17 69 76 70 75 80 69 82 71 84 74 86 68 87 36 96
REMARK H PARENT 39 98 72 101 37 102 73 104
REMARK Flexibility Score: inf
ROOT
ATOM      1  C   UNL A   1      33.470  28.810  25.842  1.00  0.00    -0.036 C 
ATOM      2  H   UNL A   1      33.703  29.286  24.913  1.00  0.00     0.028 H 
ATOM      3  H   UNL A   1      34.116  29.123  26.636  1.00  0.00     0.028 H 
ENDROOT
BRANCH   1   4
ATOM      4  C   UNL A   1      33.673  27.302  25.673  1.00  0.00     0.017 C 
ATOM      5  H   UNL A   1      34.498  26.986  26.277  1.00  0.00     0.049 H 
ATOM      6  H   UNL A   1      32.781  26.795  25.978  1.00  0.00     0.049 H 
BRANCH   4   7
ATOM      7  N   UNL A   1      33.946  26.986  24.290  1.00  0.00    -0.356 N 
ATOM      8  C   UNL A   1      33.278  26.178  23.420  1.00  0.00     0.227 C 
ATOM      9  O   UNL A   1      33.836  25.972  22.342  1.00  0.00    -0.274 OA
ATOM     10  H   UNL A   1      34.744  27.424  23.916  1.00  0.00     0.163 HD
BRANCH   8  11
ATOM     11  C   UNL A   1      31.890  25.635  23.798  1.00  0.00     0.060 C 
ATOM     12  H   UNL A   1      31.999  25.416  24.840  1.00  0.00     0.045 H 
BRANCH  11  13
ATOM     13  C   UNL A   1      31.502  24.362  23.038  1.00  0.00    -0.049 C 
ATOM     14  H   UNL A   1      30.444  24.352  22.875  1.00  0.00     0.024 H 
ATOM     15  H   UNL A   1      31.782  23.504  23.612  1.00  0.00     0.024 H 
ATOM     16  H   UNL A   1      32.008  24.341  22.095  1.00  0.00     0.024 H 
ENDBRANCH  11  13
BRANCH  11  17
ATOM     17  C   UNL A   1      30.761  26.641  23.609  1.00  0.00    -0.036 A 
ATOM     18  C   UNL A   1      29.499  26.384  24.159  1.00  0.00    -0.058 A 
ATOM     19  C   UNL A   1      30.924  27.773  22.795  1.00  0.00    -0.058 A 
ATOM     20  C   UNL A   1      28.418  27.214  23.862  1.00  0.00    -0.059 A 
ATOM     21  H   UNL A   1      29.368  25.576  24.787  1.00  0.00     0.063 H 
ATOM     22  C   UNL A   1      29.844  28.601  22.502  1.00  0.00    -0.059 A 
ATOM     23  H   UNL A   1      31.855  27.993  22.410  1.00  0.00     0.063 H 
ATOM     24  C   UNL A   1      28.570  28.298  22.990  1.00  0.00    -0.048 A 
ATOM     25  H   UNL A   1      27.497  27.026  24.289  1.00  0.00     0.063 H 
ATOM     26  H   UNL A   1      29.986  29.442  21.921  1.00  0.00     0.063 H 
BRANCH  24  27
ATOM     27  C   UNL A   1      27.374  29.082  22.509  1.00  0.00    -0.023 C 
ATOM     28  H   UNL A   1      26.529  28.792  23.097  1.00  0.00     0.032 H 
ATOM     29  H   UNL A   1      27.264  28.853  21.469  1.00  0.00     0.032 H 
BRANCH  27  30
ATOM     30  C   UNL A   1      27.523  30.611  22.603  1.00  0.00    -0.011 C 
ATOM     31  C   UNL A   1      28.227  31.159  23.856  1.00  0.00    -0.048 C 
ATOM     32  C   UNL A   1      28.270  31.267  21.438  1.00  0.00     0.057 C 
ATOM     33  H   UNL A   1      26.484  30.867  22.610  1.00  0.00     0.033 H 
ATOM     34  C   UNL A   1      29.019  32.389  23.395  1.00  0.00    -0.050 C 
ATOM     35  H   UNL A   1      28.889  30.423  24.263  1.00  0.00     0.027 H 
ATOM     36  H   UNL A   1      27.524  31.412  24.622  1.00  0.00     0.027 H 
ATOM     37  C   UNL A   1      28.559  32.661  21.972  1.00  0.00    -0.027 C 
ATOM     38  H   UNL A   1      29.155  30.742  21.145  1.00  0.00     0.060 H 
ATOM     39  H   UNL A   1      30.069  32.187  23.416  1.00  0.00     0.027 H 
ATOM     40  H   UNL A   1      28.849  33.231  24.034  1.00  0.00     0.027 H 
ATOM     41  H   UNL A   1      29.330  33.140  21.403  1.00  0.00     0.029 H 
ATOM     42  H   UNL A   1      27.718  33.319  21.917  1.00  0.00     0.029 H 
BRANCH  32  43
ATOM     43  O   UNL A   1      27.471  31.302  20.273  1.00  0.00    -0.393 OA
ATOM     44  H   UNL A   1      26.535  31.360  20.523  1.00  0.00     0.210 HD
ENDBRANCH  32  43
ENDBRANCH  27  30
ENDBRANCH  24  27
ENDBRANCH  11  17
ENDBRANCH   8  11
ENDBRANCH   4   7
ENDBRANCH   1   4
BRANCH   1  45
ATOM     45  C   UNL A   1      32.043  29.205  26.245  1.00  0.00    -0.052 C 
ATOM     46  H   UNL A   1      32.039  29.409  27.296  1.00  0.00     0.027 H 
ATOM     47  H   UNL A   1      31.414  28.383  25.973  1.00  0.00     0.027 H 
BRANCH  45  48
ATOM     48  C   UNL A   1      31.486  30.433  25.520  1.00  0.00    -0.052 C 
ATOM     49  H   UNL A   1      30.536  30.171  25.101  1.00  0.00     0.027 H 
ATOM     50  H   UNL A   1      32.209  30.704  24.781  1.00  0.00     0.027 H 
BRANCH  48  51
ATOM     51  C   UNL A   1      31.291  31.660  26.411  1.00  0.00    -0.036 C 
ATOM     52  H   UNL A   1      30.642  31.392  27.217  1.00  0.00     0.028 H 
ATOM     53  H   UNL A   1      30.882  32.430  25.790  1.00  0.00     0.028 H 
BRANCH  51  54
ATOM     54  C   UNL A   1      32.583  32.210  26.998  1.00  0.00     0.018 C 
ATOM     55  H   UNL A   1      33.360  32.119  26.268  1.00  0.00     0.049 H 
ATOM     56  H   UNL A   1      32.812  31.647  27.878  1.00  0.00     0.049 H 
BRANCH  54  57
ATOM     57  N   UNL A   1      32.455  33.607  27.378  1.00  0.00    -0.352 N 
ATOM     58  C   UNL A   1      33.142  34.301  28.339  1.00  0.00     0.251 C 
ATOM     59  H   UNL A   1      31.784  34.125  26.877  1.00  0.00     0.163 HD
ATOM     60  O   UNL A   1      32.771  35.421  28.684  1.00  0.00    -0.269 OA
BRANCH  58  61
ATOM     61  C   UNL A   1      34.327  33.688  28.973  1.00  0.00     0.039 A 
ATOM     62  C   UNL A   1      34.145  32.686  29.926  1.00  0.00    -0.049 A 
ATOM     63  C   UNL A   1      35.614  34.108  28.627  1.00  0.00    -0.049 A 
ATOM     64  C   UNL A   1      35.257  32.080  30.512  1.00  0.00    -0.053 A 
ATOM     65  H   UNL A   1      33.193  32.395  30.199  1.00  0.00     0.063 H 
ATOM     66  C   UNL A   1      36.721  33.444  29.143  1.00  0.00    -0.053 A 
ATOM     67  H   UNL A   1      35.743  34.912  27.992  1.00  0.00     0.063 H 
ATOM     68  C   UNL A   1      36.554  32.441  30.110  1.00  0.00    -0.014 A 
ATOM     69  H   UNL A   1      35.128  31.364  31.242  1.00  0.00     0.063 H 
ATOM     70  H   UNL A   1      37.667  33.688  28.813  1.00  0.00     0.063 H 
BRANCH  68  71
ATOM     71  C   UNL A   1      37.751  31.817  30.724  1.00  0.00     0.031 A 
ATOM     72  C   UNL A   1      38.184  32.231  32.104  1.00  0.00     0.074 A 
ATOM     73  C   UNL A   1      38.476  30.921  30.027  1.00  0.00     0.049 A 
ATOM     74  N   UNL A   1      39.222  31.843  32.800  1.00  0.00    -0.248 NA
ATOM     75  C   UNL A   1      37.356  33.243  32.779  1.00  0.00    -0.034 C 
ATOM     76  C   UNL A   1      38.180  30.469  28.668  1.00  0.00    -0.036 A 
ATOM     77  N   UNL A   1      39.611  30.231  30.369  1.00  0.00    -0.354 N 
ATOM     78  C   UNL A   1      39.182  32.576  33.978  1.00  0.00     0.074 A 
ATOM     79  C   UNL A   1      38.057  33.479  33.876  1.00  0.00    -0.034 C 
ATOM     80  H   UNL A   1      36.463  33.661  32.475  1.00  0.00     0.065 H 
ATOM     81  C   UNL A   1      39.089  29.551  28.303  1.00  0.00    -0.036 A 
ATOM     82  H   UNL A   1      37.399  30.804  28.082  1.00  0.00     0.065 H 
ATOM     83  C   UNL A   1      40.052  29.379  29.387  1.00  0.00     0.049 A 
ATOM     84  H   UNL A   1      40.066  30.337  31.235  1.00  0.00     0.167 HD
ATOM     85  C   UNL A   1      39.994  32.489  35.059  1.00  0.00     0.037 A 
ATOM     86  H   UNL A   1      37.830  34.210  34.569  1.00  0.00     0.065 H 
ATOM     87  H   UNL A   1      39.105  29.048  27.402  1.00  0.00     0.065 H 
ATOM     88  C   UNL A   1      41.116  28.552  29.367  1.00  0.00     0.037 A 
ATOM     89  C   UNL A   1      41.096  31.570  35.164  1.00  0.00     0.049 A 
ATOM     90  C   UNL A   1      42.009  28.479  30.576  1.00  0.00     0.074 A 
ATOM     91  C   UNL A   1      41.942  31.353  36.237  1.00  0.00    -0.036 A 
ATOM     92  N   UNL A   1      41.511  30.716  34.150  1.00  0.00    -0.354 N 
ATOM     93  N   UNL A   1      41.921  29.123  31.715  1.00  0.00    -0.248 NA
ATOM     94  C   UNL A   1      43.147  27.553  30.498  1.00  0.00    -0.034 C 
ATOM     95  C   UNL A   1      42.905  30.414  35.852  1.00  0.00    -0.036 A 
ATOM     96  H   UNL A   1      41.873  31.804  37.162  1.00  0.00     0.065 H 
ATOM     97  C   UNL A   1      42.618  29.992  34.563  1.00  0.00     0.049 A 
ATOM     98  H   UNL A   1      41.081  30.638  33.267  1.00  0.00     0.167 HD
ATOM     99  C   UNL A   1      42.961  28.650  32.504  1.00  0.00     0.074 A 
ATOM    100  C   UNL A   1      43.664  27.661  31.714  1.00  0.00    -0.034 C 
ATOM    101  H   UNL A   1      43.460  26.971  29.705  1.00  0.00     0.065 H 
ATOM    102  H   UNL A   1      43.697  30.091  36.429  1.00  0.00     0.065 H 
ATOM    103  C   UNL A   1      43.299  29.000  33.769  1.00  0.00     0.037 A 
ATOM    104  H   UNL A   1      44.467  27.109  32.054  1.00  0.00     0.065 H 
BRANCH  85 105
ATOM    105  C   UNL A   1      39.725  33.424  36.205  1.00  0.00     0.064 A 
ATOM    106  C   UNL A   1      38.883  33.070  37.272  1.00  0.00     0.173 A 
ATOM    107  C   UNL A   1      40.321  34.693  36.240  1.00  0.00     0.173 A 
ATOM    108  F   UNL A   1      38.275  31.873  37.286  1.00  0.00    -0.203 F 
ATOM    109  C   UNL A   1      38.610  33.968  38.302  1.00  0.00     0.198 A 
ATOM    110  C   UNL A   1      40.079  35.574  37.292  1.00  0.00     0.198 A 
ATOM    111  F   UNL A   1      41.141  35.084  35.252  1.00  0.00    -0.203 F 
ATOM    112  F   UNL A   1      37.745  33.632  39.269  1.00  0.00    -0.200 F 
ATOM    113  C   UNL A   1      39.213  35.216  38.314  1.00  0.00     0.200 A 
ATOM    114  F   UNL A   1      40.675  36.774  37.310  1.00  0.00    -0.200 F 
ATOM    115  F   UNL A   1      38.951  36.079  39.305  1.00  0.00    -0.200 F 
ENDBRANCH  85 105
BRANCH  88 116
ATOM    116  C   UNL A   1      41.362  27.691  28.181  1.00  0.00     0.064 A 
ATOM    117  C   UNL A   1      40.770  26.424  28.081  1.00  0.00     0.173 A 
ATOM    118  C   UNL A   1      42.186  28.111  27.127  1.00  0.00     0.173 A 
ATOM    119  F   UNL A   1      39.989  25.970  29.072  1.00  0.00    -0.203 F 
ATOM    120  C   UNL A   1      41.008  25.602  26.982  1.00  0.00     0.198 A 
ATOM    121  C   UNL A   1      42.400  27.300  26.014  1.00  0.00     0.198 A 
ATOM    122  F   UNL A   1      42.771  29.317  27.170  1.00  0.00    -0.203 F 
ATOM    123  F   UNL A   1      40.465  24.378  26.934  1.00  0.00    -0.200 F 
ATOM    124  C   UNL A   1      41.817  26.043  25.946  1.00  0.00     0.200 A 
ATOM    125  F   UNL A   1      43.169  27.737  25.008  1.00  0.00    -0.200 F 
ATOM    126  F   UNL A   1      42.041  25.254  24.886  1.00  0.00    -0.200 F 
ENDBRANCH  88 116
BRANCH 103 127
ATOM    127  C   UNL A   1      44.445  28.264  34.407  1.00  0.00     0.064 A 
ATOM    128  C   UNL A   1      45.762  28.743  34.350  1.00  0.00     0.173 A 
ATOM    129  C   UNL A   1      44.210  27.075  35.116  1.00  0.00     0.173 A 
ATOM    130  F   UNL A   1      46.043  29.867  33.674  1.00  0.00    -0.203 F 
ATOM    131  C   UNL A   1      46.805  28.042  34.950  1.00  0.00     0.198 A 
ATOM    132  C   UNL A   1      45.248  26.396  35.746  1.00  0.00     0.198 A 
ATOM    133  F   UNL A   1      42.967  26.577  35.209  1.00  0.00    -0.203 F 
ATOM    134  F   UNL A   1      48.063  28.487  34.833  1.00  0.00    -0.200 F 
ATOM    135  C   UNL A   1      46.546  26.874  35.653  1.00  0.00     0.200 A 
ATOM    136  F   UNL A   1      44.993  25.279  36.441  1.00  0.00    -0.200 F 
ATOM    137  F   UNL A   1      47.551  26.205  36.237  1.00  0.00    -0.200 F 
ENDBRANCH 103 127
ENDBRANCH  68  71
ENDBRANCH  58  61
ENDBRANCH  54  57
ENDBRANCH  51  54
ENDBRANCH  48  51
ENDBRANCH  45  48
ENDBRANCH   1  45
TORSDOF 18
ENDMDL
MODEL 5
REMARK VINA RESULT:     -11.9      5.533      9.151
REMARK SMILES C[C@@H](C(=O)NCCCCCCNC(=O)c1ccc(-c2c3nc(c(-c4c(F)c(F)c(F)c(F)c4F)c4ccc([nH]4)c(-c4c(F)c(F)c(F)c(F)c4F)c4nc(c(-c5c(F)c(F)c(F)c(F)c5F)c5ccc2[nH]5)C=C4)C=C3)cc1)c1ccc(C[C@H]2CCC[C@@H]2O)cc1
REMARK SMILES IDX 7 1 6 4 5 7 3 8 4 9 2 11 1 13 78 17 79 18 90 19 80 20 89 22
REMARK SMILES IDX 81 24 82 27 83 30 84 31 87 32 85 34 86 37 88 43 8 45 9 48
REMARK SMILES IDX 10 51 11 54 12 57 13 58 14 60 15 61 16 62 77 63 17 64 76 66
REMARK SMILES IDX 18 68 19 71 20 72 70 73 21 74 75 75 69 76 71 77 22 78 74 79
REMARK SMILES IDX 68 81 67 83 23 85 55 88 35 89 54 90 36 91 39 92 53 93 72 94
REMARK SMILES IDX 37 95 38 97 52 99 73 100 40 103 24 105 25 106 33 107 26 108
REMARK SMILES IDX 27 109 31 110 34 111 28 112 29 113 32 114 30 115 56 116
REMARK SMILES IDX 57 117 65 118 58 119 59 120 63 121 66 122 60 123 61 124
REMARK SMILES IDX 64 125 62 126 41 127 42 128 50 129 43 130 44 131 48 132
REMARK SMILES IDX 51 133 45 134 46 135 49 136 47 137
REMARK H PARENT 7 2 7 3 6 5 6 6 5 10 2 12 1 14 1 15 1 16 79 21 90 23 80 25
REMARK H PARENT 89 26 82 28 82 29 83 33 84 35 84 36 87 38 85 39 85 40 86 41
REMARK H PARENT 86 42 88 44 8 46 8 47 9 49 9 50 10 52 10 53 11 55 11 56 12 59
REMARK H PARENT 16 65 77 67 17 69 76 70 75 80 69 82 71 84 74 86 68 87 36 96
REMARK H PARENT 39 98 72 101 37 102 73 104
REMARK Flexibility Score: inf
ROOT
ATOM      1  C   UNL A   1      35.028  24.472  25.329  1.00  0.00    -0.036 C 
ATOM      2  H   UNL A   1      35.880  24.882  25.831  1.00  0.00     0.028 H 
ATOM      3  H   UNL A   1      35.272  24.070  24.368  1.00  0.00     0.028 H 
ENDROOT
BRANCH   1   4
ATOM      4  C   UNL A   1      34.020  25.600  25.095  1.00  0.00     0.017 C 
ATOM      5  H   UNL A   1      33.032  25.237  25.290  1.00  0.00     0.049 H 
ATOM      6  H   UNL A   1      34.247  26.413  25.753  1.00  0.00     0.049 H 
BRANCH   4   7
ATOM      7  N   UNL A   1      34.096  26.064  23.729  1.00  0.00    -0.356 N 
ATOM      8  C   UNL A   1      33.241  25.879  22.684  1.00  0.00     0.227 C 
ATOM      9  O   UNL A   1      33.646  26.260  21.585  1.00  0.00    -0.274 OA
ATOM     10  H   UNL A   1      34.895  26.599  23.518  1.00  0.00     0.163 HD
BRANCH   8  11
ATOM     11  C   UNL A   1      31.848  25.281  22.937  1.00  0.00     0.060 C 
ATOM     12  H   UNL A   1      31.379  25.364  21.979  1.00  0.00     0.045 H 
BRANCH  11  13
ATOM     13  C   UNL A   1      31.031  26.048  23.983  1.00  0.00    -0.049 C 
ATOM     14  H   UNL A   1      30.042  25.643  24.032  1.00  0.00     0.024 H 
ATOM     15  H   UNL A   1      30.980  27.080  23.708  1.00  0.00     0.024 H 
ATOM     16  H   UNL A   1      31.501  25.956  24.940  1.00  0.00     0.024 H 
ENDBRANCH  11  13
BRANCH  11  17
ATOM     17  C   UNL A   1      31.873  23.817  23.362  1.00  0.00    -0.036 A 
ATOM     18  C   UNL A   1      31.169  23.410  24.502  1.00  0.00    -0.058 A 
ATOM     19  C   UNL A   1      32.682  22.881  22.700  1.00  0.00    -0.058 A 
ATOM     20  C   UNL A   1      31.310  22.112  24.993  1.00  0.00    -0.059 A 
ATOM     21  H   UNL A   1      30.542  24.074  24.983  1.00  0.00     0.063 H 
ATOM     22  C   UNL A   1      32.820  21.585  23.189  1.00  0.00    -0.059 A 
ATOM     23  H   UNL A   1      33.181  23.157  21.840  1.00  0.00     0.063 H 
ATOM     24  C   UNL A   1      32.177  21.206  24.370  1.00  0.00    -0.048 A 
ATOM     25  H   UNL A   1      30.771  21.817  25.822  1.00  0.00     0.063 H 
ATOM     26  H   UNL A   1      33.400  20.903  22.678  1.00  0.00     0.063 H 
BRANCH  24  27
ATOM     27  C   UNL A   1      32.486  19.870  24.999  1.00  0.00    -0.023 C 
ATOM     28  H   UNL A   1      31.560  19.373  25.197  1.00  0.00     0.032 H 
ATOM     29  H   UNL A   1      33.051  20.079  25.884  1.00  0.00     0.032 H 
BRANCH  27  30
ATOM     30  C   UNL A   1      33.358  18.936  24.139  1.00  0.00    -0.011 C 
ATOM     31  C   UNL A   1      34.611  18.350  24.812  1.00  0.00    -0.048 C 
ATOM     32  C   UNL A   1      32.635  17.713  23.567  1.00  0.00     0.057 C 
ATOM     33  H   UNL A   1      33.629  19.637  23.378  1.00  0.00     0.033 H 
ATOM     34  C   UNL A   1      34.777  16.936  24.242  1.00  0.00    -0.050 C 
ATOM     35  H   UNL A   1      34.479  18.309  25.874  1.00  0.00     0.027 H 
ATOM     36  H   UNL A   1      35.475  18.952  24.623  1.00  0.00     0.027 H 
ATOM     37  C   UNL A   1      33.785  16.839  23.094  1.00  0.00    -0.027 C 
ATOM     38  H   UNL A   1      32.000  17.220  24.272  1.00  0.00     0.060 H 
ATOM     39  H   UNL A   1      34.556  16.203  24.990  1.00  0.00     0.027 H 
ATOM     40  H   UNL A   1      35.780  16.757  23.915  1.00  0.00     0.027 H 
ATOM     41  H   UNL A   1      33.465  15.828  22.946  1.00  0.00     0.029 H 
ATOM     42  H   UNL A   1      34.193  17.147  22.155  1.00  0.00     0.029 H 
BRANCH  32  43
ATOM     43  O   UNL A   1      31.777  18.078  22.504  1.00  0.00    -0.393 OA
ATOM     44  H   UNL A   1      30.855  18.031  22.802  1.00  0.00     0.210 HD
ENDBRANCH  32  43
ENDBRANCH  27  30
ENDBRANCH  24  27
ENDBRANCH  11  17
ENDBRANCH   8  11
ENDBRANCH   4   7
ENDBRANCH   1   4
BRANCH   1  45
ATOM     45  C   UNL A   1      34.480  23.312  26.172  1.00  0.00    -0.052 C 
ATOM     46  H   UNL A   1      33.556  22.993  25.737  1.00  0.00     0.027 H 
ATOM     47  H   UNL A   1      34.370  23.689  27.168  1.00  0.00     0.027 H 
BRANCH  45  48
ATOM     48  C   UNL A   1      35.405  22.096  26.272  1.00  0.00    -0.052 C 
ATOM     49  H   UNL A   1      34.819  21.255  26.580  1.00  0.00     0.027 H 
ATOM     50  H   UNL A   1      36.170  22.353  26.974  1.00  0.00     0.027 H 
BRANCH  48  51
ATOM     51  C   UNL A   1      36.114  21.731  24.968  1.00  0.00    -0.036 C 
ATOM     52  H   UNL A   1      35.695  22.321  24.180  1.00  0.00     0.028 H 
ATOM     53  H   UNL A   1      35.968  20.681  24.820  1.00  0.00     0.028 H 
BRANCH  51  54
ATOM     54  C   UNL A   1      37.617  21.965  24.994  1.00  0.00     0.018 C 
ATOM     55  H   UNL A   1      37.811  22.917  25.444  1.00  0.00     0.049 H 
ATOM     56  H   UNL A   1      37.974  21.935  23.985  1.00  0.00     0.049 H 
BRANCH  54  57
ATOM     57  N   UNL A   1      38.314  20.937  25.749  1.00  0.00    -0.352 N 
ATOM     58  C   UNL A   1      39.455  21.048  26.499  1.00  0.00     0.251 C 
ATOM     59  H   UNL A   1      37.912  20.039  25.716  1.00  0.00     0.163 HD
ATOM     60  O   UNL A   1      40.035  20.043  26.904  1.00  0.00    -0.269 OA
BRANCH  58  61
ATOM     61  C   UNL A   1      39.994  22.387  26.810  1.00  0.00     0.039 A 
ATOM     62  C   UNL A   1      41.056  22.499  27.708  1.00  0.00    -0.049 A 
ATOM     63  C   UNL A   1      39.445  23.529  26.220  1.00  0.00    -0.049 A 
ATOM     64  C   UNL A   1      41.592  23.757  27.989  1.00  0.00    -0.053 A 
ATOM     65  H   UNL A   1      41.443  21.657  28.163  1.00  0.00     0.063 H 
ATOM     66  C   UNL A   1      40.036  24.769  26.430  1.00  0.00    -0.053 A 
ATOM     67  H   UNL A   1      38.602  23.451  25.630  1.00  0.00     0.063 H 
ATOM     68  C   UNL A   1      41.099  24.899  27.337  1.00  0.00    -0.014 A 
ATOM     69  H   UNL A   1      42.354  23.849  28.678  1.00  0.00     0.063 H 
ATOM     70  H   UNL A   1      39.693  25.596  25.917  1.00  0.00     0.063 H 
BRANCH  68  71
ATOM     71  C   UNL A   1      41.647  26.247  27.626  1.00  0.00     0.031 A 
ATOM     72  C   UNL A   1      43.027  26.609  27.149  1.00  0.00     0.074 A 
ATOM     73  C   UNL A   1      40.932  27.122  28.357  1.00  0.00     0.049 A 
ATOM     74  N   UNL A   1      43.707  27.713  27.334  1.00  0.00    -0.248 NA
ATOM     75  C   UNL A   1      43.754  25.580  26.389  1.00  0.00    -0.034 C 
ATOM     76  C   UNL A   1      39.600  26.872  28.909  1.00  0.00    -0.036 A 
ATOM     77  N   UNL A   1      41.227  28.399  28.762  1.00  0.00    -0.354 N 
ATOM     78  C   UNL A   1      44.941  27.500  26.735  1.00  0.00     0.074 A 
ATOM     79  C   UNL A   1      44.943  26.141  26.239  1.00  0.00    -0.034 C 
ATOM     80  H   UNL A   1      43.424  24.659  26.060  1.00  0.00     0.065 H 
ATOM     81  C   UNL A   1      39.178  27.973  29.550  1.00  0.00    -0.036 A 
ATOM     82  H   UNL A   1      39.071  25.990  28.821  1.00  0.00     0.065 H 
ATOM     83  C   UNL A   1      40.223  28.991  29.488  1.00  0.00     0.049 A 
ATOM     84  H   UNL A   1      42.077  28.848  28.552  1.00  0.00     0.167 HD
ATOM     85  C   UNL A   1      45.973  28.366  26.590  1.00  0.00     0.037 A 
ATOM     86  H   UNL A   1      45.762  25.673  25.822  1.00  0.00     0.065 H 
ATOM     87  H   UNL A   1      38.262  28.084  30.012  1.00  0.00     0.065 H 
ATOM     88  C   UNL A   1      40.157  30.218  30.039  1.00  0.00     0.037 A 
ATOM     89  C   UNL A   1      45.954  29.724  27.064  1.00  0.00     0.049 A 
ATOM     90  C   UNL A   1      41.319  31.160  29.873  1.00  0.00     0.074 A 
ATOM     91  C   UNL A   1      46.918  30.706  26.913  1.00  0.00    -0.036 A 
ATOM     92  N   UNL A   1      44.916  30.292  27.791  1.00  0.00    -0.354 N 
ATOM     93  N   UNL A   1      42.454  30.976  29.241  1.00  0.00    -0.248 NA
ATOM     94  C   UNL A   1      41.184  32.486  30.489  1.00  0.00    -0.034 C 
ATOM     95  C   UNL A   1      46.491  31.847  27.601  1.00  0.00    -0.036 A 
ATOM     96  H   UNL A   1      47.798  30.613  26.383  1.00  0.00     0.065 H 
ATOM     97  C   UNL A   1      45.230  31.602  28.120  1.00  0.00     0.049 A 
ATOM     98  H   UNL A   1      44.081  29.832  28.037  1.00  0.00     0.167 HD
ATOM     99  C   UNL A   1      43.148  32.173  29.345  1.00  0.00     0.074 A 
ATOM    100  C   UNL A   1      42.304  33.079  30.097  1.00  0.00    -0.034 C 
ATOM    101  H   UNL A   1      40.419  32.859  31.073  1.00  0.00     0.065 H 
ATOM    102  H   UNL A   1      47.026  32.723  27.705  1.00  0.00     0.065 H 
ATOM    103  C   UNL A   1      44.372  32.496  28.858  1.00  0.00     0.037 A 
ATOM    104  H   UNL A   1      42.543  34.062  30.302  1.00  0.00     0.065 H 
BRANCH  85 105
ATOM    105  C   UNL A   1      47.211  27.860  25.902  1.00  0.00     0.064 A 
ATOM    106  C   UNL A   1      47.319  27.819  24.502  1.00  0.00     0.173 A 
ATOM    107  C   UNL A   1      48.307  27.413  26.654  1.00  0.00     0.173 A 
ATOM    108  F   UNL A   1      46.297  28.223  23.732  1.00  0.00    -0.203 F 
ATOM    109  C   UNL A   1      48.457  27.304  23.885  1.00  0.00     0.198 A 
ATOM    110  C   UNL A   1      49.459  26.936  26.033  1.00  0.00     0.198 A 
ATOM    111  F   UNL A   1      48.263  27.435  27.995  1.00  0.00    -0.203 F 
ATOM    112  F   UNL A   1      48.506  27.208  22.548  1.00  0.00    -0.200 F 
ATOM    113  C   UNL A   1      49.528  26.869  24.650  1.00  0.00     0.200 A 
ATOM    114  F   UNL A   1      50.499  26.531  26.775  1.00  0.00    -0.200 F 
ATOM    115  F   UNL A   1      50.622  26.375  24.055  1.00  0.00    -0.200 F 
ENDBRANCH  85 105
BRANCH  88 116
ATOM    116  C   UNL A   1      38.926  30.642  30.757  1.00  0.00     0.064 A 
ATOM    117  C   UNL A   1      37.849  31.207  30.059  1.00  0.00     0.173 A 
ATOM    118  C   UNL A   1      38.797  30.492  32.145  1.00  0.00     0.173 A 
ATOM    119  F   UNL A   1      37.933  31.389  28.732  1.00  0.00    -0.203 F 
ATOM    120  C   UNL A   1      36.698  31.624  30.723  1.00  0.00     0.198 A 
ATOM    121  C   UNL A   1      37.632  30.882  32.805  1.00  0.00     0.198 A 
ATOM    122  F   UNL A   1      39.794  29.952  32.858  1.00  0.00    -0.203 F 
ATOM    123  F   UNL A   1      35.703  32.202  30.036  1.00  0.00    -0.200 F 
ATOM    124  C   UNL A   1      36.588  31.455  32.094  1.00  0.00     0.200 A 
ATOM    125  F   UNL A   1      37.523  30.703  34.128  1.00  0.00    -0.200 F 
ATOM    126  F   UNL A   1      35.478  31.851  32.733  1.00  0.00    -0.200 F 
ENDBRANCH  88 116
BRANCH 103 127
ATOM    127  C   UNL A   1      44.849  33.906  29.066  1.00  0.00     0.064 A 
ATOM    128  C   UNL A   1      44.560  34.932  28.155  1.00  0.00     0.173 A 
ATOM    129  C   UNL A   1      45.582  34.238  30.217  1.00  0.00     0.173 A 
ATOM    130  F   UNL A   1      43.875  34.667  27.032  1.00  0.00    -0.203 F 
ATOM    131  C   UNL A   1      45.015  36.231  28.372  1.00  0.00     0.198 A 
ATOM    132  C   UNL A   1      46.003  35.544  30.449  1.00  0.00     0.198 A 
ATOM    133  F   UNL A   1      45.879  33.296  31.125  1.00  0.00    -0.203 F 
ATOM    134  F   UNL A   1      44.777  37.183  27.460  1.00  0.00    -0.200 F 
ATOM    135  C   UNL A   1      45.729  36.537  29.522  1.00  0.00     0.200 A 
ATOM    136  F   UNL A   1      46.676  35.840  31.570  1.00  0.00    -0.200 F 
ATOM    137  F   UNL A   1      46.159  37.789  29.733  1.00  0.00    -0.200 F 
ENDBRANCH 103 127
ENDBRANCH  68  71
ENDBRANCH  58  61
ENDBRANCH  54  57
ENDBRANCH  51  54
ENDBRANCH  48  51
ENDBRANCH  45  48
ENDBRANCH   1  45
TORSDOF 18
ENDMDL
MODEL 6
REMARK VINA RESULT:     -11.9      4.373     11.260
REMARK SMILES C[C@@H](C(=O)NCCCCCCNC(=O)c1ccc(-c2c3nc(c(-c4c(F)c(F)c(F)c(F)c4F)c4ccc([nH]4)c(-c4c(F)c(F)c(F)c(F)c4F)c4nc(c(-c5c(F)c(F)c(F)c(F)c5F)c5ccc2[nH]5)C=C4)C=C3)cc1)c1ccc(C[C@H]2CCC[C@@H]2O)cc1
REMARK SMILES IDX 7 1 6 4 5 7 3 8 4 9 2 11 1 13 78 17 79 18 90 19 80 20 89 22
REMARK SMILES IDX 81 24 82 27 83 30 84 31 87 32 85 34 86 37 88 43 8 45 9 48
REMARK SMILES IDX 10 51 11 54 12 57 13 58 14 60 15 61 16 62 77 63 17 64 76 66
REMARK SMILES IDX 18 68 19 71 20 72 70 73 21 74 75 75 69 76 71 77 22 78 74 79
REMARK SMILES IDX 68 81 67 83 23 85 55 88 35 89 54 90 36 91 39 92 53 93 72 94
REMARK SMILES IDX 37 95 38 97 52 99 73 100 40 103 24 105 25 106 33 107 26 108
REMARK SMILES IDX 27 109 31 110 34 111 28 112 29 113 32 114 30 115 56 116
REMARK SMILES IDX 57 117 65 118 58 119 59 120 63 121 66 122 60 123 61 124
REMARK SMILES IDX 64 125 62 126 41 127 42 128 50 129 43 130 44 131 48 132
REMARK SMILES IDX 51 133 45 134 46 135 49 136 47 137
REMARK H PARENT 7 2 7 3 6 5 6 6 5 10 2 12 1 14 1 15 1 16 79 21 90 23 80 25
REMARK H PARENT 89 26 82 28 82 29 83 33 84 35 84 36 87 38 85 39 85 40 86 41
REMARK H PARENT 86 42 88 44 8 46 8 47 9 49 9 50 10 52 10 53 11 55 11 56 12 59
REMARK H PARENT 16 65 77 67 17 69 76 70 75 80 69 82 71 84 74 86 68 87 36 96
REMARK H PARENT 39 98 72 101 37 102 73 104
REMARK Flexibility Score: inf
ROOT
ATOM      1  C   UNL A   1      38.401  34.122  30.267  1.00  0.00    -0.036 C 
ATOM      2  H   UNL A   1      39.427  33.829  30.188  1.00  0.00     0.028 H 
ATOM      3  H   UNL A   1      38.196  35.040  29.757  1.00  0.00     0.028 H 
ENDROOT
BRANCH   1   4
ATOM      4  C   UNL A   1      38.081  34.355  31.746  1.00  0.00     0.017 C 
ATOM      5  H   UNL A   1      38.672  33.694  32.344  1.00  0.00     0.049 H 
ATOM      6  H   UNL A   1      38.304  35.372  31.995  1.00  0.00     0.049 H 
BRANCH   4   7
ATOM      7  N   UNL A   1      36.681  34.105  32.000  1.00  0.00    -0.356 N 
ATOM      8  C   UNL A   1      36.080  33.339  32.954  1.00  0.00     0.227 C 
ATOM      9  O   UNL A   1      34.864  33.185  32.830  1.00  0.00    -0.274 OA
ATOM     10  H   UNL A   1      36.061  34.560  31.385  1.00  0.00     0.163 HD
BRANCH   8  11
ATOM     11  C   UNL A   1      36.912  32.780  34.118  1.00  0.00     0.060 C 
ATOM     12  H   UNL A   1      36.165  32.381  34.771  1.00  0.00     0.045 H 
BRANCH  11  13
ATOM     13  C   UNL A   1      37.730  33.847  34.855  1.00  0.00    -0.049 C 
ATOM     14  H   UNL A   1      37.074  34.457  35.441  1.00  0.00     0.024 H 
ATOM     15  H   UNL A   1      38.244  34.457  34.143  1.00  0.00     0.024 H 
ATOM     16  H   UNL A   1      38.441  33.370  35.497  1.00  0.00     0.024 H 
ENDBRANCH  11  13
BRANCH  11  17
ATOM     17  C   UNL A   1      37.873  31.669  33.712  1.00  0.00    -0.036 A 
ATOM     18  C   UNL A   1      37.378  30.506  33.107  1.00  0.00    -0.058 A 
ATOM     19  C   UNL A   1      39.237  31.732  34.035  1.00  0.00    -0.058 A 
ATOM     20  C   UNL A   1      38.220  29.418  32.875  1.00  0.00    -0.059 A 
ATOM     21  H   UNL A   1      36.385  30.454  32.831  1.00  0.00     0.063 H 
ATOM     22  C   UNL A   1      40.076  30.646  33.801  1.00  0.00    -0.059 A 
ATOM     23  H   UNL A   1      39.622  32.594  34.450  1.00  0.00     0.063 H 
ATOM     24  C   UNL A   1      39.563  29.461  33.268  1.00  0.00    -0.048 A 
ATOM     25  H   UNL A   1      37.849  28.575  32.411  1.00  0.00     0.063 H 
ATOM     26  H   UNL A   1      41.081  30.718  34.022  1.00  0.00     0.063 H 
BRANCH  24  27
ATOM     27  C   UNL A   1      40.431  28.228  33.202  1.00  0.00    -0.023 C 
ATOM     28  H   UNL A   1      40.348  27.816  32.218  1.00  0.00     0.032 H 
ATOM     29  H   UNL A   1      40.074  27.570  33.967  1.00  0.00     0.032 H 
BRANCH  27  30
ATOM     30  C   UNL A   1      41.922  28.470  33.498  1.00  0.00    -0.011 C 
ATOM     31  C   UNL A   1      42.308  28.667  34.974  1.00  0.00    -0.048 C 
ATOM     32  C   UNL A   1      42.871  27.374  33.007  1.00  0.00     0.057 C 
ATOM     33  H   UNL A   1      42.042  29.381  32.951  1.00  0.00     0.033 H 
ATOM     34  C   UNL A   1      43.691  28.024  35.141  1.00  0.00    -0.050 C 
ATOM     35  H   UNL A   1      41.596  28.186  35.613  1.00  0.00     0.027 H 
ATOM     36  H   UNL A   1      42.324  29.703  35.240  1.00  0.00     0.027 H 
ATOM     37  C   UNL A   1      44.166  27.705  33.732  1.00  0.00    -0.027 C 
ATOM     38  H   UNL A   1      42.523  26.382  33.208  1.00  0.00     0.060 H 
ATOM     39  H   UNL A   1      43.619  27.129  35.723  1.00  0.00     0.027 H 
ATOM     40  H   UNL A   1      44.371  28.676  35.650  1.00  0.00     0.027 H 
ATOM     41  H   UNL A   1      44.833  26.868  33.731  1.00  0.00     0.029 H 
ATOM     42  H   UNL A   1      44.713  28.504  33.279  1.00  0.00     0.029 H 
BRANCH  32  43
ATOM     43  O   UNL A   1      43.025  27.422  31.602  1.00  0.00    -0.393 OA
ATOM     44  H   UNL A   1      43.302  28.313  31.337  1.00  0.00     0.210 HD
ENDBRANCH  32  43
ENDBRANCH  27  30
ENDBRANCH  24  27
ENDBRANCH  11  17
ENDBRANCH   8  11
ENDBRANCH   4   7
ENDBRANCH   1   4
BRANCH   1  45
ATOM     45  C   UNL A   1      37.535  33.041  29.606  1.00  0.00    -0.052 C 
ATOM     46  H   UNL A   1      36.830  32.691  30.331  1.00  0.00     0.027 H 
ATOM     47  H   UNL A   1      38.208  32.279  29.270  1.00  0.00     0.027 H 
BRANCH  45  48
ATOM     48  C   UNL A   1      36.758  33.504  28.371  1.00  0.00    -0.052 C 
ATOM     49  H   UNL A   1      37.017  32.864  27.554  1.00  0.00     0.027 H 
ATOM     50  H   UNL A   1      37.030  34.525  28.206  1.00  0.00     0.027 H 
BRANCH  48  51
ATOM     51  C   UNL A   1      35.238  33.478  28.533  1.00  0.00    -0.036 C 
ATOM     52  H   UNL A   1      34.797  33.407  27.562  1.00  0.00     0.028 H 
ATOM     53  H   UNL A   1      34.966  34.378  29.045  1.00  0.00     0.028 H 
BRANCH  51  54
ATOM     54  C   UNL A   1      34.725  32.321  29.378  1.00  0.00     0.018 C 
ATOM     55  H   UNL A   1      34.010  32.696  30.079  1.00  0.00     0.049 H 
ATOM     56  H   UNL A   1      35.563  31.880  29.878  1.00  0.00     0.049 H 
BRANCH  54  57
ATOM     57  N   UNL A   1      34.095  31.293  28.566  1.00  0.00    -0.352 N 
ATOM     58  C   UNL A   1      34.675  30.233  27.920  1.00  0.00     0.251 C 
ATOM     59  H   UNL A   1      33.118  31.369  28.466  1.00  0.00     0.163 HD
ATOM     60  O   UNL A   1      34.036  29.575  27.102  1.00  0.00    -0.269 OA
BRANCH  58  61
ATOM     61  C   UNL A   1      36.084  29.892  28.203  1.00  0.00     0.039 A 
ATOM     62  C   UNL A   1      36.412  29.328  29.436  1.00  0.00    -0.049 A 
ATOM     63  C   UNL A   1      37.079  30.136  27.251  1.00  0.00    -0.049 A 
ATOM     64  C   UNL A   1      37.735  28.976  29.704  1.00  0.00    -0.053 A 
ATOM     65  H   UNL A   1      35.680  29.173  30.147  1.00  0.00     0.063 H 
ATOM     66  C   UNL A   1      38.379  29.703  27.483  1.00  0.00    -0.053 A 
ATOM     67  H   UNL A   1      36.849  30.637  26.379  1.00  0.00     0.063 H 
ATOM     68  C   UNL A   1      38.726  29.143  28.721  1.00  0.00    -0.014 A 
ATOM     69  H   UNL A   1      37.989  28.591  30.627  1.00  0.00     0.063 H 
ATOM     70  H   UNL A   1      39.091  29.794  26.742  1.00  0.00     0.063 H 
BRANCH  68  71
ATOM     71  C   UNL A   1      40.140  28.784  28.987  1.00  0.00     0.031 A 
ATOM     72  C   UNL A   1      41.027  29.743  29.732  1.00  0.00     0.074 A 
ATOM     73  C   UNL A   1      40.640  27.626  28.517  1.00  0.00     0.049 A 
ATOM     74  N   UNL A   1      42.298  29.642  30.027  1.00  0.00    -0.248 NA
ATOM     75  C   UNL A   1      40.409  31.003  30.177  1.00  0.00    -0.034 C 
ATOM     76  C   UNL A   1      39.892  26.632  27.747  1.00  0.00    -0.036 A 
ATOM     77  N   UNL A   1      41.899  27.089  28.618  1.00  0.00    -0.354 N 
ATOM     78  C   UNL A   1      42.633  30.827  30.668  1.00  0.00     0.074 A 
ATOM     79  C   UNL A   1      41.450  31.660  30.662  1.00  0.00    -0.034 C 
ATOM     80  H   UNL A   1      39.422  31.297  30.124  1.00  0.00     0.065 H 
ATOM     81  C   UNL A   1      40.694  25.591  27.476  1.00  0.00    -0.036 A 
ATOM     82  H   UNL A   1      38.904  26.719  27.458  1.00  0.00     0.065 H 
ATOM     83  C   UNL A   1      42.023  25.861  28.018  1.00  0.00     0.049 A 
ATOM     84  H   UNL A   1      42.643  27.542  29.077  1.00  0.00     0.167 HD
ATOM     85  C   UNL A   1      43.812  31.181  31.234  1.00  0.00     0.037 A 
ATOM     86  H   UNL A   1      41.423  32.637  30.994  1.00  0.00     0.065 H 
ATOM     87  H   UNL A   1      40.417  24.737  26.967  1.00  0.00     0.065 H 
ATOM     88  C   UNL A   1      43.090  25.046  27.920  1.00  0.00     0.037 A 
ATOM     89  C   UNL A   1      44.977  30.337  31.259  1.00  0.00     0.049 A 
ATOM     90  C   UNL A   1      44.392  25.464  28.548  1.00  0.00     0.074 A 
ATOM     91  C   UNL A   1      46.200  30.570  31.861  1.00  0.00    -0.036 A 
ATOM     92  N   UNL A   1      45.063  29.094  30.645  1.00  0.00    -0.354 N 
ATOM     93  N   UNL A   1      44.679  26.555  29.217  1.00  0.00    -0.248 NA
ATOM     94  C   UNL A   1      45.518  24.529  28.415  1.00  0.00    -0.034 C 
ATOM     95  C   UNL A   1      47.047  29.497  31.559  1.00  0.00    -0.036 A 
ATOM     96  H   UNL A   1      46.446  31.391  32.434  1.00  0.00     0.065 H 
ATOM     97  C   UNL A   1      46.330  28.562  30.830  1.00  0.00     0.049 A 
ATOM     98  H   UNL A   1      44.332  28.656  30.151  1.00  0.00     0.167 HD
ATOM     99  C   UNL A   1      46.000  26.419  29.621  1.00  0.00     0.074 A 
ATOM    100  C   UNL A   1      46.457  25.137  29.126  1.00  0.00    -0.034 C 
ATOM    101  H   UNL A   1      45.565  23.634  27.902  1.00  0.00     0.065 H 
ATOM    102  H   UNL A   1      48.039  29.416  31.833  1.00  0.00     0.065 H 
ATOM    103  C   UNL A   1      46.764  27.276  30.342  1.00  0.00     0.037 A 
ATOM    104  H   UNL A   1      47.395  24.745  29.305  1.00  0.00     0.065 H 
BRANCH  85 105
ATOM    105  C   UNL A   1      43.899  32.547  31.858  1.00  0.00     0.064 A 
ATOM    106  C   UNL A   1      43.602  32.765  33.213  1.00  0.00     0.173 A 
ATOM    107  C   UNL A   1      44.289  33.653  31.090  1.00  0.00     0.173 A 
ATOM    108  F   UNL A   1      43.212  31.745  33.993  1.00  0.00    -0.203 F 
ATOM    109  C   UNL A   1      43.644  34.045  33.761  1.00  0.00     0.198 A 
ATOM    110  C   UNL A   1      44.370  34.926  31.650  1.00  0.00     0.198 A 
ATOM    111  F   UNL A   1      44.591  33.505  29.791  1.00  0.00    -0.203 F 
ATOM    112  F   UNL A   1      43.285  34.238  35.038  1.00  0.00    -0.200 F 
ATOM    113  C   UNL A   1      44.034  35.123  32.981  1.00  0.00     0.200 A 
ATOM    114  F   UNL A   1      44.761  35.964  30.899  1.00  0.00    -0.200 F 
ATOM    115  F   UNL A   1      44.075  36.354  33.509  1.00  0.00    -0.200 F 
ENDBRANCH  85 105
BRANCH  88 116
ATOM    116  C   UNL A   1      42.957  23.729  27.241  1.00  0.00     0.064 A 
ATOM    117  C   UNL A   1      42.401  22.631  27.912  1.00  0.00     0.173 A 
ATOM    118  C   UNL A   1      43.376  23.541  25.916  1.00  0.00     0.173 A 
ATOM    119  F   UNL A   1      42.003  22.757  29.187  1.00  0.00    -0.203 F 
ATOM    120  C   UNL A   1      42.287  21.389  27.291  1.00  0.00     0.198 A 
ATOM    121  C   UNL A   1      43.235  22.305  25.286  1.00  0.00     0.198 A 
ATOM    122  F   UNL A   1      43.908  24.560  25.228  1.00  0.00    -0.203 F 
ATOM    123  F   UNL A   1      41.794  20.346  27.972  1.00  0.00    -0.200 F 
ATOM    124  C   UNL A   1      42.698  21.229  25.977  1.00  0.00     0.200 A 
ATOM    125  F   UNL A   1      43.618  22.159  24.011  1.00  0.00    -0.200 F 
ATOM    126  F   UNL A   1      42.583  20.035  25.378  1.00  0.00    -0.200 F 
ENDBRANCH  88 116
BRANCH 103 127
ATOM    127  C   UNL A   1      48.157  26.832  30.696  1.00  0.00     0.064 A 
ATOM    128  C   UNL A   1      48.428  26.077  31.847  1.00  0.00     0.173 A 
ATOM    129  C   UNL A   1      49.231  27.142  29.847  1.00  0.00     0.173 A 
ATOM    130  F   UNL A   1      47.440  25.766  32.699  1.00  0.00    -0.203 F 
ATOM    131  C   UNL A   1      49.727  25.678  32.150  1.00  0.00     0.198 A 
ATOM    132  C   UNL A   1      50.522  26.709  30.134  1.00  0.00     0.198 A 
ATOM    133  F   UNL A   1      49.026  27.854  28.728  1.00  0.00    -0.203 F 
ATOM    134  F   UNL A   1      49.972  25.008  33.285  1.00  0.00    -0.200 F 
ATOM    135  C   UNL A   1      50.771  25.988  31.291  1.00  0.00     0.200 A 
ATOM    136  F   UNL A   1      51.526  26.994  29.292  1.00  0.00    -0.200 F 
ATOM    137  F   UNL A   1      52.020  25.596  31.581  1.00  0.00    -0.200 F 
ENDBRANCH 103 127
ENDBRANCH  68  71
ENDBRANCH  58  61
ENDBRANCH  54  57
ENDBRANCH  51  54
ENDBRANCH  48  51
ENDBRANCH  45  48
ENDBRANCH   1  45
TORSDOF 18
ENDMDL
MODEL 7
REMARK VINA RESULT:     -11.8      2.550      4.431
REMARK SMILES C[C@@H](C(=O)NCCCCCCNC(=O)c1ccc(-c2c3nc(c(-c4c(F)c(F)c(F)c(F)c4F)c4ccc([nH]4)c(-c4c(F)c(F)c(F)c(F)c4F)c4nc(c(-c5c(F)c(F)c(F)c(F)c5F)c5ccc2[nH]5)C=C4)C=C3)cc1)c1ccc(C[C@H]2CCC[C@@H]2O)cc1
REMARK SMILES IDX 7 1 6 4 5 7 3 8 4 9 2 11 1 13 78 17 79 18 90 19 80 20 89 22
REMARK SMILES IDX 81 24 82 27 83 30 84 31 87 32 85 34 86 37 88 43 8 45 9 48
REMARK SMILES IDX 10 51 11 54 12 57 13 58 14 60 15 61 16 62 77 63 17 64 76 66
REMARK SMILES IDX 18 68 19 71 20 72 70 73 21 74 75 75 69 76 71 77 22 78 74 79
REMARK SMILES IDX 68 81 67 83 23 85 55 88 35 89 54 90 36 91 39 92 53 93 72 94
REMARK SMILES IDX 37 95 38 97 52 99 73 100 40 103 24 105 25 106 33 107 26 108
REMARK SMILES IDX 27 109 31 110 34 111 28 112 29 113 32 114 30 115 56 116
REMARK SMILES IDX 57 117 65 118 58 119 59 120 63 121 66 122 60 123 61 124
REMARK SMILES IDX 64 125 62 126 41 127 42 128 50 129 43 130 44 131 48 132
REMARK SMILES IDX 51 133 45 134 46 135 49 136 47 137
REMARK H PARENT 7 2 7 3 6 5 6 6 5 10 2 12 1 14 1 15 1 16 79 21 90 23 80 25
REMARK H PARENT 89 26 82 28 82 29 83 33 84 35 84 36 87 38 85 39 85 40 86 41
REMARK H PARENT 86 42 88 44 8 46 8 47 9 49 9 50 10 52 10 53 11 55 11 56 12 59
REMARK H PARENT 16 65 77 67 17 69 76 70 75 80 69 82 71 84 74 86 68 87 36 96
REMARK H PARENT 39 98 72 101 37 102 73 104
REMARK Flexibility Score: inf
ROOT
ATOM      1  C   UNL A   1      33.381  29.171  26.343  1.00  0.00    -0.036 C 
ATOM      2  H   UNL A   1      33.381  29.366  25.291  1.00  0.00     0.028 H 
ATOM      3  H   UNL A   1      34.267  29.526  26.827  1.00  0.00     0.028 H 
ENDROOT
BRANCH   1   4
ATOM      4  C   UNL A   1      33.338  27.655  26.552  1.00  0.00     0.017 C 
ATOM      5  H   UNL A   1      34.265  27.228  26.230  1.00  0.00     0.049 H 
ATOM      6  H   UNL A   1      33.182  27.451  27.590  1.00  0.00     0.049 H 
BRANCH   4   7
ATOM      7  N   UNL A   1      32.256  27.076  25.790  1.00  0.00    -0.356 N 
ATOM      8  C   UNL A   1      32.256  26.493  24.558  1.00  0.00     0.227 C 
ATOM      9  O   UNL A   1      31.148  26.230  24.089  1.00  0.00    -0.274 OA
ATOM     10  H   UNL A   1      31.376  27.107  26.231  1.00  0.00     0.163 HD
BRANCH   8  11
ATOM     11  C   UNL A   1      33.591  26.160  23.873  1.00  0.00     0.060 C 
ATOM     12  H   UNL A   1      34.258  26.882  24.295  1.00  0.00     0.045 H 
BRANCH  11  13
ATOM     13  C   UNL A   1      33.554  26.315  22.349  1.00  0.00    -0.049 C 
ATOM     14  H   UNL A   1      32.769  26.990  22.078  1.00  0.00     0.024 H 
ATOM     15  H   UNL A   1      33.376  25.362  21.897  1.00  0.00     0.024 H 
ATOM     16  H   UNL A   1      34.491  26.703  22.007  1.00  0.00     0.024 H 
ENDBRANCH  11  13
BRANCH  11  17
ATOM     17  C   UNL A   1      34.107  24.758  24.177  1.00  0.00    -0.036 A 
ATOM     18  C   UNL A   1      33.683  23.675  23.396  1.00  0.00    -0.058 A 
ATOM     19  C   UNL A   1      34.911  24.506  25.298  1.00  0.00    -0.058 A 
ATOM     20  C   UNL A   1      34.019  22.371  23.757  1.00  0.00    -0.059 A 
ATOM     21  H   UNL A   1      33.119  23.843  22.548  1.00  0.00     0.063 H 
ATOM     22  C   UNL A   1      35.248  23.203  25.656  1.00  0.00    -0.059 A 
ATOM     23  H   UNL A   1      35.258  25.296  25.864  1.00  0.00     0.063 H 
ATOM     24  C   UNL A   1      34.760  22.121  24.918  1.00  0.00    -0.048 A 
ATOM     25  H   UNL A   1      33.718  21.582  23.163  1.00  0.00     0.063 H 
ATOM     26  H   UNL A   1      35.859  23.037  26.470  1.00  0.00     0.063 H 
BRANCH  24  27
ATOM     27  C   UNL A   1      34.961  20.714  25.424  1.00  0.00    -0.023 C 
ATOM     28  H   UNL A   1      34.728  20.700  26.468  1.00  0.00     0.032 H 
ATOM     29  H   UNL A   1      35.981  20.464  25.215  1.00  0.00     0.032 H 
BRANCH  27  30
ATOM     30  C   UNL A   1      34.101  19.646  24.725  1.00  0.00    -0.011 C 
ATOM     31  C   UNL A   1      34.804  18.329  24.355  1.00  0.00    -0.048 C 
ATOM     32  C   UNL A   1      32.857  19.200  25.500  1.00  0.00     0.057 C 
ATOM     33  H   UNL A   1      33.850  20.201  23.846  1.00  0.00     0.033 H 
ATOM     34  C   UNL A   1      33.757  17.223  24.537  1.00  0.00    -0.050 C 
ATOM     35  H   UNL A   1      35.640  18.158  25.002  1.00  0.00     0.027 H 
ATOM     36  H   UNL A   1      35.177  18.352  23.353  1.00  0.00     0.027 H 
ATOM     37  C   UNL A   1      32.436  17.942  24.758  1.00  0.00    -0.027 C 
ATOM     38  H   UNL A   1      33.038  19.029  26.540  1.00  0.00     0.060 H 
ATOM     39  H   UNL A   1      33.998  16.616  25.384  1.00  0.00     0.027 H 
ATOM     40  H   UNL A   1      33.717  16.573  23.687  1.00  0.00     0.027 H 
ATOM     41  H   UNL A   1      31.769  17.350  25.350  1.00  0.00     0.029 H 
ATOM     42  H   UNL A   1      31.906  18.143  23.851  1.00  0.00     0.029 H 
BRANCH  32  43
ATOM     43  O   UNL A   1      31.852  20.194  25.469  1.00  0.00    -0.393 OA
ATOM     44  H   UNL A   1      31.135  19.911  24.881  1.00  0.00     0.210 HD
ENDBRANCH  32  43
ENDBRANCH  27  30
ENDBRANCH  24  27
ENDBRANCH  11  17
ENDBRANCH   8  11
ENDBRANCH   4   7
ENDBRANCH   1   4
BRANCH   1  45
ATOM     45  C   UNL A   1      32.198  29.919  26.974  1.00  0.00    -0.052 C 
ATOM     46  H   UNL A   1      32.572  30.511  27.783  1.00  0.00     0.027 H 
ATOM     47  H   UNL A   1      31.500  29.171  27.286  1.00  0.00     0.027 H 
BRANCH  45  48
ATOM     48  C   UNL A   1      31.439  30.845  26.019  1.00  0.00    -0.052 C 
ATOM     49  H   UNL A   1      30.460  30.439  25.868  1.00  0.00     0.027 H 
ATOM     50  H   UNL A   1      32.015  30.893  25.120  1.00  0.00     0.027 H 
BRANCH  48  51
ATOM     51  C   UNL A   1      31.287  32.282  26.517  1.00  0.00    -0.036 C 
ATOM     52  H   UNL A   1      30.502  32.306  27.243  1.00  0.00     0.028 H 
ATOM     53  H   UNL A   1      31.075  32.886  25.659  1.00  0.00     0.028 H 
BRANCH  51  54
ATOM     54  C   UNL A   1      32.546  32.852  27.154  1.00  0.00     0.018 C 
ATOM     55  H   UNL A   1      33.345  32.803  26.444  1.00  0.00     0.049 H 
ATOM     56  H   UNL A   1      32.768  32.273  28.026  1.00  0.00     0.049 H 
BRANCH  54  57
ATOM     57  N   UNL A   1      32.368  34.235  27.567  1.00  0.00    -0.352 N 
ATOM     58  C   UNL A   1      32.977  34.910  28.591  1.00  0.00     0.251 C 
ATOM     59  H   UNL A   1      31.721  34.757  27.039  1.00  0.00     0.163 HD
ATOM     60  O   UNL A   1      32.564  36.013  28.944  1.00  0.00    -0.269 OA
BRANCH  58  61
ATOM     61  C   UNL A   1      34.130  34.298  29.282  1.00  0.00     0.039 A 
ATOM     62  C   UNL A   1      33.898  33.423  30.344  1.00  0.00    -0.049 A 
ATOM     63  C   UNL A   1      35.436  34.594  28.884  1.00  0.00    -0.049 A 
ATOM     64  C   UNL A   1      34.978  32.817  30.987  1.00  0.00    -0.053 A 
ATOM     65  H   UNL A   1      32.933  33.225  30.653  1.00  0.00     0.063 H 
ATOM     66  C   UNL A   1      36.506  33.922  29.465  1.00  0.00    -0.053 A 
ATOM     67  H   UNL A   1      35.607  35.311  28.162  1.00  0.00     0.063 H 
ATOM     68  C   UNL A   1      36.289  33.047  30.540  1.00  0.00    -0.014 A 
ATOM     69  H   UNL A   1      34.813  32.197  31.795  1.00  0.00     0.063 H 
ATOM     70  H   UNL A   1      37.461  34.067  29.104  1.00  0.00     0.063 H 
BRANCH  68  71
ATOM     71  C   UNL A   1      37.453  32.421  31.213  1.00  0.00     0.031 A 
ATOM     72  C   UNL A   1      38.204  31.312  30.529  1.00  0.00     0.074 A 
ATOM     73  C   UNL A   1      37.802  32.809  32.454  1.00  0.00     0.049 A 
ATOM     74  N   UNL A   1      39.216  30.603  30.961  1.00  0.00    -0.248 NA
ATOM     75  C   UNL A   1      37.732  30.924  29.190  1.00  0.00    -0.034 C 
ATOM     76  C   UNL A   1      37.127  33.845  33.237  1.00  0.00    -0.036 A 
ATOM     77  N   UNL A   1      38.812  32.376  33.275  1.00  0.00    -0.354 N 
ATOM     78  C   UNL A   1      39.484  29.678  29.961  1.00  0.00     0.074 A 
ATOM     79  C   UNL A   1      38.489  29.871  28.929  1.00  0.00    -0.034 C 
ATOM     80  H   UNL A   1      37.001  31.359  28.606  1.00  0.00     0.065 H 
ATOM     81  C   UNL A   1      37.763  33.993  34.409  1.00  0.00    -0.036 A 
ATOM     82  H   UNL A   1      36.294  34.376  32.935  1.00  0.00     0.065 H 
ATOM     83  C   UNL A   1      38.864  33.037  34.478  1.00  0.00     0.049 A 
ATOM     84  H   UNL A   1      39.440  31.660  33.026  1.00  0.00     0.167 HD
ATOM     85  C   UNL A   1      40.485  28.767  29.895  1.00  0.00     0.037 A 
ATOM     86  H   UNL A   1      38.385  29.266  28.099  1.00  0.00     0.065 H 
ATOM     87  H   UNL A   1      37.514  34.673  35.145  1.00  0.00     0.065 H 
ATOM     88  C   UNL A   1      39.708  32.885  35.516  1.00  0.00     0.037 A 
ATOM     89  C   UNL A   1      41.486  28.599  30.915  1.00  0.00     0.049 A 
ATOM     90  C   UNL A   1      40.806  31.860  35.425  1.00  0.00     0.074 A 
ATOM     91  C   UNL A   1      42.580  27.752  30.920  1.00  0.00    -0.036 A 
ATOM     92  N   UNL A   1      41.511  29.291  32.119  1.00  0.00    -0.354 N 
ATOM     93  N   UNL A   1      41.097  31.040  34.444  1.00  0.00    -0.248 NA
ATOM     94  C   UNL A   1      41.700  31.748  36.585  1.00  0.00    -0.034 C 
ATOM     95  C   UNL A   1      43.231  27.886  32.151  1.00  0.00    -0.036 A 
ATOM     96  H   UNL A   1      42.868  27.130  30.149  1.00  0.00     0.065 H 
ATOM     97  C   UNL A   1      42.585  28.869  32.886  1.00  0.00     0.049 A 
ATOM     98  H   UNL A   1      40.861  29.980  32.387  1.00  0.00     0.167 HD
ATOM     99  C   UNL A   1      42.231  30.347  34.848  1.00  0.00     0.074 A 
ATOM    100  C   UNL A   1      42.576  30.847  36.162  1.00  0.00    -0.034 C 
ATOM    101  H   UNL A   1      41.657  32.241  37.491  1.00  0.00     0.065 H 
ATOM    102  H   UNL A   1      44.053  27.345  32.461  1.00  0.00     0.065 H 
ATOM    103  C   UNL A   1      42.925  29.387  34.188  1.00  0.00     0.037 A 
ATOM    104  H   UNL A   1      43.401  30.542  36.702  1.00  0.00     0.065 H 
BRANCH  85 105
ATOM    105  C   UNL A   1      40.531  27.874  28.687  1.00  0.00     0.064 A 
ATOM    106  C   UNL A   1      39.844  26.649  28.640  1.00  0.00     0.173 A 
ATOM    107  C   UNL A   1      41.269  28.250  27.555  1.00  0.00     0.173 A 
ATOM    108  F   UNL A   1      39.131  26.233  29.699  1.00  0.00    -0.203 F 
ATOM    109  C   UNL A   1      39.937  25.815  27.529  1.00  0.00     0.198 A 
ATOM    110  C   UNL A   1      41.327  27.433  26.429  1.00  0.00     0.198 A 
ATOM    111  F   UNL A   1      41.940  29.412  27.539  1.00  0.00    -0.203 F 
ATOM    112  F   UNL A   1      39.332  24.619  27.539  1.00  0.00    -0.200 F 
ATOM    113  C   UNL A   1      40.672  26.210  26.422  1.00  0.00     0.200 A 
ATOM    114  F   UNL A   1      42.026  27.823  25.355  1.00  0.00    -0.200 F 
ATOM    115  F   UNL A   1      40.760  25.408  25.352  1.00  0.00    -0.200 F 
ENDBRANCH  85 105
BRANCH  88 116
ATOM    116  C   UNL A   1      39.578  33.762  36.710  1.00  0.00     0.064 A 
ATOM    117  C   UNL A   1      40.224  35.005  36.759  1.00  0.00     0.173 A 
ATOM    118  C   UNL A   1      38.810  33.381  37.820  1.00  0.00     0.173 A 
ATOM    119  F   UNL A   1      40.986  35.405  35.730  1.00  0.00    -0.203 F 
ATOM    120  C   UNL A   1      40.123  35.826  37.880  1.00  0.00     0.198 A 
ATOM    121  C   UNL A   1      38.685  34.217  38.928  1.00  0.00     0.198 A 
ATOM    122  F   UNL A   1      38.166  32.205  37.820  1.00  0.00    -0.203 F 
ATOM    123  F   UNL A   1      40.788  36.989  37.917  1.00  0.00    -0.200 F 
ATOM    124  C   UNL A   1      39.348  35.435  38.960  1.00  0.00     0.200 A 
ATOM    125  F   UNL A   1      37.922  33.842  39.963  1.00  0.00    -0.200 F 
ATOM    126  F   UNL A   1      39.246  36.228  40.036  1.00  0.00    -0.200 F 
ENDBRANCH  88 116
BRANCH 103 127
ATOM    127  C   UNL A   1      44.168  28.856  34.846  1.00  0.00     0.064 A 
ATOM    128  C   UNL A   1      45.420  29.465  34.676  1.00  0.00     0.173 A 
ATOM    129  C   UNL A   1      44.092  27.736  35.690  1.00  0.00     0.173 A 
ATOM    130  F   UNL A   1      45.549  30.529  33.870  1.00  0.00    -0.203 F 
ATOM    131  C   UNL A   1      46.555  28.952  35.298  1.00  0.00     0.198 A 
ATOM    132  C   UNL A   1      45.222  27.249  36.340  1.00  0.00     0.198 A 
ATOM    133  F   UNL A   1      42.918  27.121  35.895  1.00  0.00    -0.203 F 
ATOM    134  F   UNL A   1      47.751  29.515  35.074  1.00  0.00    -0.200 F 
ATOM    135  C   UNL A   1      46.454  27.850  36.135  1.00  0.00     0.200 A 
ATOM    136  F   UNL A   1      45.119  26.196  37.163  1.00  0.00    -0.200 F 
ATOM    137  F   UNL A   1      47.547  27.363  36.740  1.00  0.00    -0.200 F 
ENDBRANCH 103 127
ENDBRANCH  68  71
ENDBRANCH  58  61
ENDBRANCH  54  57
ENDBRANCH  51  54
ENDBRANCH  48  51
ENDBRANCH  45  48
ENDBRANCH   1  45
TORSDOF 18
ENDMDL
MODEL 8
REMARK VINA RESULT:     -11.8      3.109      8.754
REMARK SMILES C[C@@H](C(=O)NCCCCCCNC(=O)c1ccc(-c2c3nc(c(-c4c(F)c(F)c(F)c(F)c4F)c4ccc([nH]4)c(-c4c(F)c(F)c(F)c(F)c4F)c4nc(c(-c5c(F)c(F)c(F)c(F)c5F)c5ccc2[nH]5)C=C4)C=C3)cc1)c1ccc(C[C@H]2CCC[C@@H]2O)cc1
REMARK SMILES IDX 7 1 6 4 5 7 3 8 4 9 2 11 1 13 78 17 79 18 90 19 80 20 89 22
REMARK SMILES IDX 81 24 82 27 83 30 84 31 87 32 85 34 86 37 88 43 8 45 9 48
REMARK SMILES IDX 10 51 11 54 12 57 13 58 14 60 15 61 16 62 77 63 17 64 76 66
REMARK SMILES IDX 18 68 19 71 20 72 70 73 21 74 75 75 69 76 71 77 22 78 74 79
REMARK SMILES IDX 68 81 67 83 23 85 55 88 35 89 54 90 36 91 39 92 53 93 72 94
REMARK SMILES IDX 37 95 38 97 52 99 73 100 40 103 24 105 25 106 33 107 26 108
REMARK SMILES IDX 27 109 31 110 34 111 28 112 29 113 32 114 30 115 56 116
REMARK SMILES IDX 57 117 65 118 58 119 59 120 63 121 66 122 60 123 61 124
REMARK SMILES IDX 64 125 62 126 41 127 42 128 50 129 43 130 44 131 48 132
REMARK SMILES IDX 51 133 45 134 46 135 49 136 47 137
REMARK H PARENT 7 2 7 3 6 5 6 6 5 10 2 12 1 14 1 15 1 16 79 21 90 23 80 25
REMARK H PARENT 89 26 82 28 82 29 83 33 84 35 84 36 87 38 85 39 85 40 86 41
REMARK H PARENT 86 42 88 44 8 46 8 47 9 49 9 50 10 52 10 53 11 55 11 56 12 59
REMARK H PARENT 16 65 77 67 17 69 76 70 75 80 69 82 71 84 74 86 68 87 36 96
REMARK H PARENT 39 98 72 101 37 102 73 104
REMARK Flexibility Score: inf
ROOT
ATOM      1  C   UNL A   1      32.395  28.519  26.953  1.00  0.00    -0.036 C 
ATOM      2  H   UNL A   1      33.328  28.014  27.090  1.00  0.00     0.028 H 
ATOM      3  H   UNL A   1      31.921  28.765  27.881  1.00  0.00     0.028 H 
ENDROOT
BRANCH   1   4
ATOM      4  C   UNL A   1      31.445  27.580  26.206  1.00  0.00     0.017 C 
ATOM      5  H   UNL A   1      30.470  28.019  26.168  1.00  0.00     0.049 H 
ATOM      6  H   UNL A   1      31.815  27.426  25.214  1.00  0.00     0.049 H 
BRANCH   4   7
ATOM      7  N   UNL A   1      31.367  26.305  26.882  1.00  0.00    -0.356 N 
ATOM      8  C   UNL A   1      31.403  25.037  26.385  1.00  0.00     0.227 C 
ATOM      9  O   UNL A   1      31.154  24.138  27.188  1.00  0.00    -0.274 OA
ATOM     10  H   UNL A   1      31.272  26.362  27.861  1.00  0.00     0.163 HD
BRANCH   8  11
ATOM     11  C   UNL A   1      31.795  24.807  24.916  1.00  0.00     0.060 C 
ATOM     12  H   UNL A   1      32.413  25.654  24.702  1.00  0.00     0.045 H 
BRANCH  11  13
ATOM     13  C   UNL A   1      30.597  24.783  23.959  1.00  0.00    -0.049 C 
ATOM     14  H   UNL A   1      29.846  25.460  24.311  1.00  0.00     0.024 H 
ATOM     15  H   UNL A   1      30.194  23.794  23.917  1.00  0.00     0.024 H 
ATOM     16  H   UNL A   1      30.916  25.081  22.982  1.00  0.00     0.024 H 
ENDBRANCH  11  13
BRANCH  11  17
ATOM     17  C   UNL A   1      32.591  23.529  24.683  1.00  0.00    -0.036 A 
ATOM     18  C   UNL A   1      31.980  22.431  24.064  1.00  0.00    -0.058 A 
ATOM     19  C   UNL A   1      33.895  23.383  25.180  1.00  0.00    -0.058 A 
ATOM     20  C   UNL A   1      32.643  21.206  23.987  1.00  0.00    -0.059 A 
ATOM     21  H   UNL A   1      31.035  22.528  23.662  1.00  0.00     0.063 H 
ATOM     22  C   UNL A   1      34.556  22.160  25.100  1.00  0.00    -0.059 A 
ATOM     23  H   UNL A   1      34.370  24.192  25.608  1.00  0.00     0.063 H 
ATOM     24  C   UNL A   1      33.914  21.047  24.550  1.00  0.00    -0.048 A 
ATOM     25  H   UNL A   1      32.191  20.409  23.510  1.00  0.00     0.063 H 
ATOM     26  H   UNL A   1      35.523  22.076  25.448  1.00  0.00     0.063 H 
BRANCH  24  27
ATOM     27  C   UNL A   1      34.557  19.685  24.646  1.00  0.00    -0.023 C 
ATOM     28  H   UNL A   1      35.016  19.602  25.609  1.00  0.00     0.032 H 
ATOM     29  H   UNL A   1      35.256  19.626  23.838  1.00  0.00     0.032 H 
BRANCH  27  30
ATOM     30  C   UNL A   1      33.590  18.500  24.472  1.00  0.00    -0.011 C 
ATOM     31  C   UNL A   1      33.955  17.465  23.393  1.00  0.00    -0.048 C 
ATOM     32  C   UNL A   1      33.353  17.660  25.730  1.00  0.00     0.057 C 
ATOM     33  H   UNL A   1      32.719  19.052  24.187  1.00  0.00     0.033 H 
ATOM     34  C   UNL A   1      33.502  16.105  23.938  1.00  0.00    -0.050 C 
ATOM     35  H   UNL A   1      35.012  17.463  23.223  1.00  0.00     0.027 H 
ATOM     36  H   UNL A   1      33.484  17.689  22.460  1.00  0.00     0.027 H 
ATOM     37  C   UNL A   1      32.677  16.416  25.177  1.00  0.00    -0.027 C 
ATOM     38  H   UNL A   1      34.248  17.440  26.274  1.00  0.00     0.060 H 
ATOM     39  H   UNL A   1      34.349  15.504  24.195  1.00  0.00     0.027 H 
ATOM     40  H   UNL A   1      32.937  15.558  23.213  1.00  0.00     0.027 H 
ATOM     41  H   UNL A   1      32.719  15.609  25.880  1.00  0.00     0.029 H 
ATOM     42  H   UNL A   1      31.637  16.556  24.969  1.00  0.00     0.029 H 
BRANCH  32  43
ATOM     43  O   UNL A   1      32.530  18.343  26.654  1.00  0.00    -0.393 OA
ATOM     44  H   UNL A   1      33.066  18.969  27.165  1.00  0.00     0.210 HD
ENDBRANCH  32  43
ENDBRANCH  27  30
ENDBRANCH  24  27
ENDBRANCH  11  17
ENDBRANCH   8  11
ENDBRANCH   4   7
ENDBRANCH   1   4
BRANCH   1  45
ATOM     45  C   UNL A   1      32.662  29.843  26.223  1.00  0.00    -0.052 C 
ATOM     46  H   UNL A   1      33.236  29.629  25.346  1.00  0.00     0.027 H 
ATOM     47  H   UNL A   1      33.175  30.473  26.920  1.00  0.00     0.027 H 
BRANCH  45  48
ATOM     48  C   UNL A   1      31.405  30.607  25.795  1.00  0.00    -0.052 C 
ATOM     49  H   UNL A   1      30.550  30.031  26.081  1.00  0.00     0.027 H 
ATOM     50  H   UNL A   1      31.481  30.748  24.738  1.00  0.00     0.027 H 
BRANCH  48  51
ATOM     51  C   UNL A   1      31.270  31.999  26.412  1.00  0.00    -0.036 C 
ATOM     52  H   UNL A   1      30.440  31.990  27.087  1.00  0.00     0.028 H 
ATOM     53  H   UNL A   1      31.135  32.685  25.602  1.00  0.00     0.028 H 
BRANCH  51  54
ATOM     54  C   UNL A   1      32.503  32.460  27.176  1.00  0.00     0.018 C 
ATOM     55  H   UNL A   1      33.365  32.315  26.560  1.00  0.00     0.049 H 
ATOM     56  H   UNL A   1      32.570  31.883  28.076  1.00  0.00     0.049 H 
BRANCH  54  57
ATOM     57  N   UNL A   1      32.419  33.863  27.547  1.00  0.00    -0.352 N 
ATOM     58  C   UNL A   1      33.133  34.543  28.499  1.00  0.00     0.251 C 
ATOM     59  H   UNL A   1      31.761  34.397  27.047  1.00  0.00     0.163 HD
ATOM     60  O   UNL A   1      32.798  35.676  28.837  1.00  0.00    -0.269 OA
BRANCH  58  61
ATOM     61  C   UNL A   1      34.303  33.900  29.129  1.00  0.00     0.039 A 
ATOM     62  C   UNL A   1      34.097  32.922  30.103  1.00  0.00    -0.049 A 
ATOM     63  C   UNL A   1      35.600  34.268  28.761  1.00  0.00    -0.049 A 
ATOM     64  C   UNL A   1      35.195  32.288  30.686  1.00  0.00    -0.053 A 
ATOM     65  H   UNL A   1      33.139  32.670  30.392  1.00  0.00     0.063 H 
ATOM     66  C   UNL A   1      36.689  33.574  29.276  1.00  0.00    -0.053 A 
ATOM     67  H   UNL A   1      35.749  35.055  28.110  1.00  0.00     0.063 H 
ATOM     68  C   UNL A   1      36.499  32.595  30.263  1.00  0.00    -0.014 A 
ATOM     69  H   UNL A   1      35.049  31.590  31.431  1.00  0.00     0.063 H 
ATOM     70  H   UNL A   1      37.639  33.779  28.931  1.00  0.00     0.063 H 
BRANCH  68  71
ATOM     71  C   UNL A   1      37.680  31.940  30.874  1.00  0.00     0.031 A 
ATOM     72  C   UNL A   1      38.118  32.332  32.259  1.00  0.00     0.074 A 
ATOM     73  C   UNL A   1      38.387  31.035  30.171  1.00  0.00     0.049 A 
ATOM     74  N   UNL A   1      39.146  31.915  32.954  1.00  0.00    -0.248 NA
ATOM     75  C   UNL A   1      37.311  33.356  32.941  1.00  0.00    -0.034 C 
ATOM     76  C   UNL A   1      38.086  30.602  28.807  1.00  0.00    -0.036 A 
ATOM     77  N   UNL A   1      39.507  30.317  30.509  1.00  0.00    -0.354 N 
ATOM     78  C   UNL A   1      39.119  32.639  34.139  1.00  0.00     0.074 A 
ATOM     79  C   UNL A   1      38.013  33.567  34.042  1.00  0.00    -0.034 C 
ATOM     80  H   UNL A   1      36.427  33.795  32.639  1.00  0.00     0.065 H 
ATOM     81  C   UNL A   1      38.976  29.668  28.437  1.00  0.00    -0.036 A 
ATOM     82  H   UNL A   1      37.313  30.959  28.222  1.00  0.00     0.065 H 
ATOM     83  C   UNL A   1      39.932  29.465  29.520  1.00  0.00     0.049 A 
ATOM     84  H   UNL A   1      39.962  30.406  31.378  1.00  0.00     0.167 HD
ATOM     85  C   UNL A   1      39.926  32.525  35.221  1.00  0.00     0.037 A 
ATOM     86  H   UNL A   1      37.801  34.296  34.741  1.00  0.00     0.065 H 
ATOM     87  H   UNL A   1      38.983  29.173  27.531  1.00  0.00     0.065 H 
ATOM     88  C   UNL A   1      40.978  28.616  29.496  1.00  0.00     0.037 A 
ATOM     89  C   UNL A   1      41.008  31.581  35.320  1.00  0.00     0.049 A 
ATOM     90  C   UNL A   1      41.866  28.513  30.706  1.00  0.00     0.074 A 
ATOM     91  C   UNL A   1      41.846  31.337  36.393  1.00  0.00    -0.036 A 
ATOM     92  N   UNL A   1      41.407  30.728  34.299  1.00  0.00    -0.354 N 
ATOM     93  N   UNL A   1      41.789  29.148  31.851  1.00  0.00    -0.248 NA
ATOM     94  C   UNL A   1      42.984  27.563  30.623  1.00  0.00    -0.034 C 
ATOM     95  C   UNL A   1      42.790  30.381  36.002  1.00  0.00    -0.036 A 
ATOM     96  H   UNL A   1      41.784  31.781  37.322  1.00  0.00     0.065 H 
ATOM     97  C   UNL A   1      42.497  29.977  34.709  1.00  0.00     0.049 A 
ATOM     98  H   UNL A   1      40.977  30.666  33.415  1.00  0.00     0.167 HD
ATOM     99  C   UNL A   1      42.816  28.646  32.638  1.00  0.00     0.074 A 
ATOM    100  C   UNL A   1      43.500  27.649  31.841  1.00  0.00    -0.034 C 
ATOM    101  H   UNL A   1      43.287  26.982  29.826  1.00  0.00     0.065 H 
ATOM    102  H   UNL A   1      43.573  30.036  36.578  1.00  0.00     0.065 H 
ATOM    103  C   UNL A   1      43.159  28.977  33.908  1.00  0.00     0.037 A 
ATOM    104  H   UNL A   1      44.290  27.077  32.178  1.00  0.00     0.065 H 
BRANCH  85 105
ATOM    105  C   UNL A   1      39.674  33.455  36.375  1.00  0.00     0.064 A 
ATOM    106  C   UNL A   1      40.317  34.700  36.480  1.00  0.00     0.173 A 
ATOM    107  C   UNL A   1      38.774  33.099  37.389  1.00  0.00     0.173 A 
ATOM    108  F   UNL A   1      41.198  35.088  35.545  1.00  0.00    -0.203 F 
ATOM    109  C   UNL A   1      40.105  35.527  37.581  1.00  0.00     0.198 A 
ATOM    110  C   UNL A   1      38.532  33.947  38.468  1.00  0.00     0.198 A 
ATOM    111  F   UNL A   1      38.125  31.926  37.339  1.00  0.00    -0.203 F 
ATOM    112  F   UNL A   1      40.786  36.676  37.694  1.00  0.00    -0.200 F 
ATOM    113  C   UNL A   1      39.208  35.153  38.570  1.00  0.00     0.200 A 
ATOM    114  F   UNL A   1      37.654  33.590  39.415  1.00  0.00    -0.200 F 
ATOM    115  F   UNL A   1      39.004  35.950  39.628  1.00  0.00    -0.200 F 
ENDBRANCH  85 105
BRANCH  88 116
ATOM    116  C   UNL A   1      41.209  27.760  28.303  1.00  0.00     0.064 A 
ATOM    117  C   UNL A   1      40.570  26.518  28.178  1.00  0.00     0.173 A 
ATOM    118  C   UNL A   1      42.065  28.161  27.267  1.00  0.00     0.173 A 
ATOM    119  F   UNL A   1      39.757  26.083  29.151  1.00  0.00    -0.203 F 
ATOM    120  C   UNL A   1      40.793  25.702  27.072  1.00  0.00     0.198 A 
ATOM    121  C   UNL A   1      42.264  27.356  26.146  1.00  0.00     0.198 A 
ATOM    122  F   UNL A   1      42.694  29.343  27.334  1.00  0.00    -0.203 F 
ATOM    123  F   UNL A   1      40.204  24.500  27.000  1.00  0.00    -0.200 F 
ATOM    124  C   UNL A   1      41.634  26.123  26.054  1.00  0.00     0.200 A 
ATOM    125  F   UNL A   1      43.064  27.775  25.158  1.00  0.00    -0.200 F 
ATOM    126  F   UNL A   1      41.844  25.340  24.987  1.00  0.00    -0.200 F 
ENDBRANCH  88 116
BRANCH 103 127
ATOM    127  C   UNL A   1      44.287  28.211  34.541  1.00  0.00     0.064 A 
ATOM    128  C   UNL A   1      44.077  27.002  35.220  1.00  0.00     0.173 A 
ATOM    129  C   UNL A   1      45.605  28.684  34.436  1.00  0.00     0.173 A 
ATOM    130  F   UNL A   1      42.836  26.513  35.362  1.00  0.00    -0.203 F 
ATOM    131  C   UNL A   1      45.140  26.313  35.798  1.00  0.00     0.198 A 
ATOM    132  C   UNL A   1      46.669  27.974  34.982  1.00  0.00     0.198 A 
ATOM    133  F   UNL A   1      45.862  29.831  33.789  1.00  0.00    -0.203 F 
ATOM    134  F   UNL A   1      44.910  25.190  36.493  1.00  0.00    -0.200 F 
ATOM    135  C   UNL A   1      46.435  26.795  35.672  1.00  0.00     0.200 A 
ATOM    136  F   UNL A   1      47.921  28.432  34.842  1.00  0.00    -0.200 F 
ATOM    137  F   UNL A   1      47.458  26.125  36.223  1.00  0.00    -0.200 F 
ENDBRANCH 103 127
ENDBRANCH  68  71
ENDBRANCH  58  61
ENDBRANCH  54  57
ENDBRANCH  51  54
ENDBRANCH  48  51
ENDBRANCH  45  48
ENDBRANCH   1  45
TORSDOF 18
ENDMDL
MODEL 9
REMARK VINA RESULT:     -11.8      6.212     11.319
REMARK SMILES C[C@@H](C(=O)NCCCCCCNC(=O)c1ccc(-c2c3nc(c(-c4c(F)c(F)c(F)c(F)c4F)c4ccc([nH]4)c(-c4c(F)c(F)c(F)c(F)c4F)c4nc(c(-c5c(F)c(F)c(F)c(F)c5F)c5ccc2[nH]5)C=C4)C=C3)cc1)c1ccc(C[C@H]2CCC[C@@H]2O)cc1
REMARK SMILES IDX 7 1 6 4 5 7 3 8 4 9 2 11 1 13 78 17 79 18 90 19 80 20 89 22
REMARK SMILES IDX 81 24 82 27 83 30 84 31 87 32 85 34 86 37 88 43 8 45 9 48
REMARK SMILES IDX 10 51 11 54 12 57 13 58 14 60 15 61 16 62 77 63 17 64 76 66
REMARK SMILES IDX 18 68 19 71 20 72 70 73 21 74 75 75 69 76 71 77 22 78 74 79
REMARK SMILES IDX 68 81 67 83 23 85 55 88 35 89 54 90 36 91 39 92 53 93 72 94
REMARK SMILES IDX 37 95 38 97 52 99 73 100 40 103 24 105 25 106 33 107 26 108
REMARK SMILES IDX 27 109 31 110 34 111 28 112 29 113 32 114 30 115 56 116
REMARK SMILES IDX 57 117 65 118 58 119 59 120 63 121 66 122 60 123 61 124
REMARK SMILES IDX 64 125 62 126 41 127 42 128 50 129 43 130 44 131 48 132
REMARK SMILES IDX 51 133 45 134 46 135 49 136 47 137
REMARK H PARENT 7 2 7 3 6 5 6 6 5 10 2 12 1 14 1 15 1 16 79 21 90 23 80 25
REMARK H PARENT 89 26 82 28 82 29 83 33 84 35 84 36 87 38 85 39 85 40 86 41
REMARK H PARENT 86 42 88 44 8 46 8 47 9 49 9 50 10 52 10 53 11 55 11 56 12 59
REMARK H PARENT 16 65 77 67 17 69 76 70 75 80 69 82 71 84 74 86 68 87 36 96
REMARK H PARENT 39 98 72 101 37 102 73 104
REMARK Flexibility Score: inf
ROOT
ATOM      1  C   UNL A   1      36.639  22.636  23.490  1.00  0.00    -0.036 C 
ATOM      2  H   UNL A   1      37.560  23.064  23.152  1.00  0.00     0.028 H 
ATOM      3  H   UNL A   1      36.289  21.854  22.849  1.00  0.00     0.028 H 
ENDROOT
BRANCH   1   4
ATOM      4  C   UNL A   1      35.568  23.730  23.480  1.00  0.00     0.017 C 
ATOM      5  H   UNL A   1      35.982  24.627  23.069  1.00  0.00     0.049 H 
ATOM      6  H   UNL A   1      34.741  23.403  22.885  1.00  0.00     0.049 H 
BRANCH   4   7
ATOM      7  N   UNL A   1      35.108  23.992  24.824  1.00  0.00    -0.356 N 
ATOM      8  C   UNL A   1      33.844  24.038  25.332  1.00  0.00     0.227 C 
ATOM      9  O   UNL A   1      33.745  24.444  26.491  1.00  0.00    -0.274 OA
ATOM     10  H   UNL A   1      35.822  24.166  25.480  1.00  0.00     0.163 HD
BRANCH   8  11
ATOM     11  C   UNL A   1      32.663  23.545  24.480  1.00  0.00     0.060 C 
ATOM     12  H   UNL A   1      32.790  24.088  23.567  1.00  0.00     0.045 H 
BRANCH  11  13
ATOM     13  C   UNL A   1      31.293  23.867  25.088  1.00  0.00    -0.049 C 
ATOM     14  H   UNL A   1      31.351  24.786  25.633  1.00  0.00     0.024 H 
ATOM     15  H   UNL A   1      31.002  23.078  25.749  1.00  0.00     0.024 H 
ATOM     16  H   UNL A   1      30.570  23.962  24.305  1.00  0.00     0.024 H 
ENDBRANCH  11  13
BRANCH  11  17
ATOM     17  C   UNL A   1      32.694  22.050  24.189  1.00  0.00    -0.036 A 
ATOM     18  C   UNL A   1      32.407  21.585  22.899  1.00  0.00    -0.058 A 
ATOM     19  C   UNL A   1      32.892  21.113  25.215  1.00  0.00    -0.058 A 
ATOM     20  C   UNL A   1      32.275  20.218  22.655  1.00  0.00    -0.059 A 
ATOM     21  H   UNL A   1      32.292  22.257  22.125  1.00  0.00     0.063 H 
ATOM     22  C   UNL A   1      32.763  19.749  24.969  1.00  0.00    -0.059 A 
ATOM     23  H   UNL A   1      33.137  21.439  26.162  1.00  0.00     0.063 H 
ATOM     24  C   UNL A   1      32.400  19.293  23.698  1.00  0.00    -0.048 A 
ATOM     25  H   UNL A   1      32.083  19.886  21.697  1.00  0.00     0.063 H 
ATOM     26  H   UNL A   1      32.934  19.072  25.728  1.00  0.00     0.063 H 
BRANCH  24  27
ATOM     27  C   UNL A   1      32.069  17.836  23.488  1.00  0.00    -0.023 C 
ATOM     28  H   UNL A   1      31.826  17.696  22.456  1.00  0.00     0.032 H 
ATOM     29  H   UNL A   1      31.255  17.616  24.147  1.00  0.00     0.032 H 
BRANCH  27  30
ATOM     30  C   UNL A   1      33.200  16.856  23.852  1.00  0.00    -0.011 C 
ATOM     31  C   UNL A   1      34.630  17.423  23.848  1.00  0.00    -0.048 C 
ATOM     32  C   UNL A   1      33.067  16.186  25.222  1.00  0.00     0.057 C 
ATOM     33  H   UNL A   1      33.066  16.162  23.049  1.00  0.00     0.033 H 
ATOM     34  C   UNL A   1      35.374  16.706  24.982  1.00  0.00    -0.050 C 
ATOM     35  H   UNL A   1      34.612  18.479  24.026  1.00  0.00     0.027 H 
ATOM     36  H   UNL A   1      35.111  17.268  22.906  1.00  0.00     0.027 H 
ATOM     37  C   UNL A   1      34.449  15.588  25.435  1.00  0.00    -0.027 C 
ATOM     38  H   UNL A   1      32.780  16.858  26.003  1.00  0.00     0.060 H 
ATOM     39  H   UNL A   1      35.566  17.382  25.788  1.00  0.00     0.027 H 
ATOM     40  H   UNL A   1      36.321  16.329  24.656  1.00  0.00     0.027 H 
ATOM     41  H   UNL A   1      34.610  15.348  26.465  1.00  0.00     0.029 H 
ATOM     42  H   UNL A   1      34.600  14.672  24.904  1.00  0.00     0.029 H 
BRANCH  32  43
ATOM     43  O   UNL A   1      32.058  15.196  25.212  1.00  0.00    -0.393 OA
ATOM     44  H   UNL A   1      31.403  15.408  24.528  1.00  0.00     0.210 HD
ENDBRANCH  32  43
ENDBRANCH  27  30
ENDBRANCH  24  27
ENDBRANCH  11  17
ENDBRANCH   8  11
ENDBRANCH   4   7
ENDBRANCH   1   4
BRANCH   1  45
ATOM     45  C   UNL A   1      36.875  22.009  24.872  1.00  0.00    -0.052 C 
ATOM     46  H   UNL A   1      36.256  22.522  25.579  1.00  0.00     0.027 H 
ATOM     47  H   UNL A   1      37.921  22.110  25.074  1.00  0.00     0.027 H 
BRANCH  45  48
ATOM     48  C   UNL A   1      36.561  20.513  24.961  1.00  0.00    -0.052 C 
ATOM     49  H   UNL A   1      35.953  20.248  24.121  1.00  0.00     0.027 H 
ATOM     50  H   UNL A   1      36.070  20.361  25.898  1.00  0.00     0.027 H 
BRANCH  48  51
ATOM     51  C   UNL A   1      37.793  19.608  24.961  1.00  0.00    -0.036 C 
ATOM     52  H   UNL A   1      38.101  19.456  23.949  1.00  0.00     0.028 H 
ATOM     53  H   UNL A   1      37.507  18.697  25.446  1.00  0.00     0.028 H 
BRANCH  51  54
ATOM     54  C   UNL A   1      38.973  20.168  25.742  1.00  0.00     0.018 C 
ATOM     55  H   UNL A   1      38.641  20.437  26.723  1.00  0.00     0.049 H 
ATOM     56  H   UNL A   1      39.345  21.020  25.213  1.00  0.00     0.049 H 
BRANCH  54  57
ATOM     57  N   UNL A   1      40.054  19.203  25.859  1.00  0.00    -0.352 N 
ATOM     58  C   UNL A   1      41.386  19.431  26.083  1.00  0.00     0.251 C 
ATOM     59  H   UNL A   1      39.794  18.259  25.764  1.00  0.00     0.163 HD
ATOM     60  O   UNL A   1      42.205  18.525  25.945  1.00  0.00    -0.269 OA
BRANCH  58  61
ATOM     61  C   UNL A   1      41.838  20.780  26.479  1.00  0.00     0.039 A 
ATOM     62  C   UNL A   1      41.954  21.087  27.835  1.00  0.00    -0.049 A 
ATOM     63  C   UNL A   1      42.140  21.741  25.509  1.00  0.00    -0.049 A 
ATOM     64  C   UNL A   1      42.405  22.349  28.221  1.00  0.00    -0.053 A 
ATOM     65  H   UNL A   1      41.705  20.384  28.549  1.00  0.00     0.063 H 
ATOM     66  C   UNL A   1      42.675  22.965  25.892  1.00  0.00    -0.053 A 
ATOM     67  H   UNL A   1      41.965  21.543  24.512  1.00  0.00     0.063 H 
ATOM     68  C   UNL A   1      42.788  23.292  27.252  1.00  0.00    -0.014 A 
ATOM     69  H   UNL A   1      42.459  22.592  29.222  1.00  0.00     0.063 H 
ATOM     70  H   UNL A   1      42.990  23.636  25.174  1.00  0.00     0.063 H 
BRANCH  68  71
ATOM     71  C   UNL A   1      43.263  24.643  27.639  1.00  0.00     0.031 A 
ATOM     72  C   UNL A   1      42.267  25.706  28.012  1.00  0.00     0.074 A 
ATOM     73  C   UNL A   1      44.578  24.929  27.605  1.00  0.00     0.049 A 
ATOM     74  N   UNL A   1      42.470  26.958  28.335  1.00  0.00    -0.248 NA
ATOM     75  C   UNL A   1      40.848  25.318  27.985  1.00  0.00    -0.034 C 
ATOM     76  C   UNL A   1      45.637  23.995  27.222  1.00  0.00    -0.036 A 
ATOM     77  N   UNL A   1      45.248  26.090  27.898  1.00  0.00    -0.354 N 
ATOM     78  C   UNL A   1      41.209  27.507  28.528  1.00  0.00     0.074 A 
ATOM     79  C   UNL A   1      40.246  26.473  28.222  1.00  0.00    -0.034 C 
ATOM     80  H   UNL A   1      40.430  24.389  27.824  1.00  0.00     0.065 H 
ATOM     81  C   UNL A   1      46.825  24.608  27.337  1.00  0.00    -0.036 A 
ATOM     82  H   UNL A   1      45.493  23.021  26.911  1.00  0.00     0.065 H 
ATOM     83  C   UNL A   1      46.610  25.987  27.764  1.00  0.00     0.049 A 
ATOM     84  H   UNL A   1      44.794  26.918  28.178  1.00  0.00     0.167 HD
ATOM     85  C   UNL A   1      40.883  28.754  28.946  1.00  0.00     0.037 A 
ATOM     86  H   UNL A   1      39.224  26.617  28.193  1.00  0.00     0.065 H 
ATOM     87  H   UNL A   1      47.744  24.174  27.154  1.00  0.00     0.065 H 
ATOM     88  C   UNL A   1      47.574  26.906  27.965  1.00  0.00     0.037 A 
ATOM     89  C   UNL A   1      41.848  29.770  29.274  1.00  0.00     0.049 A 
ATOM     90  C   UNL A   1      47.188  28.287  28.421  1.00  0.00     0.074 A 
ATOM     91  C   UNL A   1      41.628  31.043  29.768  1.00  0.00    -0.036 A 
ATOM     92  N   UNL A   1      43.222  29.628  29.131  1.00  0.00    -0.354 N 
ATOM     93  N   UNL A   1      45.997  28.776  28.671  1.00  0.00    -0.248 NA
ATOM     94  C   UNL A   1      48.284  29.242  28.631  1.00  0.00    -0.034 C 
ATOM     95  C   UNL A   1      42.864  31.693  29.867  1.00  0.00    -0.036 A 
ATOM     96  H   UNL A   1      40.712  31.443  30.023  1.00  0.00     0.065 H 
ATOM     97  C   UNL A   1      43.860  30.801  29.502  1.00  0.00     0.049 A 
ATOM     98  H   UNL A   1      43.676  28.813  28.814  1.00  0.00     0.167 HD
ATOM     99  C   UNL A   1      46.202  30.077  29.110  1.00  0.00     0.074 A 
ATOM    100  C   UNL A   1      47.633  30.299  29.096  1.00  0.00    -0.034 C 
ATOM    101  H   UNL A   1      49.295  29.121  28.463  1.00  0.00     0.065 H 
ATOM    102  H   UNL A   1      43.009  32.671  30.160  1.00  0.00     0.065 H 
ATOM    103  C   UNL A   1      45.288  31.002  29.495  1.00  0.00     0.037 A 
ATOM    104  H   UNL A   1      48.089  31.171  29.408  1.00  0.00     0.065 H 
BRANCH  85 105
ATOM    105  C   UNL A   1      39.421  29.087  29.057  1.00  0.00     0.064 A 
ATOM    106  C   UNL A   1      38.653  29.444  27.937  1.00  0.00     0.173 A 
ATOM    107  C   UNL A   1      38.776  29.044  30.302  1.00  0.00     0.173 A 
ATOM    108  F   UNL A   1      39.220  29.513  26.722  1.00  0.00    -0.203 F 
ATOM    109  C   UNL A   1      37.311  29.794  28.067  1.00  0.00     0.198 A 
ATOM    110  C   UNL A   1      37.424  29.355  30.423  1.00  0.00     0.198 A 
ATOM    111  F   UNL A   1      39.457  28.703  31.406  1.00  0.00    -0.203 F 
ATOM    112  F   UNL A   1      36.619  30.202  26.994  1.00  0.00    -0.200 F 
ATOM    113  C   UNL A   1      36.696  29.743  29.309  1.00  0.00     0.200 A 
ATOM    114  F   UNL A   1      36.828  29.291  31.622  1.00  0.00    -0.200 F 
ATOM    115  F   UNL A   1      35.405  30.078  29.434  1.00  0.00    -0.200 F 
ENDBRANCH  85 105
BRANCH  88 116
ATOM    116  C   UNL A   1      49.002  26.533  27.785  1.00  0.00     0.064 A 
ATOM    117  C   UNL A   1      49.562  26.440  26.503  1.00  0.00     0.173 A 
ATOM    118  C   UNL A   1      49.835  26.265  28.882  1.00  0.00     0.173 A 
ATOM    119  F   UNL A   1      48.802  26.668  25.423  1.00  0.00    -0.203 F 
ATOM    120  C   UNL A   1      50.894  26.074  26.323  1.00  0.00     0.198 A 
ATOM    121  C   UNL A   1      51.175  25.928  28.702  1.00  0.00     0.198 A 
ATOM    122  F   UNL A   1      49.350  26.346  30.129  1.00  0.00    -0.203 F 
ATOM    123  F   UNL A   1      51.390  25.949  25.085  1.00  0.00    -0.200 F 
ATOM    124  C   UNL A   1      51.701  25.825  27.422  1.00  0.00     0.200 A 
ATOM    125  F   UNL A   1      51.956  25.704  29.767  1.00  0.00    -0.200 F 
ATOM    126  F   UNL A   1      52.985  25.479  27.249  1.00  0.00    -0.200 F 
ENDBRANCH  88 116
BRANCH 103 127
ATOM    127  C   UNL A   1      45.808  32.322  29.994  1.00  0.00     0.064 A 
ATOM    128  C   UNL A   1      46.138  32.531  31.341  1.00  0.00     0.173 A 
ATOM    129  C   UNL A   1      46.008  33.383  29.097  1.00  0.00     0.173 A 
ATOM    130  F   UNL A   1      45.953  31.555  32.242  1.00  0.00    -0.203 F 
ATOM    131  C   UNL A   1      46.618  33.764  31.777  1.00  0.00     0.198 A 
ATOM    132  C   UNL A   1      46.524  34.602  29.529  1.00  0.00     0.198 A 
ATOM    133  F   UNL A   1      45.717  33.234  27.796  1.00  0.00    -0.203 F 
ATOM    134  F   UNL A   1      46.872  33.960  33.078  1.00  0.00    -0.200 F 
ATOM    135  C   UNL A   1      46.817  34.795  30.870  1.00  0.00     0.200 A 
ATOM    136  F   UNL A   1      46.733  35.590  28.648  1.00  0.00    -0.200 F 
ATOM    137  F   UNL A   1      47.287  35.978  31.290  1.00  0.00    -0.200 F 
ENDBRANCH 103 127
ENDBRANCH  68  71
ENDBRANCH  58  61
ENDBRANCH  54  57
ENDBRANCH  51  54
ENDBRANCH  48  51
ENDBRANCH  45  48
ENDBRANCH   1  45
TORSDOF 18
ENDMDL
MODEL 10
REMARK VINA RESULT:     -11.8      4.596      8.486
REMARK SMILES C[C@@H](C(=O)NCCCCCCNC(=O)c1ccc(-c2c3nc(c(-c4c(F)c(F)c(F)c(F)c4F)c4ccc([nH]4)c(-c4c(F)c(F)c(F)c(F)c4F)c4nc(c(-c5c(F)c(F)c(F)c(F)c5F)c5ccc2[nH]5)C=C4)C=C3)cc1)c1ccc(C[C@H]2CCC[C@@H]2O)cc1
REMARK SMILES IDX 7 1 6 4 5 7 3 8 4 9 2 11 1 13 78 17 79 18 90 19 80 20 89 22
REMARK SMILES IDX 81 24 82 27 83 30 84 31 87 32 85 34 86 37 88 43 8 45 9 48
REMARK SMILES IDX 10 51 11 54 12 57 13 58 14 60 15 61 16 62 77 63 17 64 76 66
REMARK SMILES IDX 18 68 19 71 20 72 70 73 21 74 75 75 69 76 71 77 22 78 74 79
REMARK SMILES IDX 68 81 67 83 23 85 55 88 35 89 54 90 36 91 39 92 53 93 72 94
REMARK SMILES IDX 37 95 38 97 52 99 73 100 40 103 24 105 25 106 33 107 26 108
REMARK SMILES IDX 27 109 31 110 34 111 28 112 29 113 32 114 30 115 56 116
REMARK SMILES IDX 57 117 65 118 58 119 59 120 63 121 66 122 60 123 61 124
REMARK SMILES IDX 64 125 62 126 41 127 42 128 50 129 43 130 44 131 48 132
REMARK SMILES IDX 51 133 45 134 46 135 49 136 47 137
REMARK H PARENT 7 2 7 3 6 5 6 6 5 10 2 12 1 14 1 15 1 16 79 21 90 23 80 25
REMARK H PARENT 89 26 82 28 82 29 83 33 84 35 84 36 87 38 85 39 85 40 86 41
REMARK H PARENT 86 42 88 44 8 46 8 47 9 49 9 50 10 52 10 53 11 55 11 56 12 59
REMARK H PARENT 16 65 77 67 17 69 76 70 75 80 69 82 71 84 74 86 68 87 36 96
REMARK H PARENT 39 98 72 101 37 102 73 104
REMARK Flexibility Score: inf
ROOT
ATOM      1  C   UNL A   1      35.775  33.983  34.659  1.00  0.00    -0.036 C 
ATOM      2  H   UNL A   1      35.114  34.337  35.422  1.00  0.00     0.028 H 
ATOM      3  H   UNL A   1      35.575  32.969  34.380  1.00  0.00     0.028 H 
ENDROOT
BRANCH   1   4
ATOM      4  C   UNL A   1      37.204  34.018  35.208  1.00  0.00     0.017 C 
ATOM      5  H   UNL A   1      37.897  33.977  34.394  1.00  0.00     0.049 H 
ATOM      6  H   UNL A   1      37.343  34.923  35.761  1.00  0.00     0.049 H 
BRANCH   4   7
ATOM      7  N   UNL A   1      37.431  32.891  36.084  1.00  0.00    -0.356 N 
ATOM      8  C   UNL A   1      37.871  31.631  35.807  1.00  0.00     0.227 C 
ATOM      9  O   UNL A   1      37.816  30.827  36.738  1.00  0.00    -0.274 OA
ATOM     10  H   UNL A   1      37.237  33.060  37.034  1.00  0.00     0.163 HD
BRANCH   8  11
ATOM     11  C   UNL A   1      38.441  31.313  34.416  1.00  0.00     0.060 C 
ATOM     12  H   UNL A   1      38.640  32.285  34.015  1.00  0.00     0.045 H 
BRANCH  11  13
ATOM     13  C   UNL A   1      37.458  30.568  33.506  1.00  0.00    -0.049 C 
ATOM     14  H   UNL A   1      37.169  29.648  33.970  1.00  0.00     0.024 H 
ATOM     15  H   UNL A   1      37.928  30.360  32.567  1.00  0.00     0.024 H 
ATOM     16  H   UNL A   1      36.592  31.174  33.345  1.00  0.00     0.024 H 
ENDBRANCH  11  13
BRANCH  11  17
ATOM     17  C   UNL A   1      39.734  30.506  34.449  1.00  0.00    -0.036 A 
ATOM     18  C   UNL A   1      39.907  29.431  33.568  1.00  0.00    -0.058 A 
ATOM     19  C   UNL A   1      40.715  30.744  35.423  1.00  0.00    -0.058 A 
ATOM     20  C   UNL A   1      41.011  28.588  33.693  1.00  0.00    -0.059 A 
ATOM     21  H   UNL A   1      39.213  29.260  32.824  1.00  0.00     0.063 H 
ATOM     22  C   UNL A   1      41.818  29.904  35.544  1.00  0.00    -0.059 A 
ATOM     23  H   UNL A   1      40.618  31.552  36.057  1.00  0.00     0.063 H 
ATOM     24  C   UNL A   1      41.948  28.787  34.714  1.00  0.00    -0.048 A 
ATOM     25  H   UNL A   1      41.139  27.811  33.026  1.00  0.00     0.063 H 
ATOM     26  H   UNL A   1      42.542  30.106  36.250  1.00  0.00     0.063 H 
BRANCH  24  27
ATOM     27  C   UNL A   1      43.034  27.774  34.979  1.00  0.00    -0.023 C 
ATOM     28  H   UNL A   1      43.262  27.798  36.025  1.00  0.00     0.032 H 
ATOM     29  H   UNL A   1      43.862  28.053  34.361  1.00  0.00     0.032 H 
BRANCH  27  30
ATOM     30  C   UNL A   1      42.676  26.326  34.599  1.00  0.00    -0.011 C 
ATOM     31  C   UNL A   1      43.792  25.486  33.955  1.00  0.00    -0.048 C 
ATOM     32  C   UNL A   1      42.172  25.454  35.752  1.00  0.00     0.057 C 
ATOM     33  H   UNL A   1      41.905  26.540  33.889  1.00  0.00     0.033 H 
ATOM     34  C   UNL A   1      43.592  24.053  34.461  1.00  0.00    -0.050 C 
ATOM     35  H   UNL A   1      44.753  25.854  34.252  1.00  0.00     0.027 H 
ATOM     36  H   UNL A   1      43.751  25.533  32.887  1.00  0.00     0.027 H 
ATOM     37  C   UNL A   1      42.245  24.053  35.167  1.00  0.00    -0.027 C 
ATOM     38  H   UNL A   1      42.741  25.560  36.652  1.00  0.00     0.060 H 
ATOM     39  H   UNL A   1      44.371  23.785  35.143  1.00  0.00     0.027 H 
ATOM     40  H   UNL A   1      43.619  23.343  33.660  1.00  0.00     0.027 H 
ATOM     41  H   UNL A   1      42.214  23.311  35.938  1.00  0.00     0.029 H 
ATOM     42  H   UNL A   1      41.427  23.821  34.518  1.00  0.00     0.029 H 
BRANCH  32  43
ATOM     43  O   UNL A   1      40.852  25.805  36.120  1.00  0.00    -0.393 OA
ATOM     44  H   UNL A   1      40.723  25.633  37.065  1.00  0.00     0.210 HD
ENDBRANCH  32  43
ENDBRANCH  27  30
ENDBRANCH  24  27
ENDBRANCH  11  17
ENDBRANCH   8  11
ENDBRANCH   4   7
ENDBRANCH   1   4
BRANCH   1  45
ATOM     45  C   UNL A   1      35.570  34.840  33.403  1.00  0.00    -0.052 C 
ATOM     46  H   UNL A   1      35.470  34.183  32.565  1.00  0.00     0.027 H 
ATOM     47  H   UNL A   1      36.423  35.484  33.334  1.00  0.00     0.027 H 
BRANCH  45  48
ATOM     48  C   UNL A   1      34.343  35.755  33.441  1.00  0.00    -0.052 C 
ATOM     49  H   UNL A   1      34.665  36.755  33.238  1.00  0.00     0.027 H 
ATOM     50  H   UNL A   1      33.910  35.643  34.413  1.00  0.00     0.027 H 
BRANCH  48  51
ATOM     51  C   UNL A   1      33.252  35.392  32.434  1.00  0.00    -0.036 C 
ATOM     52  H   UNL A   1      32.302  35.619  32.869  1.00  0.00     0.028 H 
ATOM     53  H   UNL A   1      33.368  34.351  32.214  1.00  0.00     0.028 H 
BRANCH  51  54
ATOM     54  C   UNL A   1      33.361  36.134  31.109  1.00  0.00     0.018 C 
ATOM     55  H   UNL A   1      34.394  36.319  30.901  1.00  0.00     0.049 H 
ATOM     56  H   UNL A   1      32.814  37.050  31.197  1.00  0.00     0.049 H 
BRANCH  54  57
ATOM     57  N   UNL A   1      32.789  35.372  30.011  1.00  0.00    -0.352 N 
ATOM     58  C   UNL A   1      33.390  34.436  29.212  1.00  0.00     0.251 C 
ATOM     59  H   UNL A   1      31.842  35.553  29.816  1.00  0.00     0.163 HD
ATOM     60  O   UNL A   1      32.832  34.035  28.193  1.00  0.00    -0.269 OA
BRANCH  58  61
ATOM     61  C   UNL A   1      34.725  33.918  29.574  1.00  0.00     0.039 A 
ATOM     62  C   UNL A   1      34.820  32.863  30.483  1.00  0.00    -0.049 A 
ATOM     63  C   UNL A   1      35.879  34.479  29.020  1.00  0.00    -0.049 A 
ATOM     64  C   UNL A   1      36.074  32.348  30.812  1.00  0.00    -0.053 A 
ATOM     65  H   UNL A   1      33.968  32.468  30.911  1.00  0.00     0.063 H 
ATOM     66  C   UNL A   1      37.119  33.907  29.278  1.00  0.00    -0.053 A 
ATOM     67  H   UNL A   1      35.811  35.317  28.422  1.00  0.00     0.063 H 
ATOM     68  C   UNL A   1      37.232  32.853  30.197  1.00  0.00    -0.014 A 
ATOM     69  H   UNL A   1      36.153  31.592  31.510  1.00  0.00     0.063 H 
ATOM     70  H   UNL A   1      37.959  34.258  28.793  1.00  0.00     0.063 H 
BRANCH  68  71
ATOM     71  C   UNL A   1      38.576  32.326  30.538  1.00  0.00     0.031 A 
ATOM     72  C   UNL A   1      39.053  31.040  29.920  1.00  0.00     0.074 A 
ATOM     73  C   UNL A   1      39.344  32.970  31.437  1.00  0.00     0.049 A 
ATOM     74  N   UNL A   1      40.170  30.387  30.118  1.00  0.00    -0.248 NA
ATOM     75  C   UNL A   1      38.134  30.381  28.978  1.00  0.00    -0.034 C 
ATOM     76  C   UNL A   1      38.976  34.204  32.133  1.00  0.00    -0.036 A 
ATOM     77  N   UNL A   1      40.595  32.676  31.918  1.00  0.00    -0.354 N 
ATOM     78  C   UNL A   1      40.077  29.237  29.345  1.00  0.00     0.074 A 
ATOM     79  C   UNL A   1      38.770  29.248  28.726  1.00  0.00    -0.034 C 
ATOM     80  H   UNL A   1      37.230  30.715  28.609  1.00  0.00     0.065 H 
ATOM     81  C   UNL A   1      39.992  34.580  32.925  1.00  0.00    -0.036 A 
ATOM     82  H   UNL A   1      38.079  34.704  32.032  1.00  0.00     0.065 H 
ATOM     83  C   UNL A   1      41.065  33.595  32.823  1.00  0.00     0.049 A 
ATOM     84  H   UNL A   1      41.105  31.881  31.642  1.00  0.00     0.167 HD
ATOM     85  C   UNL A   1      41.006  28.271  29.148  1.00  0.00     0.037 A 
ATOM     86  H   UNL A   1      38.384  28.474  28.162  1.00  0.00     0.065 H 
ATOM     87  H   UNL A   1      40.012  35.428  33.512  1.00  0.00     0.065 H 
ATOM     88  C   UNL A   1      42.234  33.636  33.492  1.00  0.00     0.037 A 
ATOM     89  C   UNL A   1      42.315  28.281  29.747  1.00  0.00     0.049 A 
ATOM     90  C   UNL A   1      43.247  32.547  33.264  1.00  0.00     0.074 A 
ATOM     91  C   UNL A   1      43.355  27.388  29.564  1.00  0.00    -0.036 A 
ATOM     92  N   UNL A   1      42.760  29.233  30.655  1.00  0.00    -0.354 N 
ATOM     93  N   UNL A   1      43.180  31.502  32.474  1.00  0.00    -0.248 NA
ATOM     94  C   UNL A   1      44.505  32.651  34.015  1.00  0.00    -0.034 C 
ATOM     95  C   UNL A   1      44.407  27.764  30.407  1.00  0.00    -0.036 A 
ATOM     96  H   UNL A   1      43.357  26.585  28.916  1.00  0.00     0.065 H 
ATOM     97  C   UNL A   1      44.050  28.932  31.062  1.00  0.00     0.049 A 
ATOM     98  H   UNL A   1      42.235  30.008  30.963  1.00  0.00     0.167 HD
ATOM     99  C   UNL A   1      44.399  30.849  32.599  1.00  0.00     0.074 A 
ATOM    100  C   UNL A   1      45.188  31.620  33.537  1.00  0.00    -0.034 C 
ATOM    101  H   UNL A   1      44.784  33.344  34.727  1.00  0.00     0.065 H 
ATOM    102  H   UNL A   1      45.298  27.256  30.522  1.00  0.00     0.065 H 
ATOM    103  C   UNL A   1      44.828  29.718  31.987  1.00  0.00     0.037 A 
ATOM    104  H   UNL A   1      46.161  31.396  33.801  1.00  0.00     0.065 H 
BRANCH  85 105
ATOM    105  C   UNL A   1      40.630  27.119  28.259  1.00  0.00     0.064 A 
ATOM    106  C   UNL A   1      41.174  26.963  26.973  1.00  0.00     0.173 A 
ATOM    107  C   UNL A   1      39.714  26.153  28.699  1.00  0.00     0.173 A 
ATOM    108  F   UNL A   1      42.047  27.864  26.494  1.00  0.00    -0.203 F 
ATOM    109  C   UNL A   1      40.778  25.914  26.147  1.00  0.00     0.198 A 
ATOM    110  C   UNL A   1      39.350  25.082  27.887  1.00  0.00     0.198 A 
ATOM    111  F   UNL A   1      39.166  26.246  29.921  1.00  0.00    -0.203 F 
ATOM    112  F   UNL A   1      41.256  25.829  24.898  1.00  0.00    -0.200 F 
ATOM    113  C   UNL A   1      39.871  24.971  26.607  1.00  0.00     0.200 A 
ATOM    114  F   UNL A   1      38.485  24.163  28.338  1.00  0.00    -0.200 F 
ATOM    115  F   UNL A   1      39.491  23.961  25.812  1.00  0.00    -0.200 F 
ENDBRANCH  85 105
BRANCH  88 116
ATOM    116  C   UNL A   1      42.527  34.774  34.401  1.00  0.00     0.064 A 
ATOM    117  C   UNL A   1      43.047  35.976  33.900  1.00  0.00     0.173 A 
ATOM    118  C   UNL A   1      42.294  34.690  35.782  1.00  0.00     0.173 A 
ATOM    119  F   UNL A   1      43.305  36.098  32.590  1.00  0.00    -0.203 F 
ATOM    120  C   UNL A   1      43.341  37.043  34.746  1.00  0.00     0.198 A 
ATOM    121  C   UNL A   1      42.561  35.769  36.623  1.00  0.00     0.198 A 
ATOM    122  F   UNL A   1      41.791  33.566  36.311  1.00  0.00    -0.203 F 
ATOM    123  F   UNL A   1      43.880  38.163  34.245  1.00  0.00    -0.200 F 
ATOM    124  C   UNL A   1      43.092  36.941  36.106  1.00  0.00     0.200 A 
ATOM    125  F   UNL A   1      42.303  35.672  37.934  1.00  0.00    -0.200 F 
ATOM    126  F   UNL A   1      43.370  37.970  36.919  1.00  0.00    -0.200 F 
ENDBRANCH  88 116
BRANCH 103 127
ATOM    127  C   UNL A   1      46.238  29.274  32.263  1.00  0.00     0.064 A 
ATOM    128  C   UNL A   1      46.575  28.526  33.400  1.00  0.00     0.173 A 
ATOM    129  C   UNL A   1      47.262  29.579  31.352  1.00  0.00     0.173 A 
ATOM    130  F   UNL A   1      45.637  28.219  34.310  1.00  0.00    -0.203 F 
ATOM    131  C   UNL A   1      47.889  28.127  33.631  1.00  0.00     0.198 A 
ATOM    132  C   UNL A   1      48.567  29.147  31.567  1.00  0.00     0.198 A 
ATOM    133  F   UNL A   1      46.993  30.285  30.243  1.00  0.00    -0.203 F 
ATOM    134  F   UNL A   1      48.198  27.464  34.754  1.00  0.00    -0.200 F 
ATOM    135  C   UNL A   1      48.882  28.432  32.712  1.00  0.00     0.200 A 
ATOM    136  F   UNL A   1      49.521  29.426  30.667  1.00  0.00    -0.200 F 
ATOM    137  F   UNL A   1      50.145  28.040  32.932  1.00  0.00    -0.200 F 
ENDBRANCH 103 127
ENDBRANCH  68  71
ENDBRANCH  58  61
ENDBRANCH  54  57
ENDBRANCH  51  54
ENDBRANCH  48  51
ENDBRANCH  45  48
ENDBRANCH   1  45
TORSDOF 18
ENDMDL
