MODEL 1
REMARK VINA RESULT:     -12.3      0.000      0.000
REMARK SMILES Cc1cc(=O)c(Oc2ccc(C(=O)NCCCCCCNC(=O)c3ccc(-c4c5nc(c(-c6c(F)c(F)c(F)c(F)c6F)c6ccc([nH]6)c(-c6c(F)c(F)c(F)c(F)c6F)c6nc(c(-c7c(F)c(F)c(F)c(F)c7F)c7ccc4[nH]7)C=C6)C=C5)cc3)cc2)c(-c2ccc(S(C)(=O)=O)cc2)o1
REMARK SMILES IDX 16 1 15 4 14 7 12 8 13 9 11 11 8 12 9 13 88 14 10 15 87 17
REMARK SMILES IDX 7 21 6 22 2 23 3 24 100 25 4 26 89 28 5 29 1 30 90 34 91 35
REMARK SMILES IDX 99 36 92 37 98 39 93 41 94 44 96 45 97 46 95 47 17 51 18 54
REMARK SMILES IDX 19 57 20 60 21 63 22 64 23 66 24 67 25 68 86 69 26 70 85 72
REMARK SMILES IDX 27 74 28 77 29 78 79 79 30 80 84 81 78 82 80 83 31 84 83 85
REMARK SMILES IDX 77 87 76 89 32 91 64 94 44 95 63 96 45 97 48 98 62 99 81 100
REMARK SMILES IDX 46 101 47 103 61 105 82 106 49 109 33 111 34 112 42 113
REMARK SMILES IDX 35 114 36 115 40 116 43 117 37 118 38 119 41 120 39 121
REMARK SMILES IDX 65 122 66 123 74 124 67 125 68 126 72 127 75 128 69 129
REMARK SMILES IDX 70 130 73 131 71 132 50 133 51 134 59 135 52 136 53 137
REMARK SMILES IDX 57 138 60 139 54 140 55 141 58 142 56 143
REMARK H PARENT 16 2 16 3 15 5 15 6 14 10 9 16 88 18 10 19 87 20 3 27 1 31
REMARK H PARENT 1 32 1 33 91 38 99 40 92 42 98 43 95 48 95 49 95 50 17 52
REMARK H PARENT 17 53 18 55 18 56 19 58 19 59 20 61 20 62 21 65 25 71 86 73
REMARK H PARENT 26 75 85 76 84 86 78 88 80 90 83 92 77 93 45 102 48 104 81 107
REMARK H PARENT 46 108 82 110
REMARK Flexibility Score: inf
ROOT
ATOM      1  C   UNL A   1      36.072  31.866  28.048  1.00  0.00    -0.036 C 
ATOM      2  H   UNL A   1      36.325  31.501  27.075  1.00  0.00     0.028 H 
ATOM      3  H   UNL A   1      36.729  31.565  28.838  1.00  0.00     0.028 H 
ENDROOT
BRANCH   1   4
ATOM      4  C   UNL A   1      34.718  31.270  28.421  1.00  0.00     0.018 C 
ATOM      5  H   UNL A   1      34.818  30.204  28.415  1.00  0.00     0.049 H 
ATOM      6  H   UNL A   1      34.474  31.680  29.378  1.00  0.00     0.049 H 
BRANCH   4   7
ATOM      7  N   UNL A   1      33.613  31.617  27.552  1.00  0.00    -0.352 N 
ATOM      8  C   UNL A   1      32.643  30.829  26.973  1.00  0.00     0.251 C 
ATOM      9  O   UNL A   1      31.719  31.370  26.368  1.00  0.00    -0.269 OA
ATOM     10  H   UNL A   1      33.543  32.576  27.341  1.00  0.00     0.163 HD
BRANCH   8  11
ATOM     11  C   UNL A   1      32.743  29.343  26.958  1.00  0.00     0.040 A 
ATOM     12  C   UNL A   1      32.555  26.618  26.418  1.00  0.00     0.127 A 
ATOM     13  C   UNL A   1      31.540  27.239  27.135  1.00  0.00    -0.019 A 
ATOM     14  C   UNL A   1      33.752  27.292  26.184  1.00  0.00    -0.019 A 
ATOM     15  C   UNL A   1      31.616  28.615  27.370  1.00  0.00    -0.046 A 
ATOM     16  H   UNL A   1      30.740  26.692  27.491  1.00  0.00     0.066 H 
ATOM     17  C   UNL A   1      33.859  28.649  26.489  1.00  0.00    -0.046 A 
ATOM     18  H   UNL A   1      34.559  26.787  25.785  1.00  0.00     0.066 H 
ATOM     19  H   UNL A   1      30.840  29.097  27.849  1.00  0.00     0.063 H 
ATOM     20  H   UNL A   1      34.760  29.137  26.370  1.00  0.00     0.063 H 
BRANCH  12  21
ATOM     21  O   UNL A   1      32.479  25.328  25.989  1.00  0.00    -0.449 OA
BRANCH  21  22
ATOM     22  C   UNL A   1      32.612  24.940  24.661  1.00  0.00     0.217 A 
ATOM     23  C   UNL A   1      33.110  23.739  22.138  1.00  0.00     0.105 A 
ATOM     24  C   UNL A   1      33.803  23.247  23.166  1.00  0.00     0.028 A 
ATOM     25  O   UNL A   1      32.259  24.816  22.267  1.00  0.00    -0.457 OA
ATOM     26  C   UNL A   1      33.628  23.850  24.494  1.00  0.00     0.228 A 
ATOM     27  H   UNL A   1      34.452  22.455  23.031  1.00  0.00     0.070 H 
ATOM     28  C   UNL A   1      32.028  25.389  23.516  1.00  0.00     0.180 A 
ATOM     29  O   UNL A   1      34.316  23.447  25.428  1.00  0.00    -0.285 OA
BRANCH  23  30
ATOM     30  C   UNL A   1      33.191  23.175  20.756  1.00  0.00    -0.006 C 
ATOM     31  H   UNL A   1      32.455  22.407  20.640  1.00  0.00     0.031 H 
ATOM     32  H   UNL A   1      34.165  22.762  20.596  1.00  0.00     0.031 H 
ATOM     33  H   UNL A   1      33.012  23.952  20.043  1.00  0.00     0.031 H 
ENDBRANCH  23  30
BRANCH  28  34
ATOM     34  C   UNL A   1      31.059  26.492  23.373  1.00  0.00     0.021 A 
ATOM     35  C   UNL A   1      31.499  27.749  22.921  1.00  0.00    -0.050 A 
ATOM     36  C   UNL A   1      29.703  26.320  23.693  1.00  0.00    -0.050 A 
ATOM     37  C   UNL A   1      30.591  28.789  22.705  1.00  0.00    -0.043 A 
ATOM     38  H   UNL A   1      32.505  27.904  22.747  1.00  0.00     0.063 H 
ATOM     39  C   UNL A   1      28.791  27.362  23.490  1.00  0.00    -0.043 A 
ATOM     40  H   UNL A   1      29.378  25.421  24.080  1.00  0.00     0.063 H 
ATOM     41  C   UNL A   1      29.237  28.585  22.984  1.00  0.00     0.067 A 
ATOM     42  H   UNL A   1      30.918  29.698  22.345  1.00  0.00     0.064 H 
ATOM     43  H   UNL A   1      27.792  27.227  23.715  1.00  0.00     0.064 H 
BRANCH  41  44
ATOM     44  S   UNL A   1      28.070  29.868  22.581  1.00  0.00     0.175 S 
ATOM     45  O   UNL A   1      28.071  30.012  21.140  1.00  0.00    -0.224 OA
ATOM     46  O   UNL A   1      26.845  29.603  23.314  1.00  0.00    -0.224 OA
BRANCH  44  47
ATOM     47  C   UNL A   1      28.793  31.329  23.271  1.00  0.00     0.043 C 
ATOM     48  H   UNL A   1      28.492  31.427  24.293  1.00  0.00     0.040 H 
ATOM     49  H   UNL A   1      28.464  32.184  22.719  1.00  0.00     0.040 H 
ATOM     50  H   UNL A   1      29.859  31.258  23.218  1.00  0.00     0.040 H 
ENDBRANCH  44  47
ENDBRANCH  41  44
ENDBRANCH  28  34
ENDBRANCH  21  22
ENDBRANCH  12  21
ENDBRANCH   8  11
ENDBRANCH   4   7
ENDBRANCH   1   4
BRANCH   1  51
ATOM     51  C   UNL A   1      36.188  33.390  28.008  1.00  0.00    -0.052 C 
ATOM     52  H   UNL A   1      35.657  33.731  27.145  1.00  0.00     0.027 H 
ATOM     53  H   UNL A   1      37.239  33.589  27.999  1.00  0.00     0.027 H 
BRANCH  51  54
ATOM     54  C   UNL A   1      35.648  34.158  29.216  1.00  0.00    -0.052 C 
ATOM     55  H   UNL A   1      36.440  34.775  29.589  1.00  0.00     0.027 H 
ATOM     56  H   UNL A   1      35.308  33.409  29.900  1.00  0.00     0.027 H 
BRANCH  54  57
ATOM     57  C   UNL A   1      34.440  35.057  28.967  1.00  0.00    -0.036 C 
ATOM     58  H   UNL A   1      34.317  35.157  27.910  1.00  0.00     0.028 H 
ATOM     59  H   UNL A   1      34.654  35.976  29.471  1.00  0.00     0.028 H 
BRANCH  57  60
ATOM     60  C   UNL A   1      33.118  34.570  29.545  1.00  0.00     0.018 C 
ATOM     61  H   UNL A   1      33.289  33.637  30.041  1.00  0.00     0.049 H 
ATOM     62  H   UNL A   1      32.433  34.478  28.728  1.00  0.00     0.049 H 
BRANCH  60  63
ATOM     63  N   UNL A   1      32.524  35.496  30.497  1.00  0.00    -0.352 N 
ATOM     64  C   UNL A   1      32.843  35.728  31.816  1.00  0.00     0.251 C 
ATOM     65  H   UNL A   1      31.781  36.038  30.146  1.00  0.00     0.163 HD
ATOM     66  O   UNL A   1      32.148  36.475  32.497  1.00  0.00    -0.269 OA
BRANCH  64  67
ATOM     67  C   UNL A   1      34.006  35.047  32.429  1.00  0.00     0.039 A 
ATOM     68  C   UNL A   1      35.253  35.668  32.491  1.00  0.00    -0.049 A 
ATOM     69  C   UNL A   1      33.848  33.752  32.935  1.00  0.00    -0.049 A 
ATOM     70  C   UNL A   1      36.371  34.935  32.871  1.00  0.00    -0.053 A 
ATOM     71  H   UNL A   1      35.345  36.668  32.256  1.00  0.00     0.063 H 
ATOM     72  C   UNL A   1      34.959  33.051  33.417  1.00  0.00    -0.053 A 
ATOM     73  H   UNL A   1      32.914  33.314  32.952  1.00  0.00     0.063 H 
ATOM     74  C   UNL A   1      36.240  33.616  33.338  1.00  0.00    -0.014 A 
ATOM     75  H   UNL A   1      37.308  35.364  32.810  1.00  0.00     0.063 H 
ATOM     76  H   UNL A   1      34.835  32.114  33.832  1.00  0.00     0.063 H 
BRANCH  74  77
ATOM     77  C   UNL A   1      37.459  32.862  33.739  1.00  0.00     0.031 A 
ATOM     78  C   UNL A   1      38.087  31.851  32.815  1.00  0.00     0.074 A 
ATOM     79  C   UNL A   1      38.041  33.138  34.922  1.00  0.00     0.049 A 
ATOM     80  N   UNL A   1      39.178  31.146  32.984  1.00  0.00    -0.248 NA
ATOM     81  C   UNL A   1      37.401  31.592  31.540  1.00  0.00    -0.034 C 
ATOM     82  C   UNL A   1      37.530  34.098  35.902  1.00  0.00    -0.036 A 
ATOM     83  N   UNL A   1      39.198  32.668  35.491  1.00  0.00    -0.354 N 
ATOM     84  C   UNL A   1      39.302  30.356  31.848  1.00  0.00     0.074 A 
ATOM     85  C   UNL A   1      38.155  30.636  31.013  1.00  0.00    -0.034 C 
ATOM     86  H   UNL A   1      36.554  32.038  31.155  1.00  0.00     0.065 H 
ATOM     87  C   UNL A   1      38.399  34.195  36.918  1.00  0.00    -0.036 A 
ATOM     88  H   UNL A   1      36.641  34.618  35.823  1.00  0.00     0.065 H 
ATOM     89  C   UNL A   1      39.492  33.254  36.698  1.00  0.00     0.049 A 
ATOM     90  H   UNL A   1      39.762  31.977  35.074  1.00  0.00     0.167 HD
ATOM     91  C   UNL A   1      40.293  29.491  31.523  1.00  0.00     0.037 A 
ATOM     92  H   UNL A   1      37.948  30.154  30.124  1.00  0.00     0.065 H 
ATOM     93  H   UNL A   1      38.309  34.831  37.725  1.00  0.00     0.065 H 
ATOM     94  C   UNL A   1      40.522  33.052  37.543  1.00  0.00     0.037 A 
ATOM     95  C   UNL A   1      41.444  29.227  32.349  1.00  0.00     0.049 A 
ATOM     96  C   UNL A   1      41.580  32.048  37.183  1.00  0.00     0.074 A 
ATOM     97  C   UNL A   1      42.514  28.388  32.093  1.00  0.00    -0.036 A 
ATOM     98  N   UNL A   1      41.671  29.794  33.595  1.00  0.00    -0.354 N 
ATOM     99  N   UNL A   1      41.699  31.331  36.094  1.00  0.00    -0.248 NA
ATOM    100  C   UNL A   1      42.641  31.820  38.173  1.00  0.00    -0.034 C 
ATOM    101  C   UNL A   1      43.359  28.403  33.205  1.00  0.00    -0.036 A 
ATOM    102  H   UNL A   1      42.663  27.846  31.227  1.00  0.00     0.065 H 
ATOM    103  C   UNL A   1      42.850  29.298  34.132  1.00  0.00     0.049 A 
ATOM    104  H   UNL A   1      41.084  30.451  34.034  1.00  0.00     0.167 HD
ATOM    105  C   UNL A   1      42.853  30.578  36.256  1.00  0.00     0.074 A 
ATOM    106  C   UNL A   1      43.410  30.941  37.544  1.00  0.00    -0.034 C 
ATOM    107  H   UNL A   1      42.758  32.235  39.110  1.00  0.00     0.065 H 
ATOM    108  H   UNL A   1      44.217  27.840  33.318  1.00  0.00     0.065 H 
ATOM    109  C   UNL A   1      43.397  29.668  35.414  1.00  0.00     0.037 A 
ATOM    110  H   UNL A   1      44.292  30.562  37.924  1.00  0.00     0.065 H 
BRANCH  91 111
ATOM    111  C   UNL A   1      40.185  28.753  30.217  1.00  0.00     0.064 A 
ATOM    112  C   UNL A   1      40.775  29.243  29.043  1.00  0.00     0.173 A 
ATOM    113  C   UNL A   1      39.539  27.508  30.154  1.00  0.00     0.173 A 
ATOM    114  F   UNL A   1      41.399  30.431  29.045  1.00  0.00    -0.203 F 
ATOM    115  C   UNL A   1      40.705  28.526  27.850  1.00  0.00     0.198 A 
ATOM    116  C   UNL A   1      39.498  26.780  28.968  1.00  0.00     0.198 A 
ATOM    117  F   UNL A   1      38.966  26.988  31.248  1.00  0.00    -0.203 F 
ATOM    118  F   UNL A   1      41.242  29.035  26.732  1.00  0.00    -0.200 F 
ATOM    119  C   UNL A   1      40.075  27.291  27.816  1.00  0.00     0.200 A 
ATOM    120  F   UNL A   1      38.905  25.578  28.941  1.00  0.00    -0.200 F 
ATOM    121  F   UNL A   1      40.022  26.595  26.671  1.00  0.00    -0.200 F 
ENDBRANCH  91 111
BRANCH  94 122
ATOM    122  C   UNL A   1      40.595  33.840  38.800  1.00  0.00     0.064 A 
ATOM    123  C   UNL A   1      41.326  35.034  38.859  1.00  0.00     0.173 A 
ATOM    124  C   UNL A   1      39.891  33.448  39.949  1.00  0.00     0.173 A 
ATOM    125  F   UNL A   1      42.030  35.441  37.793  1.00  0.00    -0.203 F 
ATOM    126  C   UNL A   1      41.347  35.807  40.018  1.00  0.00     0.198 A 
ATOM    127  C   UNL A   1      39.888  34.237  41.097  1.00  0.00     0.198 A 
ATOM    128  F   UNL A   1      39.171  32.316  39.942  1.00  0.00    -0.203 F 
ATOM    129  F   UNL A   1      42.073  36.933  40.056  1.00  0.00    -0.200 F 
ATOM    130  C   UNL A   1      40.620  35.414  41.131  1.00  0.00     0.200 A 
ATOM    131  F   UNL A   1      39.166  33.864  42.162  1.00  0.00    -0.200 F 
ATOM    132  F   UNL A   1      40.621  36.171  42.237  1.00  0.00    -0.200 F 
ENDBRANCH  94 122
BRANCH 109 133
ATOM    133  C   UNL A   1      44.674  28.999  35.836  1.00  0.00     0.064 A 
ATOM    134  C   UNL A   1      44.667  27.780  36.529  1.00  0.00     0.173 A 
ATOM    135  C   UNL A   1      45.915  29.539  35.466  1.00  0.00     0.173 A 
ATOM    136  F   UNL A   1      43.508  27.231  36.918  1.00  0.00    -0.203 F 
ATOM    137  C   UNL A   1      45.859  27.129  36.842  1.00  0.00     0.198 A 
ATOM    138  C   UNL A   1      47.101  28.870  35.753  1.00  0.00     0.198 A 
ATOM    139  F   UNL A   1      45.976  30.700  34.796  1.00  0.00    -0.203 F 
ATOM    140  F   UNL A   1      45.830  25.980  37.530  1.00  0.00    -0.200 F 
ATOM    141  C   UNL A   1      47.073  27.668  36.443  1.00  0.00     0.200 A 
ATOM    142  F   UNL A   1      48.273  29.383  35.352  1.00  0.00    -0.200 F 
ATOM    143  F   UNL A   1      48.216  27.028  36.724  1.00  0.00    -0.200 F 
ENDBRANCH 109 133
ENDBRANCH  74  77
ENDBRANCH  64  67
ENDBRANCH  60  63
ENDBRANCH  57  60
ENDBRANCH  54  57
ENDBRANCH  51  54
ENDBRANCH   1  51
TORSDOF 19
ENDMDL
MODEL 2
REMARK VINA RESULT:     -12.0      0.361      6.904
REMARK SMILES Cc1cc(=O)c(Oc2ccc(C(=O)NCCCCCCNC(=O)c3ccc(-c4c5nc(c(-c6c(F)c(F)c(F)c(F)c6F)c6ccc([nH]6)c(-c6c(F)c(F)c(F)c(F)c6F)c6nc(c(-c7c(F)c(F)c(F)c(F)c7F)c7ccc4[nH]7)C=C6)C=C5)cc3)cc2)c(-c2ccc(S(C)(=O)=O)cc2)o1
REMARK SMILES IDX 16 1 15 4 14 7 12 8 13 9 11 11 8 12 9 13 88 14 10 15 87 17
REMARK SMILES IDX 7 21 6 22 2 23 3 24 100 25 4 26 89 28 5 29 1 30 90 34 91 35
REMARK SMILES IDX 99 36 92 37 98 39 93 41 94 44 96 45 97 46 95 47 17 51 18 54
REMARK SMILES IDX 19 57 20 60 21 63 22 64 23 66 24 67 25 68 86 69 26 70 85 72
REMARK SMILES IDX 27 74 28 77 29 78 79 79 30 80 84 81 78 82 80 83 31 84 83 85
REMARK SMILES IDX 77 87 76 89 32 91 64 94 44 95 63 96 45 97 48 98 62 99 81 100
REMARK SMILES IDX 46 101 47 103 61 105 82 106 49 109 33 111 34 112 42 113
REMARK SMILES IDX 35 114 36 115 40 116 43 117 37 118 38 119 41 120 39 121
REMARK SMILES IDX 65 122 66 123 74 124 67 125 68 126 72 127 75 128 69 129
REMARK SMILES IDX 70 130 73 131 71 132 50 133 51 134 59 135 52 136 53 137
REMARK SMILES IDX 57 138 60 139 54 140 55 141 58 142 56 143
REMARK H PARENT 16 2 16 3 15 5 15 6 14 10 9 16 88 18 10 19 87 20 3 27 1 31
REMARK H PARENT 1 32 1 33 91 38 99 40 92 42 98 43 95 48 95 49 95 50 17 52
REMARK H PARENT 17 53 18 55 18 56 19 58 19 59 20 61 20 62 21 65 25 71 86 73
REMARK H PARENT 26 75 85 76 84 86 78 88 80 90 83 92 77 93 45 102 48 104 81 107
REMARK H PARENT 46 108 82 110
REMARK Flexibility Score: inf
ROOT
ATOM      1  C   UNL A   1      36.049  32.116  28.001  1.00  0.00    -0.036 C 
ATOM      2  H   UNL A   1      36.270  32.252  26.963  1.00  0.00     0.028 H 
ATOM      3  H   UNL A   1      36.835  31.682  28.585  1.00  0.00     0.028 H 
ENDROOT
BRANCH   1   4
ATOM      4  C   UNL A   1      34.900  31.117  28.096  1.00  0.00     0.018 C 
ATOM      5  H   UNL A   1      35.254  30.175  27.728  1.00  0.00     0.049 H 
ATOM      6  H   UNL A   1      34.614  31.102  29.127  1.00  0.00     0.049 H 
BRANCH   4   7
ATOM      7  N   UNL A   1      33.701  31.459  27.361  1.00  0.00    -0.352 N 
ATOM      8  C   UNL A   1      32.672  30.668  26.900  1.00  0.00     0.251 C 
ATOM      9  O   UNL A   1      31.683  31.206  26.404  1.00  0.00    -0.269 OA
ATOM     10  H   UNL A   1      33.605  32.418  27.157  1.00  0.00     0.163 HD
BRANCH   8  11
ATOM     11  C   UNL A   1      32.773  29.182  26.877  1.00  0.00     0.040 A 
ATOM     12  C   UNL A   1      32.603  26.462  26.311  1.00  0.00     0.127 A 
ATOM     13  C   UNL A   1      31.565  27.077  27.000  1.00  0.00    -0.019 A 
ATOM     14  C   UNL A   1      33.807  27.137  26.122  1.00  0.00    -0.019 A 
ATOM     15  C   UNL A   1      31.633  28.452  27.247  1.00  0.00    -0.046 A 
ATOM     16  H   UNL A   1      30.754  26.528  27.325  1.00  0.00     0.066 H 
ATOM     17  C   UNL A   1      33.904  28.492  26.440  1.00  0.00    -0.046 A 
ATOM     18  H   UNL A   1      34.627  26.635  25.745  1.00  0.00     0.066 H 
ATOM     19  H   UNL A   1      30.842  28.931  27.704  1.00  0.00     0.063 H 
ATOM     20  H   UNL A   1      34.808  28.980  26.353  1.00  0.00     0.063 H 
BRANCH  12  21
ATOM     21  O   UNL A   1      32.541  25.174  25.870  1.00  0.00    -0.449 OA
BRANCH  21  22
ATOM     22  C   UNL A   1      32.668  24.802  24.537  1.00  0.00     0.217 A 
ATOM     23  C   UNL A   1      33.147  23.625  22.000  1.00  0.00     0.105 A 
ATOM     24  C   UNL A   1      33.832  23.108  23.022  1.00  0.00     0.028 A 
ATOM     25  O   UNL A   1      32.313  24.713  22.142  1.00  0.00    -0.457 OA
ATOM     26  C   UNL A   1      33.667  23.697  24.356  1.00  0.00     0.228 A 
ATOM     27  H   UNL A   1      34.468  22.308  22.876  1.00  0.00     0.070 H 
ATOM     28  C   UNL A   1      32.091  25.274  23.398  1.00  0.00     0.180 A 
ATOM     29  O   UNL A   1      34.348  23.272  25.285  1.00  0.00    -0.285 OA
BRANCH  23  30
ATOM     30  C   UNL A   1      33.219  23.077  20.610  1.00  0.00    -0.006 C 
ATOM     31  H   UNL A   1      33.787  23.742  19.994  1.00  0.00     0.031 H 
ATOM     32  H   UNL A   1      32.229  22.981  20.214  1.00  0.00     0.031 H 
ATOM     33  H   UNL A   1      33.689  22.117  20.629  1.00  0.00     0.031 H 
ENDBRANCH  23  30
BRANCH  28  34
ATOM     34  C   UNL A   1      31.139  26.394  23.269  1.00  0.00     0.021 A 
ATOM     35  C   UNL A   1      31.572  27.612  22.715  1.00  0.00    -0.050 A 
ATOM     36  C   UNL A   1      29.809  26.277  23.703  1.00  0.00    -0.050 A 
ATOM     37  C   UNL A   1      30.673  28.663  22.512  1.00  0.00    -0.043 A 
ATOM     38  H   UNL A   1      32.564  27.730  22.455  1.00  0.00     0.063 H 
ATOM     39  C   UNL A   1      28.909  27.331  23.514  1.00  0.00    -0.043 A 
ATOM     40  H   UNL A   1      29.495  25.409  24.164  1.00  0.00     0.063 H 
ATOM     41  C   UNL A   1      29.341  28.512  22.906  1.00  0.00     0.067 A 
ATOM     42  H   UNL A   1      30.991  29.542  22.077  1.00  0.00     0.064 H 
ATOM     43  H   UNL A   1      27.928  27.235  23.822  1.00  0.00     0.064 H 
BRANCH  41  44
ATOM     44  S   UNL A   1      28.176  29.803  22.524  1.00  0.00     0.175 S 
ATOM     45  O   UNL A   1      28.290  30.078  21.107  1.00  0.00    -0.224 OA
ATOM     46  O   UNL A   1      26.903  29.447  23.126  1.00  0.00    -0.224 OA
BRANCH  44  47
ATOM     47  C   UNL A   1      28.800  31.209  23.400  1.00  0.00     0.043 C 
ATOM     48  H   UNL A   1      28.263  32.083  23.099  1.00  0.00     0.040 H 
ATOM     49  H   UNL A   1      29.839  31.334  23.178  1.00  0.00     0.040 H 
ATOM     50  H   UNL A   1      28.675  31.057  24.451  1.00  0.00     0.040 H 
ENDBRANCH  44  47
ENDBRANCH  41  44
ENDBRANCH  28  34
ENDBRANCH  21  22
ENDBRANCH  12  21
ENDBRANCH   8  11
ENDBRANCH   4   7
ENDBRANCH   1   4
BRANCH   1  51
ATOM     51  C   UNL A   1      35.835  33.502  28.608  1.00  0.00    -0.052 C 
ATOM     52  H   UNL A   1      35.712  34.192  27.800  1.00  0.00     0.027 H 
ATOM     53  H   UNL A   1      36.695  33.674  29.221  1.00  0.00     0.027 H 
BRANCH  51  54
ATOM     54  C   UNL A   1      34.638  33.671  29.546  1.00  0.00    -0.052 C 
ATOM     55  H   UNL A   1      35.004  34.061  30.473  1.00  0.00     0.027 H 
ATOM     56  H   UNL A   1      34.194  32.700  29.616  1.00  0.00     0.027 H 
BRANCH  54  57
ATOM     57  C   UNL A   1      33.521  34.594  29.065  1.00  0.00    -0.036 C 
ATOM     58  H   UNL A   1      32.591  34.086  29.208  1.00  0.00     0.028 H 
ATOM     59  H   UNL A   1      33.746  34.812  28.042  1.00  0.00     0.028 H 
BRANCH  57  60
ATOM     60  C   UNL A   1      33.427  35.944  29.763  1.00  0.00     0.018 C 
ATOM     61  H   UNL A   1      33.193  36.688  29.030  1.00  0.00     0.049 H 
ATOM     62  H   UNL A   1      34.371  36.119  30.235  1.00  0.00     0.049 H 
BRANCH  60  63
ATOM     63  N   UNL A   1      32.413  35.990  30.805  1.00  0.00    -0.352 N 
ATOM     64  C   UNL A   1      32.460  35.529  32.100  1.00  0.00     0.251 C 
ATOM     65  H   UNL A   1      31.564  36.417  30.544  1.00  0.00     0.163 HD
ATOM     66  O   UNL A   1      31.455  35.557  32.803  1.00  0.00    -0.269 OA
BRANCH  64  67
ATOM     67  C   UNL A   1      33.716  34.959  32.640  1.00  0.00     0.039 A 
ATOM     68  C   UNL A   1      34.912  35.672  32.581  1.00  0.00    -0.049 A 
ATOM     69  C   UNL A   1      33.697  33.676  33.199  1.00  0.00    -0.049 A 
ATOM     70  C   UNL A   1      36.110  35.038  32.893  1.00  0.00    -0.053 A 
ATOM     71  H   UNL A   1      34.909  36.667  32.306  1.00  0.00     0.063 H 
ATOM     72  C   UNL A   1      34.893  33.078  33.612  1.00  0.00    -0.053 A 
ATOM     73  H   UNL A   1      32.803  33.172  33.305  1.00  0.00     0.063 H 
ATOM     74  C   UNL A   1      36.117  33.732  33.412  1.00  0.00    -0.014 A 
ATOM     75  H   UNL A   1      37.004  35.533  32.743  1.00  0.00     0.063 H 
ATOM     76  H   UNL A   1      34.873  32.151  34.067  1.00  0.00     0.063 H 
BRANCH  74  77
ATOM     77  C   UNL A   1      37.417  33.086  33.738  1.00  0.00     0.031 A 
ATOM     78  C   UNL A   1      38.124  33.373  35.037  1.00  0.00     0.074 A 
ATOM     79  C   UNL A   1      37.933  32.184  32.881  1.00  0.00     0.049 A 
ATOM     80  N   UNL A   1      39.234  32.856  35.503  1.00  0.00    -0.248 NA
ATOM     81  C   UNL A   1      37.511  34.370  35.927  1.00  0.00    -0.034 C 
ATOM     82  C   UNL A   1      37.341  31.818  31.593  1.00  0.00    -0.036 A 
ATOM     83  N   UNL A   1      39.047  31.388  32.971  1.00  0.00    -0.354 N 
ATOM     84  C   UNL A   1      39.457  33.472  36.728  1.00  0.00     0.074 A 
ATOM     85  C   UNL A   1      38.391  34.430  36.918  1.00  0.00    -0.034 C 
ATOM     86  H   UNL A   1      36.626  34.888  35.811  1.00  0.00     0.065 H 
ATOM     87  C   UNL A   1      38.058  30.828  31.045  1.00  0.00    -0.036 A 
ATOM     88  H   UNL A   1      36.504  32.255  31.174  1.00  0.00     0.065 H 
ATOM     89  C   UNL A   1      39.200  30.536  31.905  1.00  0.00     0.049 A 
ATOM     90  H   UNL A   1      39.677  31.425  33.728  1.00  0.00     0.167 HD
ATOM     91  C   UNL A   1      40.450  33.244  37.621  1.00  0.00     0.037 A 
ATOM     92  H   UNL A   1      38.323  35.078  37.719  1.00  0.00     0.065 H 
ATOM     93  H   UNL A   1      37.839  30.350  30.157  1.00  0.00     0.065 H 
ATOM     94  C   UNL A   1      40.156  29.625  31.639  1.00  0.00     0.037 A 
ATOM     95  C   UNL A   1      41.502  32.276  37.437  1.00  0.00     0.049 A 
ATOM     96  C   UNL A   1      41.275  29.429  32.622  1.00  0.00     0.074 A 
ATOM     97  C   UNL A   1      42.536  31.954  38.298  1.00  0.00    -0.036 A 
ATOM     98  N   UNL A   1      41.656  31.479  36.312  1.00  0.00    -0.354 N 
ATOM     99  N   UNL A   1      41.457  29.997  33.788  1.00  0.00    -0.248 NA
ATOM    100  C   UNL A   1      42.326  28.474  32.248  1.00  0.00    -0.034 C 
ATOM    101  C   UNL A   1      43.348  31.005  37.671  1.00  0.00    -0.036 A 
ATOM    102  H   UNL A   1      42.682  32.346  39.241  1.00  0.00     0.065 H 
ATOM    103  C   UNL A   1      42.787  30.687  36.445  1.00  0.00     0.049 A 
ATOM    104  H   UNL A   1      41.052  31.474  35.535  1.00  0.00     0.167 HD
ATOM    105  C   UNL A   1      42.631  29.459  34.296  1.00  0.00     0.074 A 
ATOM    106  C   UNL A   1      43.109  28.503  33.318  1.00  0.00    -0.034 C 
ATOM    107  H   UNL A   1      42.428  27.922  31.382  1.00  0.00     0.065 H 
ATOM    108  H   UNL A   1      44.220  30.609  38.057  1.00  0.00     0.065 H 
ATOM    109  C   UNL A   1      43.253  29.736  35.467  1.00  0.00     0.037 A 
ATOM    110  H   UNL A   1      43.953  27.921  33.439  1.00  0.00     0.065 H 
BRANCH  91 111
ATOM    111  C   UNL A   1      40.460  34.057  38.886  1.00  0.00     0.064 A 
ATOM    112  C   UNL A   1      41.126  35.289  38.965  1.00  0.00     0.173 A 
ATOM    113  C   UNL A   1      39.740  33.630  40.013  1.00  0.00     0.173 A 
ATOM    114  F   UNL A   1      41.836  35.741  37.920  1.00  0.00    -0.203 F 
ATOM    115  C   UNL A   1      41.089  36.052  40.130  1.00  0.00     0.198 A 
ATOM    116  C   UNL A   1      39.678  34.411  41.165  1.00  0.00     0.198 A 
ATOM    117  F   UNL A   1      39.076  32.465  39.990  1.00  0.00    -0.203 F 
ATOM    118  F   UNL A   1      41.767  37.207  40.194  1.00  0.00    -0.200 F 
ATOM    119  C   UNL A   1      40.358  35.617  41.225  1.00  0.00     0.200 A 
ATOM    120  F   UNL A   1      38.956  33.997  42.216  1.00  0.00    -0.200 F 
ATOM    121  F   UNL A   1      40.310  36.361  42.340  1.00  0.00    -0.200 F 
ENDBRANCH  91 111
BRANCH  94 122
ATOM    122  C   UNL A   1      40.070  28.824  30.391  1.00  0.00     0.064 A 
ATOM    123  C   UNL A   1      39.413  27.587  30.374  1.00  0.00     0.173 A 
ATOM    124  C   UNL A   1      40.591  29.303  29.179  1.00  0.00     0.173 A 
ATOM    125  F   UNL A   1      38.914  27.078  31.509  1.00  0.00    -0.203 F 
ATOM    126  C   UNL A   1      39.278  26.861  29.192  1.00  0.00     0.198 A 
ATOM    127  C   UNL A   1      40.429  28.592  27.993  1.00  0.00     0.198 A 
ATOM    128  F   UNL A   1      41.225  30.486  29.142  1.00  0.00    -0.203 F 
ATOM    129  F   UNL A   1      38.664  25.670  29.207  1.00  0.00    -0.200 F 
ATOM    130  C   UNL A   1      39.775  27.369  28.002  1.00  0.00     0.200 A 
ATOM    131  F   UNL A   1      40.891  29.097  26.842  1.00  0.00    -0.200 F 
ATOM    132  F   UNL A   1      39.622  26.683  26.861  1.00  0.00    -0.200 F 
ENDBRANCH  94 122
BRANCH 109 133
ATOM    133  C   UNL A   1      44.519  28.991  35.779  1.00  0.00     0.064 A 
ATOM    134  C   UNL A   1      44.497  27.758  36.447  1.00  0.00     0.173 A 
ATOM    135  C   UNL A   1      45.757  29.472  35.326  1.00  0.00     0.173 A 
ATOM    136  F   UNL A   1      43.341  27.263  36.913  1.00  0.00    -0.203 F 
ATOM    137  C   UNL A   1      45.671  27.038  36.657  1.00  0.00     0.198 A 
ATOM    138  C   UNL A   1      46.923  28.735  35.511  1.00  0.00     0.198 A 
ATOM    139  F   UNL A   1      45.831  30.643  34.676  1.00  0.00    -0.203 F 
ATOM    140  F   UNL A   1      45.631  25.877  37.325  1.00  0.00    -0.200 F 
ATOM    141  C   UNL A   1      46.880  27.520  36.178  1.00  0.00     0.200 A 
ATOM    142  F   UNL A   1      48.088  29.194  35.032  1.00  0.00    -0.200 F 
ATOM    143  F   UNL A   1      48.004  26.814  36.361  1.00  0.00    -0.200 F 
ENDBRANCH 109 133
ENDBRANCH  74  77
ENDBRANCH  64  67
ENDBRANCH  60  63
ENDBRANCH  57  60
ENDBRANCH  54  57
ENDBRANCH  51  54
ENDBRANCH   1  51
TORSDOF 19
ENDMDL
MODEL 3
REMARK VINA RESULT:     -11.9      6.911     12.458
REMARK SMILES Cc1cc(=O)c(Oc2ccc(C(=O)NCCCCCCNC(=O)c3ccc(-c4c5nc(c(-c6c(F)c(F)c(F)c(F)c6F)c6ccc([nH]6)c(-c6c(F)c(F)c(F)c(F)c6F)c6nc(c(-c7c(F)c(F)c(F)c(F)c7F)c7ccc4[nH]7)C=C6)C=C5)cc3)cc2)c(-c2ccc(S(C)(=O)=O)cc2)o1
REMARK SMILES IDX 16 1 15 4 14 7 12 8 13 9 11 11 8 12 9 13 88 14 10 15 87 17
REMARK SMILES IDX 7 21 6 22 2 23 3 24 100 25 4 26 89 28 5 29 1 30 90 34 91 35
REMARK SMILES IDX 99 36 92 37 98 39 93 41 94 44 96 45 97 46 95 47 17 51 18 54
REMARK SMILES IDX 19 57 20 60 21 63 22 64 23 66 24 67 25 68 86 69 26 70 85 72
REMARK SMILES IDX 27 74 28 77 29 78 79 79 30 80 84 81 78 82 80 83 31 84 83 85
REMARK SMILES IDX 77 87 76 89 32 91 64 94 44 95 63 96 45 97 48 98 62 99 81 100
REMARK SMILES IDX 46 101 47 103 61 105 82 106 49 109 33 111 34 112 42 113
REMARK SMILES IDX 35 114 36 115 40 116 43 117 37 118 38 119 41 120 39 121
REMARK SMILES IDX 65 122 66 123 74 124 67 125 68 126 72 127 75 128 69 129
REMARK SMILES IDX 70 130 73 131 71 132 50 133 51 134 59 135 52 136 53 137
REMARK SMILES IDX 57 138 60 139 54 140 55 141 58 142 56 143
REMARK H PARENT 16 2 16 3 15 5 15 6 14 10 9 16 88 18 10 19 87 20 3 27 1 31
REMARK H PARENT 1 32 1 33 91 38 99 40 92 42 98 43 95 48 95 49 95 50 17 52
REMARK H PARENT 17 53 18 55 18 56 19 58 19 59 20 61 20 62 21 65 25 71 86 73
REMARK H PARENT 26 75 85 76 84 86 78 88 80 90 83 92 77 93 45 102 48 104 81 107
REMARK H PARENT 46 108 82 110
REMARK Flexibility Score: inf
ROOT
ATOM      1  C   UNL A   1      40.807  22.219  27.515  1.00  0.00    -0.036 C 
ATOM      2  H   UNL A   1      40.362  21.795  28.391  1.00  0.00     0.028 H 
ATOM      3  H   UNL A   1      41.293  23.162  27.657  1.00  0.00     0.028 H 
ENDROOT
BRANCH   1   4
ATOM      4  C   UNL A   1      39.683  22.506  26.525  1.00  0.00     0.018 C 
ATOM      5  H   UNL A   1      38.980  23.155  27.007  1.00  0.00     0.049 H 
ATOM      6  H   UNL A   1      40.155  22.935  25.667  1.00  0.00     0.049 H 
BRANCH   4   7
ATOM      7  N   UNL A   1      38.959  21.351  26.038  1.00  0.00    -0.352 N 
ATOM      8  C   UNL A   1      37.873  21.261  25.194  1.00  0.00     0.251 C 
ATOM      9  O   UNL A   1      37.504  20.150  24.815  1.00  0.00    -0.269 OA
ATOM     10  H   UNL A   1      39.299  20.487  26.362  1.00  0.00     0.163 HD
BRANCH   8  11
ATOM     11  C   UNL A   1      37.065  22.455  24.823  1.00  0.00     0.040 A 
ATOM     12  C   UNL A   1      35.071  24.273  24.136  1.00  0.00     0.127 A 
ATOM     13  C   UNL A   1      35.639  23.482  23.145  1.00  0.00    -0.019 A 
ATOM     14  C   UNL A   1      35.655  24.327  25.401  1.00  0.00    -0.019 A 
ATOM     15  C   UNL A   1      36.610  22.542  23.498  1.00  0.00    -0.046 A 
ATOM     16  H   UNL A   1      35.348  23.588  22.161  1.00  0.00     0.066 H 
ATOM     17  C   UNL A   1      36.680  23.440  25.733  1.00  0.00    -0.046 A 
ATOM     18  H   UNL A   1      35.328  25.021  26.091  1.00  0.00     0.066 H 
ATOM     19  H   UNL A   1      36.996  21.908  22.780  1.00  0.00     0.063 H 
ATOM     20  H   UNL A   1      37.151  23.514  26.647  1.00  0.00     0.063 H 
BRANCH  12  21
ATOM     21  O   UNL A   1      33.999  25.083  23.917  1.00  0.00    -0.449 OA
BRANCH  21  22
ATOM     22  C   UNL A   1      32.788  24.970  24.589  1.00  0.00     0.217 A 
ATOM     23  C   UNL A   1      30.282  25.238  25.894  1.00  0.00     0.105 A 
ATOM     24  C   UNL A   1      30.970  26.367  25.715  1.00  0.00     0.028 A 
ATOM     25  O   UNL A   1      30.781  24.002  25.541  1.00  0.00    -0.457 OA
ATOM     26  C   UNL A   1      32.295  26.297  25.085  1.00  0.00     0.228 A 
ATOM     27  H   UNL A   1      30.578  27.274  26.014  1.00  0.00     0.070 H 
ATOM     28  C   UNL A   1      32.013  23.894  24.899  1.00  0.00     0.180 A 
ATOM     29  O   UNL A   1      32.962  27.323  24.983  1.00  0.00    -0.285 OA
BRANCH  23  30
ATOM     30  C   UNL A   1      28.912  25.205  26.494  1.00  0.00    -0.006 C 
ATOM     31  H   UNL A   1      28.827  24.357  27.141  1.00  0.00     0.031 H 
ATOM     32  H   UNL A   1      28.184  25.132  25.713  1.00  0.00     0.031 H 
ATOM     33  H   UNL A   1      28.746  26.101  27.053  1.00  0.00     0.031 H 
ENDBRANCH  23  30
BRANCH  28  34
ATOM     34  C   UNL A   1      32.286  22.474  24.608  1.00  0.00     0.021 A 
ATOM     35  C   UNL A   1      32.887  21.668  25.591  1.00  0.00    -0.050 A 
ATOM     36  C   UNL A   1      31.973  21.910  23.362  1.00  0.00    -0.050 A 
ATOM     37  C   UNL A   1      33.089  20.303  25.368  1.00  0.00    -0.043 A 
ATOM     38  H   UNL A   1      33.182  22.089  26.486  1.00  0.00     0.063 H 
ATOM     39  C   UNL A   1      32.185  20.547  23.129  1.00  0.00    -0.043 A 
ATOM     40  H   UNL A   1      31.586  22.505  22.613  1.00  0.00     0.063 H 
ATOM     41  C   UNL A   1      32.728  19.748  24.138  1.00  0.00     0.067 A 
ATOM     42  H   UNL A   1      33.503  19.711  26.106  1.00  0.00     0.064 H 
ATOM     43  H   UNL A   1      31.941  20.134  22.215  1.00  0.00     0.064 H 
BRANCH  41  44
ATOM     44  S   UNL A   1      32.864  17.987  23.912  1.00  0.00     0.175 S 
ATOM     45  O   UNL A   1      32.074  17.358  24.949  1.00  0.00    -0.224 OA
ATOM     46  O   UNL A   1      32.637  17.699  22.507  1.00  0.00    -0.224 OA
BRANCH  44  47
ATOM     47  C   UNL A   1      34.568  17.648  24.251  1.00  0.00     0.043 C 
ATOM     48  H   UNL A   1      35.114  17.609  23.331  1.00  0.00     0.040 H 
ATOM     49  H   UNL A   1      34.651  16.708  24.755  1.00  0.00     0.040 H 
ATOM     50  H   UNL A   1      34.969  18.422  24.871  1.00  0.00     0.040 H 
ENDBRANCH  44  47
ENDBRANCH  41  44
ENDBRANCH  28  34
ENDBRANCH  21  22
ENDBRANCH  12  21
ENDBRANCH   8  11
ENDBRANCH   4   7
ENDBRANCH   1   4
BRANCH   1  51
ATOM     51  C   UNL A   1      41.922  21.273  27.067  1.00  0.00    -0.052 C 
ATOM     52  H   UNL A   1      42.853  21.713  27.355  1.00  0.00     0.027 H 
ATOM     53  H   UNL A   1      41.783  21.160  26.012  1.00  0.00     0.027 H 
BRANCH  51  54
ATOM     54  C   UNL A   1      41.891  19.850  27.626  1.00  0.00    -0.052 C 
ATOM     55  H   UNL A   1      40.868  19.537  27.662  1.00  0.00     0.027 H 
ATOM     56  H   UNL A   1      42.371  19.910  28.580  1.00  0.00     0.027 H 
BRANCH  54  57
ATOM     57  C   UNL A   1      42.670  18.794  26.846  1.00  0.00    -0.036 C 
ATOM     58  H   UNL A   1      42.271  17.836  27.103  1.00  0.00     0.028 H 
ATOM     59  H   UNL A   1      43.695  18.929  27.121  1.00  0.00     0.028 H 
BRANCH  57  60
ATOM     60  C   UNL A   1      42.631  18.924  25.329  1.00  0.00     0.018 C 
ATOM     61  H   UNL A   1      42.363  19.930  25.083  1.00  0.00     0.049 H 
ATOM     62  H   UNL A   1      41.914  18.213  24.972  1.00  0.00     0.049 H 
BRANCH  60  63
ATOM     63  N   UNL A   1      43.898  18.613  24.687  1.00  0.00    -0.352 N 
ATOM     64  C   UNL A   1      44.962  19.435  24.394  1.00  0.00     0.251 C 
ATOM     65  H   UNL A   1      44.012  17.672  24.421  1.00  0.00     0.163 HD
ATOM     66  O   UNL A   1      45.909  19.011  23.740  1.00  0.00    -0.269 OA
BRANCH  64  67
ATOM     67  C   UNL A   1      44.950  20.850  24.834  1.00  0.00     0.039 A 
ATOM     68  C   UNL A   1      44.537  21.866  23.974  1.00  0.00    -0.049 A 
ATOM     69  C   UNL A   1      45.380  21.165  26.128  1.00  0.00    -0.049 A 
ATOM     70  C   UNL A   1      44.738  23.195  24.329  1.00  0.00    -0.053 A 
ATOM     71  H   UNL A   1      44.085  21.633  23.076  1.00  0.00     0.063 H 
ATOM     72  C   UNL A   1      45.481  22.503  26.522  1.00  0.00    -0.053 A 
ATOM     73  H   UNL A   1      45.622  20.411  26.789  1.00  0.00     0.063 H 
ATOM     74  C   UNL A   1      45.213  23.532  25.608  1.00  0.00    -0.014 A 
ATOM     75  H   UNL A   1      44.534  23.943  23.647  1.00  0.00     0.063 H 
ATOM     76  H   UNL A   1      45.754  22.734  27.491  1.00  0.00     0.063 H 
BRANCH  74  77
ATOM     77  C   UNL A   1      45.413  24.965  25.955  1.00  0.00     0.031 A 
ATOM     78  C   UNL A   1      44.301  25.781  26.560  1.00  0.00     0.074 A 
ATOM     79  C   UNL A   1      46.630  25.518  25.783  1.00  0.00     0.049 A 
ATOM     80  N   UNL A   1      44.320  27.025  26.972  1.00  0.00    -0.248 NA
ATOM     81  C   UNL A   1      42.996  25.121  26.719  1.00  0.00    -0.034 C 
ATOM     82  C   UNL A   1      47.788  24.831  25.209  1.00  0.00    -0.036 A 
ATOM     83  N   UNL A   1      47.107  26.766  26.096  1.00  0.00    -0.354 N 
ATOM     84  C   UNL A   1      43.035  27.297  27.426  1.00  0.00     0.074 A 
ATOM     85  C   UNL A   1      42.248  26.104  27.202  1.00  0.00    -0.034 C 
ATOM     86  H   UNL A   1      42.731  24.145  26.511  1.00  0.00     0.065 H 
ATOM     87  C   UNL A   1      48.855  25.639  25.271  1.00  0.00    -0.036 A 
ATOM     88  H   UNL A   1      47.783  23.874  24.819  1.00  0.00     0.065 H 
ATOM     89  C   UNL A   1      48.443  26.926  25.822  1.00  0.00     0.049 A 
ATOM     90  H   UNL A   1      46.545  27.478  26.480  1.00  0.00     0.167 HD
ATOM     91  C   UNL A   1      42.562  28.432  27.994  1.00  0.00     0.037 A 
ATOM     92  H   UNL A   1      41.237  26.028  27.393  1.00  0.00     0.065 H 
ATOM     93  H   UNL A   1      49.812  25.392  24.976  1.00  0.00     0.065 H 
ATOM     94  C   UNL A   1      49.251  27.991  25.985  1.00  0.00     0.037 A 
ATOM     95  C   UNL A   1      43.353  29.613  28.231  1.00  0.00     0.049 A 
ATOM     96  C   UNL A   1      48.687  29.256  26.569  1.00  0.00     0.074 A 
ATOM     97  C   UNL A   1      42.970  30.802  28.826  1.00  0.00    -0.036 A 
ATOM     98  N   UNL A   1      44.688  29.756  27.879  1.00  0.00    -0.354 N 
ATOM     99  N   UNL A   1      47.480  29.489  27.019  1.00  0.00    -0.248 NA
ATOM    100  C   UNL A   1      49.595  30.407  26.659  1.00  0.00    -0.034 C 
ATOM    101  C   UNL A   1      44.052  31.683  28.782  1.00  0.00    -0.036 A 
ATOM    102  H   UNL A   1      42.042  31.002  29.233  1.00  0.00     0.065 H 
ATOM    103  C   UNL A   1      45.132  31.026  28.217  1.00  0.00     0.049 A 
ATOM    104  H   UNL A   1      45.238  29.060  27.452  1.00  0.00     0.167 HD
ATOM    105  C   UNL A   1      47.484  30.804  27.461  1.00  0.00     0.074 A 
ATOM    106  C   UNL A   1      48.823  31.314  27.242  1.00  0.00    -0.034 C 
ATOM    107  H   UNL A   1      50.577  30.488  26.352  1.00  0.00     0.065 H 
ATOM    108  H   UNL A   1      44.048  32.661  29.115  1.00  0.00     0.065 H 
ATOM    109  C   UNL A   1      46.468  31.522  27.997  1.00  0.00     0.037 A 
ATOM    110  H   UNL A   1      49.134  32.262  27.505  1.00  0.00     0.065 H 
BRANCH  91 111
ATOM    111  C   UNL A   1      41.115  28.466  28.401  1.00  0.00     0.064 A 
ATOM    112  C   UNL A   1      40.702  28.088  29.688  1.00  0.00     0.173 A 
ATOM    113  C   UNL A   1      40.137  28.945  27.516  1.00  0.00     0.173 A 
ATOM    114  F   UNL A   1      41.594  27.616  30.572  1.00  0.00    -0.203 F 
ATOM    115  C   UNL A   1      39.363  28.167  30.065  1.00  0.00     0.198 A 
ATOM    116  C   UNL A   1      38.804  29.053  27.907  1.00  0.00     0.198 A 
ATOM    117  F   UNL A   1      40.476  29.329  26.277  1.00  0.00    -0.203 F 
ATOM    118  F   UNL A   1      38.988  27.762  31.286  1.00  0.00    -0.200 F 
ATOM    119  C   UNL A   1      38.418  28.658  29.178  1.00  0.00     0.200 A 
ATOM    120  F   UNL A   1      37.895  29.545  27.053  1.00  0.00    -0.200 F 
ATOM    121  F   UNL A   1      37.132  28.749  29.548  1.00  0.00    -0.200 F 
ENDBRANCH  91 111
BRANCH  94 122
ATOM    122  C   UNL A   1      50.682  27.884  25.600  1.00  0.00     0.064 A 
ATOM    123  C   UNL A   1      51.080  28.033  24.265  1.00  0.00     0.173 A 
ATOM    124  C   UNL A   1      51.684  27.689  26.563  1.00  0.00     0.173 A 
ATOM    125  F   UNL A   1      50.159  28.203  23.307  1.00  0.00    -0.203 F 
ATOM    126  C   UNL A   1      52.427  27.994  23.909  1.00  0.00     0.198 A 
ATOM    127  C   UNL A   1      53.031  27.681  26.210  1.00  0.00     0.198 A 
ATOM    128  F   UNL A   1      51.354  27.546  27.856  1.00  0.00    -0.203 F 
ATOM    129  F   UNL A   1      52.780  28.117  22.622  1.00  0.00    -0.200 F 
ATOM    130  C   UNL A   1      53.401  27.830  24.882  1.00  0.00     0.200 A 
ATOM    131  F   UNL A   1      53.969  27.544  27.156  1.00  0.00    -0.200 F 
ATOM    132  F   UNL A   1      54.697  27.818  24.541  1.00  0.00    -0.200 F 
ENDBRANCH  94 122
BRANCH 109 133
ATOM    133  C   UNL A   1      46.752  32.939  28.406  1.00  0.00     0.064 A 
ATOM    134  C   UNL A   1      46.536  34.011  27.529  1.00  0.00     0.173 A 
ATOM    135  C   UNL A   1      47.159  33.232  29.717  1.00  0.00     0.173 A 
ATOM    136  F   UNL A   1      46.162  33.783  26.262  1.00  0.00    -0.203 F 
ATOM    137  C   UNL A   1      46.725  35.326  27.948  1.00  0.00     0.198 A 
ATOM    138  C   UNL A   1      47.316  34.548  30.140  1.00  0.00     0.198 A 
ATOM    139  F   UNL A   1      47.372  32.242  30.597  1.00  0.00    -0.203 F 
ATOM    140  F   UNL A   1      46.541  36.335  27.085  1.00  0.00    -0.200 F 
ATOM    141  C   UNL A   1      47.102  35.594  29.256  1.00  0.00     0.200 A 
ATOM    142  F   UNL A   1      47.663  34.806  31.409  1.00  0.00    -0.200 F 
ATOM    143  F   UNL A   1      47.259  36.861  29.663  1.00  0.00    -0.200 F 
ENDBRANCH 109 133
ENDBRANCH  74  77
ENDBRANCH  64  67
ENDBRANCH  60  63
ENDBRANCH  57  60
ENDBRANCH  54  57
ENDBRANCH  51  54
ENDBRANCH   1  51
TORSDOF 19
ENDMDL
MODEL 4
REMARK VINA RESULT:     -11.9      6.931     12.063
REMARK SMILES Cc1cc(=O)c(Oc2ccc(C(=O)NCCCCCCNC(=O)c3ccc(-c4c5nc(c(-c6c(F)c(F)c(F)c(F)c6F)c6ccc([nH]6)c(-c6c(F)c(F)c(F)c(F)c6F)c6nc(c(-c7c(F)c(F)c(F)c(F)c7F)c7ccc4[nH]7)C=C6)C=C5)cc3)cc2)c(-c2ccc(S(C)(=O)=O)cc2)o1
REMARK SMILES IDX 16 1 15 4 14 7 12 8 13 9 11 11 8 12 9 13 88 14 10 15 87 17
REMARK SMILES IDX 7 21 6 22 2 23 3 24 100 25 4 26 89 28 5 29 1 30 90 34 91 35
REMARK SMILES IDX 99 36 92 37 98 39 93 41 94 44 96 45 97 46 95 47 17 51 18 54
REMARK SMILES IDX 19 57 20 60 21 63 22 64 23 66 24 67 25 68 86 69 26 70 85 72
REMARK SMILES IDX 27 74 28 77 29 78 79 79 30 80 84 81 78 82 80 83 31 84 83 85
REMARK SMILES IDX 77 87 76 89 32 91 64 94 44 95 63 96 45 97 48 98 62 99 81 100
REMARK SMILES IDX 46 101 47 103 61 105 82 106 49 109 33 111 34 112 42 113
REMARK SMILES IDX 35 114 36 115 40 116 43 117 37 118 38 119 41 120 39 121
REMARK SMILES IDX 65 122 66 123 74 124 67 125 68 126 72 127 75 128 69 129
REMARK SMILES IDX 70 130 73 131 71 132 50 133 51 134 59 135 52 136 53 137
REMARK SMILES IDX 57 138 60 139 54 140 55 141 58 142 56 143
REMARK H PARENT 16 2 16 3 15 5 15 6 14 10 9 16 88 18 10 19 87 20 3 27 1 31
REMARK H PARENT 1 32 1 33 91 38 99 40 92 42 98 43 95 48 95 49 95 50 17 52
REMARK H PARENT 17 53 18 55 18 56 19 58 19 59 20 61 20 62 21 65 25 71 86 73
REMARK H PARENT 26 75 85 76 84 86 78 88 80 90 83 92 77 93 45 102 48 104 81 107
REMARK H PARENT 46 108 82 110
REMARK Flexibility Score: inf
ROOT
ATOM      1  C   UNL A   1      40.740  22.299  27.618  1.00  0.00    -0.036 C 
ATOM      2  H   UNL A   1      40.090  21.875  28.356  1.00  0.00     0.028 H 
ATOM      3  H   UNL A   1      41.058  23.303  27.808  1.00  0.00     0.028 H 
ENDROOT
BRANCH   1   4
ATOM      4  C   UNL A   1      39.954  22.382  26.313  1.00  0.00     0.018 C 
ATOM      5  H   UNL A   1      39.306  23.232  26.375  1.00  0.00     0.049 H 
ATOM      6  H   UNL A   1      40.688  22.449  25.537  1.00  0.00     0.049 H 
BRANCH   4   7
ATOM      7  N   UNL A   1      39.144  21.227  25.988  1.00  0.00    -0.352 N 
ATOM      8  C   UNL A   1      37.983  21.122  25.254  1.00  0.00     0.251 C 
ATOM      9  O   UNL A   1      37.537  20.003  25.001  1.00  0.00    -0.269 OA
ATOM     10  H   UNL A   1      39.479  20.376  26.350  1.00  0.00     0.163 HD
BRANCH   8  11
ATOM     11  C   UNL A   1      37.192  22.320  24.858  1.00  0.00     0.040 A 
ATOM     12  C   UNL A   1      35.222  24.153  24.141  1.00  0.00     0.127 A 
ATOM     13  C   UNL A   1      35.768  23.328  23.166  1.00  0.00    -0.019 A 
ATOM     14  C   UNL A   1      35.817  24.228  25.400  1.00  0.00    -0.019 A 
ATOM     15  C   UNL A   1      36.727  22.380  23.535  1.00  0.00    -0.046 A 
ATOM     16  H   UNL A   1      35.471  23.414  22.182  1.00  0.00     0.066 H 
ATOM     17  C   UNL A   1      36.830  23.334  25.746  1.00  0.00    -0.046 A 
ATOM     18  H   UNL A   1      35.508  24.945  26.075  1.00  0.00     0.066 H 
ATOM     19  H   UNL A   1      37.096  21.722  22.831  1.00  0.00     0.063 H 
ATOM     20  H   UNL A   1      37.310  23.422  26.655  1.00  0.00     0.063 H 
BRANCH  12  21
ATOM     21  O   UNL A   1      34.161  24.975  23.910  1.00  0.00    -0.449 OA
BRANCH  21  22
ATOM     22  C   UNL A   1      32.947  24.886  24.581  1.00  0.00     0.217 A 
ATOM     23  C   UNL A   1      30.444  25.205  25.879  1.00  0.00     0.105 A 
ATOM     24  C   UNL A   1      31.151  26.321  25.692  1.00  0.00     0.028 A 
ATOM     25  O   UNL A   1      30.924  23.958  25.538  1.00  0.00    -0.457 OA
ATOM     26  C   UNL A   1      32.475  26.225  25.065  1.00  0.00     0.228 A 
ATOM     27  H   UNL A   1      30.773  27.236  25.982  1.00  0.00     0.070 H 
ATOM     28  C   UNL A   1      32.155  23.826  24.899  1.00  0.00     0.180 A 
ATOM     29  O   UNL A   1      33.158  27.240  24.955  1.00  0.00    -0.285 OA
BRANCH  23  30
ATOM     30  C   UNL A   1      29.073  25.198  26.476  1.00  0.00    -0.006 C 
ATOM     31  H   UNL A   1      28.483  24.439  26.007  1.00  0.00     0.031 H 
ATOM     32  H   UNL A   1      28.613  26.152  26.323  1.00  0.00     0.031 H 
ATOM     33  H   UNL A   1      29.142  25.001  27.525  1.00  0.00     0.031 H 
ENDBRANCH  23  30
BRANCH  28  34
ATOM     34  C   UNL A   1      32.407  22.399  24.620  1.00  0.00     0.021 A 
ATOM     35  C   UNL A   1      32.928  21.575  25.633  1.00  0.00    -0.050 A 
ATOM     36  C   UNL A   1      32.151  21.845  23.356  1.00  0.00    -0.050 A 
ATOM     37  C   UNL A   1      33.106  20.206  25.419  1.00  0.00    -0.043 A 
ATOM     38  H   UNL A   1      33.182  21.987  26.545  1.00  0.00     0.063 H 
ATOM     39  C   UNL A   1      32.339  20.477  23.132  1.00  0.00    -0.043 A 
ATOM     40  H   UNL A   1      31.824  22.451  22.588  1.00  0.00     0.063 H 
ATOM     41  C   UNL A   1      32.801  19.662  24.169  1.00  0.00     0.067 A 
ATOM     42  H   UNL A   1      33.460  19.602  26.177  1.00  0.00     0.064 H 
ATOM     43  H   UNL A   1      32.137  20.071  22.204  1.00  0.00     0.064 H 
BRANCH  41  44
ATOM     44  S   UNL A   1      32.903  17.899  23.946  1.00  0.00     0.175 S 
ATOM     45  O   UNL A   1      32.123  17.286  25.001  1.00  0.00    -0.224 OA
ATOM     46  O   UNL A   1      32.642  17.610  22.546  1.00  0.00    -0.224 OA
BRANCH  44  47
ATOM     47  C   UNL A   1      34.608  17.532  24.251  1.00  0.00     0.043 C 
ATOM     48  H   UNL A   1      35.086  18.389  24.675  1.00  0.00     0.040 H 
ATOM     49  H   UNL A   1      35.087  17.276  23.330  1.00  0.00     0.040 H 
ATOM     50  H   UNL A   1      34.678  16.709  24.931  1.00  0.00     0.040 H 
ENDBRANCH  44  47
ENDBRANCH  41  44
ENDBRANCH  28  34
ENDBRANCH  21  22
ENDBRANCH  12  21
ENDBRANCH   8  11
ENDBRANCH   4   7
ENDBRANCH   1   4
BRANCH   1  51
ATOM     51  C   UNL A   1      42.028  21.477  27.618  1.00  0.00    -0.052 C 
ATOM     52  H   UNL A   1      42.687  21.909  28.342  1.00  0.00     0.027 H 
ATOM     53  H   UNL A   1      42.382  21.513  26.609  1.00  0.00     0.027 H 
BRANCH  51  54
ATOM     54  C   UNL A   1      41.901  19.987  27.942  1.00  0.00    -0.052 C 
ATOM     55  H   UNL A   1      40.881  19.798  28.206  1.00  0.00     0.027 H 
ATOM     56  H   UNL A   1      42.605  19.807  28.727  1.00  0.00     0.027 H 
BRANCH  54  57
ATOM     57  C   UNL A   1      42.278  19.013  26.828  1.00  0.00    -0.036 C 
ATOM     58  H   UNL A   1      41.518  18.263  26.777  1.00  0.00     0.028 H 
ATOM     59  H   UNL A   1      43.246  18.639  27.088  1.00  0.00     0.028 H 
BRANCH  57  60
ATOM     60  C   UNL A   1      42.430  19.618  25.439  1.00  0.00     0.018 C 
ATOM     61  H   UNL A   1      42.622  20.665  25.545  1.00  0.00     0.049 H 
ATOM     62  H   UNL A   1      41.520  19.422  24.910  1.00  0.00     0.049 H 
BRANCH  60  63
ATOM     63  N   UNL A   1      43.510  19.028  24.663  1.00  0.00    -0.352 N 
ATOM     64  C   UNL A   1      44.701  19.579  24.252  1.00  0.00     0.251 C 
ATOM     65  H   UNL A   1      43.367  18.092  24.392  1.00  0.00     0.163 HD
ATOM     66  O   UNL A   1      45.444  18.956  23.501  1.00  0.00    -0.269 OA
BRANCH  64  67
ATOM     67  C   UNL A   1      45.075  20.946  24.682  1.00  0.00     0.039 A 
ATOM     68  C   UNL A   1      45.613  21.179  25.947  1.00  0.00    -0.049 A 
ATOM     69  C   UNL A   1      44.863  22.018  23.808  1.00  0.00    -0.049 A 
ATOM     70  C   UNL A   1      45.754  22.484  26.408  1.00  0.00    -0.053 A 
ATOM     71  H   UNL A   1      45.907  20.387  26.539  1.00  0.00     0.063 H 
ATOM     72  C   UNL A   1      45.106  23.327  24.238  1.00  0.00    -0.053 A 
ATOM     73  H   UNL A   1      44.528  21.843  22.848  1.00  0.00     0.063 H 
ATOM     74  C   UNL A   1      45.501  23.576  25.561  1.00  0.00    -0.014 A 
ATOM     75  H   UNL A   1      46.047  22.652  27.384  1.00  0.00     0.063 H 
ATOM     76  H   UNL A   1      44.994  24.114  23.579  1.00  0.00     0.063 H 
BRANCH  74  77
ATOM     77  C   UNL A   1      45.664  24.958  26.087  1.00  0.00     0.031 A 
ATOM     78  C   UNL A   1      46.986  25.674  25.993  1.00  0.00     0.074 A 
ATOM     79  C   UNL A   1      44.593  25.596  26.597  1.00  0.00     0.049 A 
ATOM     80  N   UNL A   1      47.288  26.898  26.352  1.00  0.00    -0.248 NA
ATOM     81  C   UNL A   1      48.117  24.922  25.431  1.00  0.00    -0.034 C 
ATOM     82  C   UNL A   1      43.258  25.010  26.738  1.00  0.00    -0.036 A 
ATOM     83  N   UNL A   1      44.442  26.879  27.060  1.00  0.00    -0.354 N 
ATOM     84  C   UNL A   1      48.639  27.057  26.070  1.00  0.00     0.074 A 
ATOM     85  C   UNL A   1      49.111  25.793  25.549  1.00  0.00    -0.034 C 
ATOM     86  H   UNL A   1      48.134  23.966  25.043  1.00  0.00     0.065 H 
ATOM     87  C   UNL A   1      42.413  25.946  27.190  1.00  0.00    -0.036 A 
ATOM     88  H   UNL A   1      43.009  24.031  26.524  1.00  0.00     0.065 H 
ATOM     89  C   UNL A   1      43.155  27.177  27.438  1.00  0.00     0.049 A 
ATOM     90  H   UNL A   1      45.184  27.523  27.116  1.00  0.00     0.167 HD
ATOM     91  C   UNL A   1      49.409  28.161  26.215  1.00  0.00     0.037 A 
ATOM     92  H   UNL A   1      50.093  25.593  25.301  1.00  0.00     0.065 H 
ATOM     93  H   UNL A   1      41.400  25.816  27.340  1.00  0.00     0.065 H 
ATOM     94  C   UNL A   1      42.629  28.311  27.939  1.00  0.00     0.037 A 
ATOM     95  C   UNL A   1      48.932  29.424  26.719  1.00  0.00     0.049 A 
ATOM     96  C   UNL A   1      43.517  29.505  28.140  1.00  0.00     0.074 A 
ATOM     97  C   UNL A   1      49.630  30.608  26.876  1.00  0.00    -0.036 A 
ATOM     98  N   UNL A   1      47.636  29.665  27.152  1.00  0.00    -0.354 N 
ATOM     99  N   UNL A   1      44.784  29.649  27.843  1.00  0.00    -0.248 NA
ATOM    100  C   UNL A   1      42.905  30.691  28.753  1.00  0.00    -0.034 C 
ATOM    101  C   UNL A   1      48.775  31.548  27.457  1.00  0.00    -0.036 A 
ATOM    102  H   UNL A   1      50.614  30.770  26.609  1.00  0.00     0.065 H 
ATOM    103  C   UNL A   1      47.524  30.971  27.606  1.00  0.00     0.049 A 
ATOM    104  H   UNL A   1      46.903  29.007  27.139  1.00  0.00     0.167 HD
ATOM    105  C   UNL A   1      45.120  30.943  28.216  1.00  0.00     0.074 A 
ATOM    106  C   UNL A   1      43.915  31.550  28.745  1.00  0.00    -0.034 C 
ATOM    107  H   UNL A   1      41.941  30.823  29.099  1.00  0.00     0.065 H 
ATOM    108  H   UNL A   1      49.032  32.509  27.731  1.00  0.00     0.065 H 
ATOM    109  C   UNL A   1      46.319  31.567  28.128  1.00  0.00     0.037 A 
ATOM    110  H   UNL A   1      43.853  32.527  29.074  1.00  0.00     0.065 H 
BRANCH  91 111
ATOM    111  C   UNL A   1      50.860  28.064  25.830  1.00  0.00     0.064 A 
ATOM    112  C   UNL A   1      51.863  27.849  26.787  1.00  0.00     0.173 A 
ATOM    113  C   UNL A   1      51.245  28.121  24.482  1.00  0.00     0.173 A 
ATOM    114  F   UNL A   1      51.552  27.793  28.091  1.00  0.00    -0.203 F 
ATOM    115  C   UNL A   1      53.198  27.716  26.411  1.00  0.00     0.198 A 
ATOM    116  C   UNL A   1      52.575  27.956  24.106  1.00  0.00     0.198 A 
ATOM    117  F   UNL A   1      50.326  28.315  23.524  1.00  0.00    -0.203 F 
ATOM    118  F   UNL A   1      54.143  27.551  27.347  1.00  0.00    -0.200 F 
ATOM    119  C   UNL A   1      53.551  27.760  25.071  1.00  0.00     0.200 A 
ATOM    120  F   UNL A   1      52.912  27.981  22.809  1.00  0.00    -0.200 F 
ATOM    121  F   UNL A   1      54.834  27.616  24.709  1.00  0.00    -0.200 F 
ENDBRANCH  91 111
BRANCH  94 122
ATOM    122  C   UNL A   1      41.180  28.358  28.263  1.00  0.00     0.064 A 
ATOM    123  C   UNL A   1      40.707  27.921  29.508  1.00  0.00     0.173 A 
ATOM    124  C   UNL A   1      40.246  28.891  27.362  1.00  0.00     0.173 A 
ATOM    125  F   UNL A   1      41.557  27.386  30.397  1.00  0.00    -0.203 F 
ATOM    126  C   UNL A   1      39.357  28.020  29.839  1.00  0.00     0.198 A 
ATOM    127  C   UNL A   1      38.903  29.018  27.705  1.00  0.00     0.198 A 
ATOM    128  F   UNL A   1      40.649  29.328  26.158  1.00  0.00    -0.203 F 
ATOM    129  F   UNL A   1      38.928  27.574  31.028  1.00  0.00    -0.200 F 
ATOM    130  C   UNL A   1      38.459  28.578  28.943  1.00  0.00     0.200 A 
ATOM    131  F   UNL A   1      38.043  29.578  26.844  1.00  0.00    -0.200 F 
ATOM    132  F   UNL A   1      37.165  28.696  29.272  1.00  0.00    -0.200 F 
ENDBRANCH  94 122
BRANCH 109 133
ATOM    133  C   UNL A   1      46.403  32.990  28.598  1.00  0.00     0.064 A 
ATOM    134  C   UNL A   1      46.135  34.063  27.736  1.00  0.00     0.173 A 
ATOM    135  C   UNL A   1      46.666  33.279  29.946  1.00  0.00     0.173 A 
ATOM    136  F   UNL A   1      45.892  33.841  26.436  1.00  0.00    -0.203 F 
ATOM    137  C   UNL A   1      46.135  35.375  28.206  1.00  0.00     0.198 A 
ATOM    138  C   UNL A   1      46.635  34.588  30.418  1.00  0.00     0.198 A 
ATOM    139  F   UNL A   1      46.922  32.288  30.813  1.00  0.00    -0.203 F 
ATOM    140  F   UNL A   1      45.905  36.387  27.358  1.00  0.00    -0.200 F 
ATOM    141  C   UNL A   1      46.372  35.635  29.547  1.00  0.00     0.200 A 
ATOM    142  F   UNL A   1      46.847  34.837  31.718  1.00  0.00    -0.200 F 
ATOM    143  F   UNL A   1      46.348  36.896  30.001  1.00  0.00    -0.200 F 
ENDBRANCH 109 133
ENDBRANCH  74  77
ENDBRANCH  64  67
ENDBRANCH  60  63
ENDBRANCH  57  60
ENDBRANCH  54  57
ENDBRANCH  51  54
ENDBRANCH   1  51
TORSDOF 19
ENDMDL
MODEL 5
REMARK VINA RESULT:     -11.8      5.966     10.788
REMARK SMILES Cc1cc(=O)c(Oc2ccc(C(=O)NCCCCCCNC(=O)c3ccc(-c4c5nc(c(-c6c(F)c(F)c(F)c(F)c6F)c6ccc([nH]6)c(-c6c(F)c(F)c(F)c(F)c6F)c6nc(c(-c7c(F)c(F)c(F)c(F)c7F)c7ccc4[nH]7)C=C6)C=C5)cc3)cc2)c(-c2ccc(S(C)(=O)=O)cc2)o1
REMARK SMILES IDX 16 1 15 4 14 7 12 8 13 9 11 11 8 12 9 13 88 14 10 15 87 17
REMARK SMILES IDX 7 21 6 22 2 23 3 24 100 25 4 26 89 28 5 29 1 30 90 34 91 35
REMARK SMILES IDX 99 36 92 37 98 39 93 41 94 44 96 45 97 46 95 47 17 51 18 54
REMARK SMILES IDX 19 57 20 60 21 63 22 64 23 66 24 67 25 68 86 69 26 70 85 72
REMARK SMILES IDX 27 74 28 77 29 78 79 79 30 80 84 81 78 82 80 83 31 84 83 85
REMARK SMILES IDX 77 87 76 89 32 91 64 94 44 95 63 96 45 97 48 98 62 99 81 100
REMARK SMILES IDX 46 101 47 103 61 105 82 106 49 109 33 111 34 112 42 113
REMARK SMILES IDX 35 114 36 115 40 116 43 117 37 118 38 119 41 120 39 121
REMARK SMILES IDX 65 122 66 123 74 124 67 125 68 126 72 127 75 128 69 129
REMARK SMILES IDX 70 130 73 131 71 132 50 133 51 134 59 135 52 136 53 137
REMARK SMILES IDX 57 138 60 139 54 140 55 141 58 142 56 143
REMARK H PARENT 16 2 16 3 15 5 15 6 14 10 9 16 88 18 10 19 87 20 3 27 1 31
REMARK H PARENT 1 32 1 33 91 38 99 40 92 42 98 43 95 48 95 49 95 50 17 52
REMARK H PARENT 17 53 18 55 18 56 19 58 19 59 20 61 20 62 21 65 25 71 86 73
REMARK H PARENT 26 75 85 76 84 86 78 88 80 90 83 92 77 93 45 102 48 104 81 107
REMARK H PARENT 46 108 82 110
REMARK Flexibility Score: inf
ROOT
ATOM      1  C   UNL A   1      36.601  22.819  23.353  1.00  0.00    -0.036 C 
ATOM      2  H   UNL A   1      37.152  23.693  23.074  1.00  0.00     0.028 H 
ATOM      3  H   UNL A   1      36.599  22.027  22.632  1.00  0.00     0.028 H 
ENDROOT
BRANCH   1   4
ATOM      4  C   UNL A   1      35.137  23.227  23.485  1.00  0.00     0.018 C 
ATOM      5  H   UNL A   1      35.015  23.703  24.437  1.00  0.00     0.049 H 
ATOM      6  H   UNL A   1      34.937  23.863  22.650  1.00  0.00     0.049 H 
BRANCH   4   7
ATOM      7  N   UNL A   1      34.171  22.152  23.401  1.00  0.00    -0.352 N 
ATOM      8  C   UNL A   1      32.874  22.142  22.937  1.00  0.00     0.251 C 
ATOM      9  O   UNL A   1      32.282  21.068  22.843  1.00  0.00    -0.269 OA
ATOM     10  H   UNL A   1      34.495  21.282  23.729  1.00  0.00     0.163 HD
BRANCH   8  11
ATOM     11  C   UNL A   1      32.132  23.402  22.655  1.00  0.00     0.040 A 
ATOM     12  C   UNL A   1      30.877  25.887  22.738  1.00  0.00     0.127 A 
ATOM     13  C   UNL A   1      30.196  24.767  23.199  1.00  0.00    -0.019 A 
ATOM     14  C   UNL A   1      32.067  25.732  22.028  1.00  0.00    -0.019 A 
ATOM     15  C   UNL A   1      30.842  23.528  23.195  1.00  0.00    -0.046 A 
ATOM     16  H   UNL A   1      29.226  24.849  23.540  1.00  0.00     0.066 H 
ATOM     17  C   UNL A   1      32.676  24.480  21.955  1.00  0.00    -0.046 A 
ATOM     18  H   UNL A   1      32.496  26.544  21.558  1.00  0.00     0.066 H 
ATOM     19  H   UNL A   1      30.368  22.700  23.590  1.00  0.00     0.063 H 
ATOM     20  H   UNL A   1      33.526  24.351  21.385  1.00  0.00     0.063 H 
BRANCH  12  21
ATOM     21  O   UNL A   1      30.398  27.155  22.871  1.00  0.00    -0.449 OA
BRANCH  21  22
ATOM     22  C   UNL A   1      30.820  28.048  23.849  1.00  0.00     0.217 A 
ATOM     23  C   UNL A   1      31.382  30.201  25.610  1.00  0.00     0.105 A 
ATOM     24  C   UNL A   1      30.816  30.530  24.447  1.00  0.00     0.028 A 
ATOM     25  O   UNL A   1      31.747  28.907  25.915  1.00  0.00    -0.457 OA
ATOM     26  C   UNL A   1      30.537  29.471  23.470  1.00  0.00     0.228 A 
ATOM     27  H   UNL A   1      30.577  31.512  24.239  1.00  0.00     0.070 H 
ATOM     28  C   UNL A   1      31.460  27.865  25.037  1.00  0.00     0.180 A 
ATOM     29  O   UNL A   1      30.081  29.777  22.371  1.00  0.00    -0.285 OA
BRANCH  23  30
ATOM     30  C   UNL A   1      31.675  31.198  26.685  1.00  0.00    -0.006 C 
ATOM     31  H   UNL A   1      30.944  31.112  27.461  1.00  0.00     0.031 H 
ATOM     32  H   UNL A   1      31.642  32.186  26.273  1.00  0.00     0.031 H 
ATOM     33  H   UNL A   1      32.648  31.012  27.088  1.00  0.00     0.031 H 
ENDBRANCH  23  30
BRANCH  28  34
ATOM     34  C   UNL A   1      31.926  26.594  25.622  1.00  0.00     0.021 A 
ATOM     35  C   UNL A   1      31.016  25.774  26.314  1.00  0.00    -0.050 A 
ATOM     36  C   UNL A   1      33.265  26.189  25.518  1.00  0.00    -0.050 A 
ATOM     37  C   UNL A   1      31.414  24.530  26.813  1.00  0.00    -0.043 A 
ATOM     38  H   UNL A   1      30.045  26.094  26.454  1.00  0.00     0.063 H 
ATOM     39  C   UNL A   1      33.671  24.950  26.028  1.00  0.00    -0.043 A 
ATOM     40  H   UNL A   1      33.954  26.808  25.065  1.00  0.00     0.063 H 
ATOM     41  C   UNL A   1      32.740  24.121  26.659  1.00  0.00     0.067 A 
ATOM     42  H   UNL A   1      30.733  23.921  27.293  1.00  0.00     0.064 H 
ATOM     43  H   UNL A   1      34.655  24.650  25.937  1.00  0.00     0.064 H 
BRANCH  41  44
ATOM     44  S   UNL A   1      33.205  22.483  27.178  1.00  0.00     0.175 S 
ATOM     45  O   UNL A   1      32.673  22.288  28.511  1.00  0.00    -0.224 OA
ATOM     46  O   UNL A   1      32.891  21.566  26.097  1.00  0.00    -0.224 OA
BRANCH  44  47
ATOM     47  C   UNL A   1      34.969  22.564  27.306  1.00  0.00     0.043 C 
ATOM     48  H   UNL A   1      35.346  23.262  26.589  1.00  0.00     0.040 H 
ATOM     49  H   UNL A   1      35.384  21.597  27.117  1.00  0.00     0.040 H 
ATOM     50  H   UNL A   1      35.240  22.882  28.291  1.00  0.00     0.040 H 
ENDBRANCH  44  47
ENDBRANCH  41  44
ENDBRANCH  28  34
ENDBRANCH  21  22
ENDBRANCH  12  21
ENDBRANCH   8  11
ENDBRANCH   4   7
ENDBRANCH   1   4
BRANCH   1  51
ATOM     51  C   UNL A   1      37.284  22.221  24.582  1.00  0.00    -0.052 C 
ATOM     52  H   UNL A   1      37.014  22.822  25.425  1.00  0.00     0.027 H 
ATOM     53  H   UNL A   1      38.328  22.217  24.347  1.00  0.00     0.027 H 
BRANCH  51  54
ATOM     54  C   UNL A   1      36.949  20.768  24.924  1.00  0.00    -0.052 C 
ATOM     55  H   UNL A   1      36.213  20.431  24.224  1.00  0.00     0.027 H 
ATOM     56  H   UNL A   1      36.620  20.786  25.942  1.00  0.00     0.027 H 
BRANCH  54  57
ATOM     57  C   UNL A   1      38.108  19.775  24.891  1.00  0.00    -0.036 C 
ATOM     58  H   UNL A   1      38.453  19.707  23.882  1.00  0.00     0.028 H 
ATOM     59  H   UNL A   1      37.716  18.860  25.282  1.00  0.00     0.028 H 
BRANCH  57  60
ATOM     60  C   UNL A   1      39.303  20.118  25.770  1.00  0.00     0.018 C 
ATOM     61  H   UNL A   1      38.953  20.287  26.767  1.00  0.00     0.049 H 
ATOM     62  H   UNL A   1      39.764  20.987  25.348  1.00  0.00     0.049 H 
BRANCH  60  63
ATOM     63  N   UNL A   1      40.316  19.075  25.808  1.00  0.00    -0.352 N 
ATOM     64  C   UNL A   1      41.659  19.161  26.093  1.00  0.00     0.251 C 
ATOM     65  H   UNL A   1      39.991  18.169  25.599  1.00  0.00     0.163 HD
ATOM     66  O   UNL A   1      42.383  18.179  25.963  1.00  0.00    -0.269 OA
BRANCH  64  67
ATOM     67  C   UNL A   1      42.246  20.452  26.522  1.00  0.00     0.039 A 
ATOM     68  C   UNL A   1      42.250  20.829  27.864  1.00  0.00    -0.049 A 
ATOM     69  C   UNL A   1      42.785  21.309  25.556  1.00  0.00    -0.049 A 
ATOM     70  C   UNL A   1      42.606  22.127  28.215  1.00  0.00    -0.053 A 
ATOM     71  H   UNL A   1      41.989  20.148  28.594  1.00  0.00     0.063 H 
ATOM     72  C   UNL A   1      43.243  22.578  25.927  1.00  0.00    -0.053 A 
ATOM     73  H   UNL A   1      42.845  21.005  24.571  1.00  0.00     0.063 H 
ATOM     74  C   UNL A   1      43.106  23.019  27.251  1.00  0.00    -0.014 A 
ATOM     75  H   UNL A   1      42.502  22.437  29.194  1.00  0.00     0.063 H 
ATOM     76  H   UNL A   1      43.682  23.192  25.223  1.00  0.00     0.063 H 
BRANCH  74  77
ATOM     77  C   UNL A   1      43.480  24.400  27.663  1.00  0.00     0.031 A 
ATOM     78  C   UNL A   1      44.916  24.852  27.650  1.00  0.00     0.074 A 
ATOM     79  C   UNL A   1      42.507  25.272  27.991  1.00  0.00     0.049 A 
ATOM     80  N   UNL A   1      45.411  26.034  27.926  1.00  0.00    -0.248 NA
ATOM     81  C   UNL A   1      45.931  23.852  27.287  1.00  0.00    -0.034 C 
ATOM     82  C   UNL A   1      41.079  24.954  28.038  1.00  0.00    -0.036 A 
ATOM     83  N   UNL A   1      42.561  26.604  28.315  1.00  0.00    -0.354 N 
ATOM     84  C   UNL A   1      46.788  25.915  27.781  1.00  0.00     0.074 A 
ATOM     85  C   UNL A   1      47.057  24.537  27.433  1.00  0.00    -0.034 C 
ATOM     86  H   UNL A   1      45.801  22.871  26.993  1.00  0.00     0.065 H 
ATOM     87  C   UNL A   1      40.388  26.070  28.306  1.00  0.00    -0.036 A 
ATOM     88  H   UNL A   1      40.669  24.018  27.889  1.00  0.00     0.065 H 
ATOM     89  C   UNL A   1      41.325  27.168  28.521  1.00  0.00     0.049 A 
ATOM     90  H   UNL A   1      43.404  27.107  28.393  1.00  0.00     0.167 HD
ATOM     91  C   UNL A   1      47.737  26.873  27.908  1.00  0.00     0.037 A 
ATOM     92  H   UNL A   1      48.002  24.139  27.315  1.00  0.00     0.065 H 
ATOM     93  H   UNL A   1      39.360  26.142  28.355  1.00  0.00     0.065 H 
ATOM     94  C   UNL A   1      40.980  28.426  28.854  1.00  0.00     0.037 A 
ATOM     95  C   UNL A   1      47.464  28.249  28.238  1.00  0.00     0.049 A 
ATOM     96  C   UNL A   1      42.057  29.457  29.041  1.00  0.00     0.074 A 
ATOM     97  C   UNL A   1      48.357  29.299  28.362  1.00  0.00    -0.036 A 
ATOM     98  N   UNL A   1      46.203  28.764  28.502  1.00  0.00    -0.354 N 
ATOM     99  N   UNL A   1      43.350  29.338  28.873  1.00  0.00    -0.248 NA
ATOM    100  C   UNL A   1      41.628  30.794  29.472  1.00  0.00    -0.034 C 
ATOM    101  C   UNL A   1      47.646  30.434  28.757  1.00  0.00    -0.036 A 
ATOM    102  H   UNL A   1      49.374  29.250  28.191  1.00  0.00     0.065 H 
ATOM    103  C   UNL A   1      46.301  30.111  28.819  1.00  0.00     0.049 A 
ATOM    104  H   UNL A   1      45.364  28.251  28.469  1.00  0.00     0.167 HD
ATOM    105  C   UNL A   1      43.890  30.583  29.160  1.00  0.00     0.074 A 
ATOM    106  C   UNL A   1      42.779  31.451  29.496  1.00  0.00    -0.034 C 
ATOM    107  H   UNL A   1      40.679  31.134  29.696  1.00  0.00     0.065 H 
ATOM    108  H   UNL A   1      48.055  31.359  28.968  1.00  0.00     0.065 H 
ATOM    109  C   UNL A   1      45.188  30.968  29.149  1.00  0.00     0.037 A 
ATOM    110  H   UNL A   1      42.873  32.454  29.725  1.00  0.00     0.065 H 
BRANCH  91 111
ATOM    111  C   UNL A   1      49.172  26.475  27.696  1.00  0.00     0.064 A 
ATOM    112  C   UNL A   1      49.717  26.341  26.410  1.00  0.00     0.173 A 
ATOM    113  C   UNL A   1      50.030  26.292  28.792  1.00  0.00     0.173 A 
ATOM    114  F   UNL A   1      48.940  26.498  25.327  1.00  0.00    -0.203 F 
ATOM    115  C   UNL A   1      51.060  26.016  26.229  1.00  0.00     0.198 A 
ATOM    116  C   UNL A   1      51.379  25.999  28.607  1.00  0.00     0.198 A 
ATOM    117  F   UNL A   1      49.565  26.418  30.043  1.00  0.00    -0.203 F 
ATOM    118  F   UNL A   1      51.547  25.853  24.991  1.00  0.00    -0.200 F 
ATOM    119  C   UNL A   1      51.891  25.855  27.327  1.00  0.00     0.200 A 
ATOM    120  F   UNL A   1      52.185  25.861  29.669  1.00  0.00    -0.200 F 
ATOM    121  F   UNL A   1      53.187  25.558  27.151  1.00  0.00    -0.200 F 
ENDBRANCH  91 111
BRANCH  94 122
ATOM    122  C   UNL A   1      39.543  28.768  29.011  1.00  0.00     0.064 A 
ATOM    123  C   UNL A   1      38.907  28.650  30.254  1.00  0.00     0.173 A 
ATOM    124  C   UNL A   1      38.791  29.273  27.940  1.00  0.00     0.173 A 
ATOM    125  F   UNL A   1      39.578  28.155  31.305  1.00  0.00    -0.203 F 
ATOM    126  C   UNL A   1      37.576  29.027  30.420  1.00  0.00     0.198 A 
ATOM    127  C   UNL A   1      37.470  29.678  28.113  1.00  0.00     0.198 A 
ATOM    128  F   UNL A   1      39.355  29.411  26.730  1.00  0.00    -0.203 F 
ATOM    129  F   UNL A   1      36.986  28.882  31.614  1.00  0.00    -0.200 F 
ATOM    130  C   UNL A   1      36.863  29.551  29.353  1.00  0.00     0.200 A 
ATOM    131  F   UNL A   1      36.792  30.205  27.085  1.00  0.00    -0.200 F 
ATOM    132  F   UNL A   1      35.590  29.937  29.520  1.00  0.00    -0.200 F 
ENDBRANCH  94 122
BRANCH 109 133
ATOM    133  C   UNL A   1      45.498  32.397  29.492  1.00  0.00     0.064 A 
ATOM    134  C   UNL A   1      45.843  32.777  30.797  1.00  0.00     0.173 A 
ATOM    135  C   UNL A   1      45.536  33.377  28.489  1.00  0.00     0.173 A 
ATOM    136  F   UNL A   1      45.807  31.881  31.794  1.00  0.00    -0.203 F 
ATOM    137  C   UNL A   1      46.208  34.090  31.085  1.00  0.00     0.198 A 
ATOM    138  C   UNL A   1      45.932  34.680  28.775  1.00  0.00     0.198 A 
ATOM    139  F   UNL A   1      45.221  33.062  27.223  1.00  0.00    -0.203 F 
ATOM    140  F   UNL A   1      46.506  34.439  32.345  1.00  0.00    -0.200 F 
ATOM    141  C   UNL A   1      46.265  35.037  30.073  1.00  0.00     0.200 A 
ATOM    142  F   UNL A   1      46.003  35.589  27.793  1.00  0.00    -0.200 F 
ATOM    143  F   UNL A   1      46.640  36.294  30.349  1.00  0.00    -0.200 F 
ENDBRANCH 109 133
ENDBRANCH  74  77
ENDBRANCH  64  67
ENDBRANCH  60  63
ENDBRANCH  57  60
ENDBRANCH  54  57
ENDBRANCH  51  54
ENDBRANCH   1  51
TORSDOF 19
ENDMDL
MODEL 6
REMARK VINA RESULT:     -11.8      3.309      8.969
REMARK SMILES Cc1cc(=O)c(Oc2ccc(C(=O)NCCCCCCNC(=O)c3ccc(-c4c5nc(c(-c6c(F)c(F)c(F)c(F)c6F)c6ccc([nH]6)c(-c6c(F)c(F)c(F)c(F)c6F)c6nc(c(-c7c(F)c(F)c(F)c(F)c7F)c7ccc4[nH]7)C=C6)C=C5)cc3)cc2)c(-c2ccc(S(C)(=O)=O)cc2)o1
REMARK SMILES IDX 16 1 15 4 14 7 12 8 13 9 11 11 8 12 9 13 88 14 10 15 87 17
REMARK SMILES IDX 7 21 6 22 2 23 3 24 100 25 4 26 89 28 5 29 1 30 90 34 91 35
REMARK SMILES IDX 99 36 92 37 98 39 93 41 94 44 96 45 97 46 95 47 17 51 18 54
REMARK SMILES IDX 19 57 20 60 21 63 22 64 23 66 24 67 25 68 86 69 26 70 85 72
REMARK SMILES IDX 27 74 28 77 29 78 79 79 30 80 84 81 78 82 80 83 31 84 83 85
REMARK SMILES IDX 77 87 76 89 32 91 64 94 44 95 63 96 45 97 48 98 62 99 81 100
REMARK SMILES IDX 46 101 47 103 61 105 82 106 49 109 33 111 34 112 42 113
REMARK SMILES IDX 35 114 36 115 40 116 43 117 37 118 38 119 41 120 39 121
REMARK SMILES IDX 65 122 66 123 74 124 67 125 68 126 72 127 75 128 69 129
REMARK SMILES IDX 70 130 73 131 71 132 50 133 51 134 59 135 52 136 53 137
REMARK SMILES IDX 57 138 60 139 54 140 55 141 58 142 56 143
REMARK H PARENT 16 2 16 3 15 5 15 6 14 10 9 16 88 18 10 19 87 20 3 27 1 31
REMARK H PARENT 1 32 1 33 91 38 99 40 92 42 98 43 95 48 95 49 95 50 17 52
REMARK H PARENT 17 53 18 55 18 56 19 58 19 59 20 61 20 62 21 65 25 71 86 73
REMARK H PARENT 26 75 85 76 84 86 78 88 80 90 83 92 77 93 45 102 48 104 81 107
REMARK H PARENT 46 108 82 110
REMARK Flexibility Score: inf
ROOT
ATOM      1  C   UNL A   1      29.973  26.692  24.159  1.00  0.00    -0.036 C 
ATOM      2  H   UNL A   1      30.427  26.753  25.126  1.00  0.00     0.028 H 
ATOM      3  H   UNL A   1      28.929  26.452  24.156  1.00  0.00     0.028 H 
ENDROOT
BRANCH   1   4
ATOM      4  C   UNL A   1      30.638  25.539  23.414  1.00  0.00     0.018 C 
ATOM      5  H   UNL A   1      31.319  25.063  24.090  1.00  0.00     0.049 H 
ATOM      6  H   UNL A   1      29.840  24.909  23.083  1.00  0.00     0.049 H 
BRANCH   4   7
ATOM      7  N   UNL A   1      31.375  25.899  22.221  1.00  0.00    -0.352 N 
ATOM      8  C   UNL A   1      32.698  25.704  21.889  1.00  0.00     0.251 C 
ATOM      9  O   UNL A   1      33.074  25.985  20.752  1.00  0.00    -0.269 OA
ATOM     10  H   UNL A   1      30.843  26.358  21.533  1.00  0.00     0.163 HD
BRANCH   8  11
ATOM     11  C   UNL A   1      33.707  25.275  22.897  1.00  0.00     0.040 A 
ATOM     12  C   UNL A   1      35.084  24.224  25.076  1.00  0.00     0.127 A 
ATOM     13  C   UNL A   1      34.460  25.459  25.200  1.00  0.00    -0.019 A 
ATOM     14  C   UNL A   1      35.222  23.638  23.819  1.00  0.00    -0.019 A 
ATOM     15  C   UNL A   1      33.735  25.966  24.118  1.00  0.00    -0.046 A 
ATOM     16  H   UNL A   1      34.532  25.995  26.078  1.00  0.00     0.066 H 
ATOM     17  C   UNL A   1      34.561  24.187  22.719  1.00  0.00    -0.046 A 
ATOM     18  H   UNL A   1      35.811  22.799  23.702  1.00  0.00     0.066 H 
ATOM     19  H   UNL A   1      33.218  26.854  24.218  1.00  0.00     0.063 H 
ATOM     20  H   UNL A   1      34.705  23.789  21.778  1.00  0.00     0.063 H 
BRANCH  12  21
ATOM     21  O   UNL A   1      35.658  23.572  26.126  1.00  0.00    -0.449 OA
BRANCH  21  22
ATOM     22  C   UNL A   1      36.828  22.828  26.034  1.00  0.00     0.217 A 
ATOM     23  C   UNL A   1      39.424  21.684  26.113  1.00  0.00     0.105 A 
ATOM     24  C   UNL A   1      39.348  22.982  26.415  1.00  0.00     0.028 A 
ATOM     25  O   UNL A   1      38.327  20.953  25.710  1.00  0.00    -0.457 OA
ATOM     26  C   UNL A   1      38.042  23.649  26.353  1.00  0.00     0.228 A 
ATOM     27  H   UNL A   1      40.193  23.507  26.689  1.00  0.00     0.070 H 
ATOM     28  C   UNL A   1      37.061  21.534  25.681  1.00  0.00     0.180 A 
ATOM     29  O   UNL A   1      37.978  24.858  26.561  1.00  0.00    -0.285 OA
BRANCH  23  30
ATOM     30  C   UNL A   1      40.698  20.905  26.179  1.00  0.00    -0.006 C 
ATOM     31  H   UNL A   1      41.420  21.345  25.522  1.00  0.00     0.031 H 
ATOM     32  H   UNL A   1      40.514  19.894  25.880  1.00  0.00     0.031 H 
ATOM     33  H   UNL A   1      41.073  20.918  27.181  1.00  0.00     0.031 H 
ENDBRANCH  23  30
BRANCH  28  34
ATOM     34  C   UNL A   1      36.074  20.526  25.250  1.00  0.00     0.021 A 
ATOM     35  C   UNL A   1      36.512  19.250  24.853  1.00  0.00    -0.050 A 
ATOM     36  C   UNL A   1      34.701  20.818  25.211  1.00  0.00    -0.050 A 
ATOM     37  C   UNL A   1      35.593  18.254  24.511  1.00  0.00    -0.043 A 
ATOM     38  H   UNL A   1      37.524  19.048  24.814  1.00  0.00     0.063 H 
ATOM     39  C   UNL A   1      33.778  19.828  24.857  1.00  0.00    -0.043 A 
ATOM     40  H   UNL A   1      34.372  21.767  25.443  1.00  0.00     0.063 H 
ATOM     41  C   UNL A   1      34.227  18.548  24.524  1.00  0.00     0.067 A 
ATOM     42  H   UNL A   1      35.921  17.312  24.251  1.00  0.00     0.064 H 
ATOM     43  H   UNL A   1      32.768  20.043  24.843  1.00  0.00     0.064 H 
BRANCH  41  44
ATOM     44  S   UNL A   1      33.060  17.239  24.218  1.00  0.00     0.175 S 
ATOM     45  O   UNL A   1      31.826  17.598  24.885  1.00  0.00    -0.224 OA
ATOM     46  O   UNL A   1      33.092  16.936  22.797  1.00  0.00    -0.224 OA
BRANCH  44  47
ATOM     47  C   UNL A   1      33.751  15.849  25.069  1.00  0.00     0.043 C 
ATOM     48  H   UNL A   1      33.767  15.002  24.414  1.00  0.00     0.040 H 
ATOM     49  H   UNL A   1      33.153  15.624  25.927  1.00  0.00     0.040 H 
ATOM     50  H   UNL A   1      34.748  16.080  25.379  1.00  0.00     0.040 H 
ENDBRANCH  44  47
ENDBRANCH  41  44
ENDBRANCH  28  34
ENDBRANCH  21  22
ENDBRANCH  12  21
ENDBRANCH   8  11
ENDBRANCH   4   7
ENDBRANCH   1   4
BRANCH   1  51
ATOM     51  C   UNL A   1      30.053  28.083  23.530  1.00  0.00    -0.052 C 
ATOM     52  H   UNL A   1      29.070  28.506  23.556  1.00  0.00     0.027 H 
ATOM     53  H   UNL A   1      30.448  27.922  22.548  1.00  0.00     0.027 H 
BRANCH  51  54
ATOM     54  C   UNL A   1      31.005  29.086  24.183  1.00  0.00    -0.052 C 
ATOM     55  H   UNL A   1      30.457  29.989  24.356  1.00  0.00     0.027 H 
ATOM     56  H   UNL A   1      31.822  29.186  23.500  1.00  0.00     0.027 H 
BRANCH  54  57
ATOM     57  C   UNL A   1      31.634  28.665  25.509  1.00  0.00    -0.036 C 
ATOM     58  H   UNL A   1      31.952  27.649  25.413  1.00  0.00     0.028 H 
ATOM     59  H   UNL A   1      30.877  28.819  26.249  1.00  0.00     0.028 H 
BRANCH  57  60
ATOM     60  C   UNL A   1      32.831  29.487  25.968  1.00  0.00     0.018 C 
ATOM     61  H   UNL A   1      33.532  29.544  25.161  1.00  0.00     0.049 H 
ATOM     62  H   UNL A   1      33.239  28.995  26.826  1.00  0.00     0.049 H 
BRANCH  60  63
ATOM     63  N   UNL A   1      32.486  30.840  26.374  1.00  0.00    -0.352 N 
ATOM     64  C   UNL A   1      33.161  31.712  27.197  1.00  0.00     0.251 C 
ATOM     65  H   UNL A   1      31.641  31.185  26.005  1.00  0.00     0.163 HD
ATOM     66  O   UNL A   1      32.652  32.781  27.517  1.00  0.00    -0.269 OA
BRANCH  64  67
ATOM     67  C   UNL A   1      34.493  31.346  27.733  1.00  0.00     0.039 A 
ATOM     68  C   UNL A   1      34.790  30.029  28.083  1.00  0.00    -0.049 A 
ATOM     69  C   UNL A   1      35.456  32.346  27.906  1.00  0.00    -0.049 A 
ATOM     70  C   UNL A   1      35.959  29.747  28.781  1.00  0.00    -0.053 A 
ATOM     71  H   UNL A   1      34.144  29.267  27.826  1.00  0.00     0.063 H 
ATOM     72  C   UNL A   1      36.679  32.039  28.514  1.00  0.00    -0.053 A 
ATOM     73  H   UNL A   1      35.265  33.308  27.587  1.00  0.00     0.063 H 
ATOM     74  C   UNL A   1      36.919  30.748  29.007  1.00  0.00    -0.014 A 
ATOM     75  H   UNL A   1      36.124  28.792  29.136  1.00  0.00     0.063 H 
ATOM     76  H   UNL A   1      37.406  32.766  28.600  1.00  0.00     0.063 H 
BRANCH  74  77
ATOM     77  C   UNL A   1      38.161  30.410  29.754  1.00  0.00     0.031 A 
ATOM     78  C   UNL A   1      38.350  30.845  31.184  1.00  0.00     0.074 A 
ATOM     79  C   UNL A   1      39.098  29.649  29.158  1.00  0.00     0.049 A 
ATOM     80  N   UNL A   1      39.344  30.590  31.999  1.00  0.00    -0.248 NA
ATOM     81  C   UNL A   1      37.292  31.677  31.777  1.00  0.00    -0.034 C 
ATOM     82  C   UNL A   1      39.028  29.163  27.778  1.00  0.00    -0.036 A 
ATOM     83  N   UNL A   1      40.272  29.124  29.635  1.00  0.00    -0.354 N 
ATOM     84  C   UNL A   1      39.038  31.237  33.189  1.00  0.00     0.074 A 
ATOM     85  C   UNL A   1      37.786  31.931  32.982  1.00  0.00    -0.034 C 
ATOM     86  H   UNL A   1      36.397  31.983  31.364  1.00  0.00     0.065 H 
ATOM     87  C   UNL A   1      40.075  28.360  27.541  1.00  0.00    -0.036 A 
ATOM     88  H   UNL A   1      38.290  29.401  27.097  1.00  0.00     0.065 H 
ATOM     89  C   UNL A   1      40.927  28.330  28.725  1.00  0.00     0.049 A 
ATOM     90  H   UNL A   1      40.613  29.299  30.542  1.00  0.00     0.167 HD
ATOM     91  C   UNL A   1      39.729  31.236  34.355  1.00  0.00     0.037 A 
ATOM     92  H   UNL A   1      37.335  32.545  33.679  1.00  0.00     0.065 H 
ATOM     93  H   UNL A   1      40.250  27.848  26.663  1.00  0.00     0.065 H 
ATOM     94  C   UNL A   1      42.090  27.658  28.824  1.00  0.00     0.037 A 
ATOM     95  C   UNL A   1      40.968  30.530  34.564  1.00  0.00     0.049 A 
ATOM     96  C   UNL A   1      42.864  27.717  30.110  1.00  0.00     0.074 A 
ATOM     97  C   UNL A   1      41.727  30.446  35.717  1.00  0.00    -0.036 A 
ATOM     98  N   UNL A   1      41.631  29.790  33.595  1.00  0.00    -0.354 N 
ATOM     99  N   UNL A   1      42.549  28.308  31.235  1.00  0.00    -0.248 NA
ATOM    100  C   UNL A   1      44.158  27.023  30.138  1.00  0.00    -0.034 C 
ATOM    101  C   UNL A   1      42.877  29.706  35.432  1.00  0.00    -0.036 A 
ATOM    102  H   UNL A   1      41.485  30.859  36.632  1.00  0.00     0.065 H 
ATOM    103  C   UNL A   1      42.807  29.273  34.118  1.00  0.00     0.049 A 
ATOM    104  H   UNL A   1      41.314  29.652  32.673  1.00  0.00     0.167 HD
ATOM    105  C   UNL A   1      43.593  28.047  32.111  1.00  0.00     0.074 A 
ATOM    106  C   UNL A   1      44.545  27.225  31.390  1.00  0.00    -0.034 C 
ATOM    107  H   UNL A   1      44.640  26.511  29.383  1.00  0.00     0.065 H 
ATOM    108  H   UNL A   1      43.650  29.515  36.090  1.00  0.00     0.065 H 
ATOM    109  C   UNL A   1      43.746  28.454  33.393  1.00  0.00     0.037 A 
ATOM    110  H   UNL A   1      45.414  26.847  31.800  1.00  0.00     0.065 H 
BRANCH  91 111
ATOM    111  C   UNL A   1      39.171  32.027  35.505  1.00  0.00     0.064 A 
ATOM    112  C   UNL A   1      38.368  31.430  36.489  1.00  0.00     0.173 A 
ATOM    113  C   UNL A   1      39.498  33.383  35.663  1.00  0.00     0.173 A 
ATOM    114  F   UNL A   1      38.019  30.139  36.385  1.00  0.00    -0.203 F 
ATOM    115  C   UNL A   1      37.896  32.166  37.574  1.00  0.00     0.198 A 
ATOM    116  C   UNL A   1      39.051  34.107  36.765  1.00  0.00     0.198 A 
ATOM    117  F   UNL A   1      40.270  34.002  34.758  1.00  0.00    -0.203 F 
ATOM    118  F   UNL A   1      37.097  31.583  38.480  1.00  0.00    -0.200 F 
ATOM    119  C   UNL A   1      38.245  33.500  37.716  1.00  0.00     0.200 A 
ATOM    120  F   UNL A   1      39.404  35.392  36.910  1.00  0.00    -0.200 F 
ATOM    121  F   UNL A   1      37.803  34.203  38.769  1.00  0.00    -0.200 F 
ENDBRANCH  91 111
BRANCH  94 122
ATOM    122  C   UNL A   1      42.570  26.862  27.665  1.00  0.00     0.064 A 
ATOM    123  C   UNL A   1      43.341  27.454  26.655  1.00  0.00     0.173 A 
ATOM    124  C   UNL A   1      42.319  25.485  27.571  1.00  0.00     0.173 A 
ATOM    125  F   UNL A   1      43.593  28.770  26.691  1.00  0.00    -0.203 F 
ATOM    126  C   UNL A   1      43.844  26.698  25.599  1.00  0.00     0.198 A 
ATOM    127  C   UNL A   1      42.848  24.724  26.531  1.00  0.00     0.198 A 
ATOM    128  F   UNL A   1      41.591  24.869  28.516  1.00  0.00    -0.203 F 
ATOM    129  F   UNL A   1      44.559  27.293  24.634  1.00  0.00    -0.200 F 
ATOM    130  C   UNL A   1      43.607  25.333  25.544  1.00  0.00     0.200 A 
ATOM    131  F   UNL A   1      42.635  23.402  26.495  1.00  0.00    -0.200 F 
ATOM    132  F   UNL A   1      44.113  24.602  24.541  1.00  0.00    -0.200 F 
ENDBRANCH  94 122
BRANCH 109 133
ATOM    133  C   UNL A   1      44.981  28.012  34.124  1.00  0.00     0.064 A 
ATOM    134  C   UNL A   1      45.019  26.801  34.832  1.00  0.00     0.173 A 
ATOM    135  C   UNL A   1      46.164  28.762  34.041  1.00  0.00     0.173 A 
ATOM    136  F   UNL A   1      43.912  26.055  34.953  1.00  0.00    -0.203 F 
ATOM    137  C   UNL A   1      46.196  26.363  35.436  1.00  0.00     0.198 A 
ATOM    138  C   UNL A   1      47.344  28.306  34.620  1.00  0.00     0.198 A 
ATOM    139  F   UNL A   1      46.182  29.924  33.370  1.00  0.00    -0.203 F 
ATOM    140  F   UNL A   1      46.202  25.218  36.132  1.00  0.00    -0.200 F 
ATOM    141  C   UNL A   1      47.359  27.109  35.319  1.00  0.00     0.200 A 
ATOM    142  F   UNL A   1      48.472  29.019  34.490  1.00  0.00    -0.200 F 
ATOM    143  F   UNL A   1      48.495  26.673  35.880  1.00  0.00    -0.200 F 
ENDBRANCH 109 133
ENDBRANCH  74  77
ENDBRANCH  64  67
ENDBRANCH  60  63
ENDBRANCH  57  60
ENDBRANCH  54  57
ENDBRANCH  51  54
ENDBRANCH   1  51
TORSDOF 19
ENDMDL
MODEL 7
REMARK VINA RESULT:     -11.8      2.425      4.399
REMARK SMILES Cc1cc(=O)c(Oc2ccc(C(=O)NCCCCCCNC(=O)c3ccc(-c4c5nc(c(-c6c(F)c(F)c(F)c(F)c6F)c6ccc([nH]6)c(-c6c(F)c(F)c(F)c(F)c6F)c6nc(c(-c7c(F)c(F)c(F)c(F)c7F)c7ccc4[nH]7)C=C6)C=C5)cc3)cc2)c(-c2ccc(S(C)(=O)=O)cc2)o1
REMARK SMILES IDX 16 1 15 4 14 7 12 8 13 9 11 11 8 12 9 13 88 14 10 15 87 17
REMARK SMILES IDX 7 21 6 22 2 23 3 24 100 25 4 26 89 28 5 29 1 30 90 34 91 35
REMARK SMILES IDX 99 36 92 37 98 39 93 41 94 44 96 45 97 46 95 47 17 51 18 54
REMARK SMILES IDX 19 57 20 60 21 63 22 64 23 66 24 67 25 68 86 69 26 70 85 72
REMARK SMILES IDX 27 74 28 77 29 78 79 79 30 80 84 81 78 82 80 83 31 84 83 85
REMARK SMILES IDX 77 87 76 89 32 91 64 94 44 95 63 96 45 97 48 98 62 99 81 100
REMARK SMILES IDX 46 101 47 103 61 105 82 106 49 109 33 111 34 112 42 113
REMARK SMILES IDX 35 114 36 115 40 116 43 117 37 118 38 119 41 120 39 121
REMARK SMILES IDX 65 122 66 123 74 124 67 125 68 126 72 127 75 128 69 129
REMARK SMILES IDX 70 130 73 131 71 132 50 133 51 134 59 135 52 136 53 137
REMARK SMILES IDX 57 138 60 139 54 140 55 141 58 142 56 143
REMARK H PARENT 16 2 16 3 15 5 15 6 14 10 9 16 88 18 10 19 87 20 3 27 1 31
REMARK H PARENT 1 32 1 33 91 38 99 40 92 42 98 43 95 48 95 49 95 50 17 52
REMARK H PARENT 17 53 18 55 18 56 19 58 19 59 20 61 20 62 21 65 25 71 86 73
REMARK H PARENT 26 75 85 76 84 86 78 88 80 90 83 92 77 93 45 102 48 104 81 107
REMARK H PARENT 46 108 82 110
REMARK Flexibility Score: inf
ROOT
ATOM      1  C   UNL A   1      35.032  31.217  27.655  1.00  0.00    -0.036 C 
ATOM      2  H   UNL A   1      34.754  31.881  26.863  1.00  0.00     0.028 H 
ATOM      3  H   UNL A   1      36.086  31.097  27.804  1.00  0.00     0.028 H 
ENDROOT
BRANCH   1   4
ATOM      4  C   UNL A   1      34.532  29.825  27.280  1.00  0.00     0.018 C 
ATOM      5  H   UNL A   1      35.206  29.420  26.553  1.00  0.00     0.049 H 
ATOM      6  H   UNL A   1      34.496  29.275  28.196  1.00  0.00     0.049 H 
BRANCH   4   7
ATOM      7  N   UNL A   1      33.194  29.761  26.730  1.00  0.00    -0.352 N 
ATOM      8  C   UNL A   1      32.586  28.798  25.956  1.00  0.00     0.251 C 
ATOM      9  O   UNL A   1      31.385  28.901  25.711  1.00  0.00    -0.269 OA
ATOM     10  H   UNL A   1      32.624  30.534  26.947  1.00  0.00     0.163 HD
BRANCH   8  11
ATOM     11  C   UNL A   1      33.362  27.702  25.312  1.00  0.00     0.040 A 
ATOM     12  C   UNL A   1      34.260  25.338  24.147  1.00  0.00     0.127 A 
ATOM     13  C   UNL A   1      34.217  25.438  25.532  1.00  0.00    -0.019 A 
ATOM     14  C   UNL A   1      34.088  26.477  23.363  1.00  0.00    -0.019 A 
ATOM     15  C   UNL A   1      33.728  26.610  26.115  1.00  0.00    -0.046 A 
ATOM     16  H   UNL A   1      34.543  24.658  26.123  1.00  0.00     0.066 H 
ATOM     17  C   UNL A   1      33.673  27.672  23.952  1.00  0.00    -0.046 A 
ATOM     18  H   UNL A   1      34.265  26.436  22.347  1.00  0.00     0.066 H 
ATOM     19  H   UNL A   1      33.635  26.674  27.141  1.00  0.00     0.063 H 
ATOM     20  H   UNL A   1      33.598  28.530  23.384  1.00  0.00     0.063 H 
BRANCH  12  21
ATOM     21  O   UNL A   1      34.550  24.178  23.495  1.00  0.00    -0.449 OA
BRANCH  21  22
ATOM     22  C   UNL A   1      34.175  22.917  23.946  1.00  0.00     0.217 A 
ATOM     23  C   UNL A   1      33.001  20.412  24.577  1.00  0.00     0.105 A 
ATOM     24  C   UNL A   1      32.190  21.313  24.021  1.00  0.00     0.028 A 
ATOM     25  O   UNL A   1      34.311  20.695  24.901  1.00  0.00    -0.457 OA
ATOM     26  C   UNL A   1      32.719  22.646  23.708  1.00  0.00     0.228 A 
ATOM     27  H   UNL A   1      31.207  21.077  23.813  1.00  0.00     0.070 H 
ATOM     28  C   UNL A   1      34.867  21.931  24.580  1.00  0.00     0.180 A 
ATOM     29  O   UNL A   1      31.959  23.501  23.261  1.00  0.00    -0.285 OA
BRANCH  23  30
ATOM     30  C   UNL A   1      32.570  19.018  24.902  1.00  0.00    -0.006 C 
ATOM     31  H   UNL A   1      32.476  18.912  25.963  1.00  0.00     0.031 H 
ATOM     32  H   UNL A   1      33.301  18.325  24.539  1.00  0.00     0.031 H 
ATOM     33  H   UNL A   1      31.628  18.818  24.437  1.00  0.00     0.031 H 
ENDBRANCH  23  30
BRANCH  28  34
ATOM     34  C   UNL A   1      36.280  21.954  25.005  1.00  0.00     0.021 A 
ATOM     35  C   UNL A   1      36.805  23.112  25.607  1.00  0.00    -0.050 A 
ATOM     36  C   UNL A   1      37.120  20.848  24.808  1.00  0.00    -0.050 A 
ATOM     37  C   UNL A   1      38.117  23.134  26.087  1.00  0.00    -0.043 A 
ATOM     38  H   UNL A   1      36.214  23.953  25.695  1.00  0.00     0.063 H 
ATOM     39  C   UNL A   1      38.439  20.870  25.275  1.00  0.00    -0.043 A 
ATOM     40  H   UNL A   1      36.764  20.014  24.316  1.00  0.00     0.063 H 
ATOM     41  C   UNL A   1      38.926  22.006  25.925  1.00  0.00     0.067 A 
ATOM     42  H   UNL A   1      38.485  23.977  26.555  1.00  0.00     0.064 H 
ATOM     43  H   UNL A   1      39.050  20.048  25.140  1.00  0.00     0.064 H 
BRANCH  41  44
ATOM     44  S   UNL A   1      40.549  21.996  26.656  1.00  0.00     0.175 S 
ATOM     45  O   UNL A   1      40.509  21.083  27.779  1.00  0.00    -0.224 OA
ATOM     46  O   UNL A   1      41.519  21.839  25.586  1.00  0.00    -0.224 OA
BRANCH  44  47
ATOM     47  C   UNL A   1      40.734  23.635  27.299  1.00  0.00     0.043 C 
ATOM     48  H   UNL A   1      41.028  24.296  26.511  1.00  0.00     0.040 H 
ATOM     49  H   UNL A   1      41.483  23.636  28.063  1.00  0.00     0.040 H 
ATOM     50  H   UNL A   1      39.803  23.963  27.711  1.00  0.00     0.040 H 
ENDBRANCH  44  47
ENDBRANCH  41  44
ENDBRANCH  28  34
ENDBRANCH  21  22
ENDBRANCH  12  21
ENDBRANCH   8  11
ENDBRANCH   4   7
ENDBRANCH   1   4
BRANCH   1  51
ATOM     51  C   UNL A   1      34.523  31.825  28.961  1.00  0.00    -0.052 C 
ATOM     52  H   UNL A   1      35.032  31.336  29.765  1.00  0.00     0.027 H 
ATOM     53  H   UNL A   1      33.464  31.678  28.943  1.00  0.00     0.027 H 
BRANCH  51  54
ATOM     54  C   UNL A   1      34.712  33.332  29.145  1.00  0.00    -0.052 C 
ATOM     55  H   UNL A   1      35.473  33.650  28.463  1.00  0.00     0.027 H 
ATOM     56  H   UNL A   1      34.958  33.463  30.178  1.00  0.00     0.027 H 
BRANCH  54  57
ATOM     57  C   UNL A   1      33.483  34.207  28.908  1.00  0.00    -0.036 C 
ATOM     58  H   UNL A   1      32.663  33.770  29.437  1.00  0.00     0.028 H 
ATOM     59  H   UNL A   1      33.353  34.240  27.847  1.00  0.00     0.028 H 
BRANCH  57  60
ATOM     60  C   UNL A   1      33.605  35.659  29.353  1.00  0.00     0.018 C 
ATOM     61  H   UNL A   1      33.458  36.287  28.499  1.00  0.00     0.049 H 
ATOM     62  H   UNL A   1      34.579  35.775  29.781  1.00  0.00     0.049 H 
BRANCH  60  63
ATOM     63  N   UNL A   1      32.640  36.036  30.374  1.00  0.00    -0.352 N 
ATOM     64  C   UNL A   1      32.649  35.787  31.727  1.00  0.00     0.251 C 
ATOM     65  H   UNL A   1      31.865  36.547  30.048  1.00  0.00     0.163 HD
ATOM     66  O   UNL A   1      31.681  36.091  32.418  1.00  0.00    -0.269 OA
BRANCH  64  67
ATOM     67  C   UNL A   1      33.812  35.115  32.352  1.00  0.00     0.039 A 
ATOM     68  C   UNL A   1      35.056  35.741  32.412  1.00  0.00    -0.049 A 
ATOM     69  C   UNL A   1      33.655  33.825  32.870  1.00  0.00    -0.049 A 
ATOM     70  C   UNL A   1      36.176  35.014  32.803  1.00  0.00    -0.053 A 
ATOM     71  H   UNL A   1      35.147  36.739  32.167  1.00  0.00     0.063 H 
ATOM     72  C   UNL A   1      34.767  33.132  33.362  1.00  0.00    -0.053 A 
ATOM     73  H   UNL A   1      32.722  33.385  32.888  1.00  0.00     0.063 H 
ATOM     74  C   UNL A   1      36.047  33.700  33.282  1.00  0.00    -0.014 A 
ATOM     75  H   UNL A   1      37.112  35.446  32.740  1.00  0.00     0.063 H 
ATOM     76  H   UNL A   1      34.644  32.199  33.787  1.00  0.00     0.063 H 
BRANCH  74  77
ATOM     77  C   UNL A   1      37.266  32.953  33.695  1.00  0.00     0.031 A 
ATOM     78  C   UNL A   1      37.913  31.952  32.774  1.00  0.00     0.074 A 
ATOM     79  C   UNL A   1      37.831  33.228  34.886  1.00  0.00     0.049 A 
ATOM     80  N   UNL A   1      39.008  31.254  32.953  1.00  0.00    -0.248 NA
ATOM     81  C   UNL A   1      37.245  31.693  31.489  1.00  0.00    -0.034 C 
ATOM     82  C   UNL A   1      37.301  34.180  35.865  1.00  0.00    -0.036 A 
ATOM     83  N   UNL A   1      38.985  32.764  35.467  1.00  0.00    -0.354 N 
ATOM     84  C   UNL A   1      39.152  30.471  31.815  1.00  0.00     0.074 A 
ATOM     85  C   UNL A   1      38.013  30.746  30.967  1.00  0.00    -0.034 C 
ATOM     86  H   UNL A   1      36.400  32.135  31.096  1.00  0.00     0.065 H 
ATOM     87  C   UNL A   1      38.157  34.278  36.891  1.00  0.00    -0.036 A 
ATOM     88  H   UNL A   1      36.409  34.693  35.777  1.00  0.00     0.065 H 
ATOM     89  C   UNL A   1      39.260  33.346  36.680  1.00  0.00     0.049 A 
ATOM     90  H   UNL A   1      39.559  32.079  35.054  1.00  0.00     0.167 HD
ATOM     91  C   UNL A   1      40.154  29.615  31.498  1.00  0.00     0.037 A 
ATOM     92  H   UNL A   1      37.821  30.267  30.073  1.00  0.00     0.065 H 
ATOM     93  H   UNL A   1      38.052  34.910  37.700  1.00  0.00     0.065 H 
ATOM     94  C   UNL A   1      40.280  33.149  37.537  1.00  0.00     0.037 A 
ATOM     95  C   UNL A   1      41.296  29.356  32.337  1.00  0.00     0.049 A 
ATOM     96  C   UNL A   1      41.350  32.155  37.186  1.00  0.00     0.074 A 
ATOM     97  C   UNL A   1      42.376  28.527  32.090  1.00  0.00    -0.036 A 
ATOM     98  N   UNL A   1      41.503  29.918  33.589  1.00  0.00    -0.354 N 
ATOM     99  N   UNL A   1      41.488  31.444  36.095  1.00  0.00    -0.248 NA
ATOM    100  C   UNL A   1      42.401  31.930  38.187  1.00  0.00    -0.034 C 
ATOM    101  C   UNL A   1      43.207  28.542  33.213  1.00  0.00    -0.036 A 
ATOM    102  H   UNL A   1      42.540  27.990  31.224  1.00  0.00     0.065 H 
ATOM    103  C   UNL A   1      42.680  29.429  34.137  1.00  0.00     0.049 A 
ATOM    104  H   UNL A   1      40.905  30.569  34.023  1.00  0.00     0.167 HD
ATOM    105  C   UNL A   1      42.646  30.699  36.268  1.00  0.00     0.074 A 
ATOM    106  C   UNL A   1      43.184  31.060  37.564  1.00  0.00    -0.034 C 
ATOM    107  H   UNL A   1      42.504  32.341  39.128  1.00  0.00     0.065 H 
ATOM    108  H   UNL A   1      44.068  27.986  33.334  1.00  0.00     0.065 H 
ATOM    109  C   UNL A   1      43.208  29.797  35.428  1.00  0.00     0.037 A 
ATOM    110  H   UNL A   1      44.064  30.686  37.953  1.00  0.00     0.065 H 
BRANCH  91 111
ATOM    111  C   UNL A   1      40.067  28.883  30.188  1.00  0.00     0.064 A 
ATOM    112  C   UNL A   1      40.674  29.380  29.024  1.00  0.00     0.173 A 
ATOM    113  C   UNL A   1      39.426  27.636  30.109  1.00  0.00     0.173 A 
ATOM    114  F   UNL A   1      41.294  30.569  29.041  1.00  0.00    -0.203 F 
ATOM    115  C   UNL A   1      40.624  28.668  27.828  1.00  0.00     0.198 A 
ATOM    116  C   UNL A   1      39.405  26.913  28.919  1.00  0.00     0.198 A 
ATOM    117  F   UNL A   1      38.837  27.109  31.192  1.00  0.00    -0.203 F 
ATOM    118  F   UNL A   1      41.177  29.182  26.720  1.00  0.00    -0.200 F 
ATOM    119  C   UNL A   1      39.998  27.431  27.779  1.00  0.00     0.200 A 
ATOM    120  F   UNL A   1      38.815  25.710  28.879  1.00  0.00    -0.200 F 
ATOM    121  F   UNL A   1      39.964  26.740  26.630  1.00  0.00    -0.200 F 
ENDBRANCH  91 111
BRANCH  94 122
ATOM    122  C   UNL A   1      40.331  33.931  38.799  1.00  0.00     0.064 A 
ATOM    123  C   UNL A   1      41.045  35.135  38.870  1.00  0.00     0.173 A 
ATOM    124  C   UNL A   1      39.624  33.524  39.940  1.00  0.00     0.173 A 
ATOM    125  F   UNL A   1      41.751  35.558  37.812  1.00  0.00    -0.203 F 
ATOM    126  C   UNL A   1      41.046  35.903  40.033  1.00  0.00     0.198 A 
ATOM    127  C   UNL A   1      39.601  34.306  41.091  1.00  0.00     0.198 A 
ATOM    128  F   UNL A   1      38.921  32.381  39.921  1.00  0.00    -0.203 F 
ATOM    129  F   UNL A   1      41.755  37.039  40.082  1.00  0.00    -0.200 F 
ATOM    130  C   UNL A   1      40.315  35.494  41.138  1.00  0.00     0.200 A 
ATOM    131  F   UNL A   1      38.875  33.918  42.149  1.00  0.00    -0.200 F 
ATOM    132  F   UNL A   1      40.296  36.244  42.247  1.00  0.00    -0.200 F 
ENDBRANCH  94 122
BRANCH 109 133
ATOM    133  C   UNL A   1      44.484  29.136  35.863  1.00  0.00     0.064 A 
ATOM    134  C   UNL A   1      45.734  29.719  35.608  1.00  0.00     0.173 A 
ATOM    135  C   UNL A   1      44.451  27.956  36.620  1.00  0.00     0.173 A 
ATOM    136  F   UNL A   1      45.821  30.839  34.876  1.00  0.00    -0.203 F 
ATOM    137  C   UNL A   1      46.905  29.137  36.089  1.00  0.00     0.198 A 
ATOM    138  C   UNL A   1      45.620  27.395  37.126  1.00  0.00     0.198 A 
ATOM    139  F   UNL A   1      43.280  27.362  36.898  1.00  0.00    -0.203 F 
ATOM    140  F   UNL A   1      48.091  29.695  35.809  1.00  0.00    -0.200 F 
ATOM    141  C   UNL A   1      46.846  27.985  36.858  1.00  0.00     0.200 A 
ATOM    142  F   UNL A   1      45.560  26.291  37.884  1.00  0.00    -0.200 F 
ATOM    143  F   UNL A   1      47.973  27.441  37.340  1.00  0.00    -0.200 F 
ENDBRANCH 109 133
ENDBRANCH  74  77
ENDBRANCH  64  67
ENDBRANCH  60  63
ENDBRANCH  57  60
ENDBRANCH  54  57
ENDBRANCH  51  54
ENDBRANCH   1  51
TORSDOF 19
ENDMDL
MODEL 8
REMARK VINA RESULT:     -11.6      3.641      8.615
REMARK SMILES Cc1cc(=O)c(Oc2ccc(C(=O)NCCCCCCNC(=O)c3ccc(-c4c5nc(c(-c6c(F)c(F)c(F)c(F)c6F)c6ccc([nH]6)c(-c6c(F)c(F)c(F)c(F)c6F)c6nc(c(-c7c(F)c(F)c(F)c(F)c7F)c7ccc4[nH]7)C=C6)C=C5)cc3)cc2)c(-c2ccc(S(C)(=O)=O)cc2)o1
REMARK SMILES IDX 16 1 15 4 14 7 12 8 13 9 11 11 8 12 9 13 88 14 10 15 87 17
REMARK SMILES IDX 7 21 6 22 2 23 3 24 100 25 4 26 89 28 5 29 1 30 90 34 91 35
REMARK SMILES IDX 99 36 92 37 98 39 93 41 94 44 96 45 97 46 95 47 17 51 18 54
REMARK SMILES IDX 19 57 20 60 21 63 22 64 23 66 24 67 25 68 86 69 26 70 85 72
REMARK SMILES IDX 27 74 28 77 29 78 79 79 30 80 84 81 78 82 80 83 31 84 83 85
REMARK SMILES IDX 77 87 76 89 32 91 64 94 44 95 63 96 45 97 48 98 62 99 81 100
REMARK SMILES IDX 46 101 47 103 61 105 82 106 49 109 33 111 34 112 42 113
REMARK SMILES IDX 35 114 36 115 40 116 43 117 37 118 38 119 41 120 39 121
REMARK SMILES IDX 65 122 66 123 74 124 67 125 68 126 72 127 75 128 69 129
REMARK SMILES IDX 70 130 73 131 71 132 50 133 51 134 59 135 52 136 53 137
REMARK SMILES IDX 57 138 60 139 54 140 55 141 58 142 56 143
REMARK H PARENT 16 2 16 3 15 5 15 6 14 10 9 16 88 18 10 19 87 20 3 27 1 31
REMARK H PARENT 1 32 1 33 91 38 99 40 92 42 98 43 95 48 95 49 95 50 17 52
REMARK H PARENT 17 53 18 55 18 56 19 58 19 59 20 61 20 62 21 65 25 71 86 73
REMARK H PARENT 26 75 85 76 84 86 78 88 80 90 83 92 77 93 45 102 48 104 81 107
REMARK H PARENT 46 108 82 110
REMARK Flexibility Score: inf
ROOT
ATOM      1  C   UNL A   1      39.587  25.187  26.500  1.00  0.00    -0.036 C 
ATOM      2  H   UNL A   1      38.926  26.029  26.489  1.00  0.00     0.028 H 
ATOM      3  H   UNL A   1      39.737  24.708  25.555  1.00  0.00     0.028 H 
ENDROOT
BRANCH   1   4
ATOM      4  C   UNL A   1      38.949  24.117  27.381  1.00  0.00     0.018 C 
ATOM      5  H   UNL A   1      39.363  24.213  28.364  1.00  0.00     0.049 H 
ATOM      6  H   UNL A   1      37.895  24.293  27.332  1.00  0.00     0.049 H 
BRANCH   4   7
ATOM      7  N   UNL A   1      39.139  22.748  26.951  1.00  0.00    -0.352 N 
ATOM      8  C   UNL A   1      38.529  22.029  25.947  1.00  0.00     0.251 C 
ATOM      9  O   UNL A   1      38.950  20.904  25.680  1.00  0.00    -0.269 OA
ATOM     10  H   UNL A   1      39.817  22.249  27.460  1.00  0.00     0.163 HD
BRANCH   8  11
ATOM     11  C   UNL A   1      37.306  22.524  25.256  1.00  0.00     0.040 A 
ATOM     12  C   UNL A   1      35.362  23.985  23.901  1.00  0.00     0.127 A 
ATOM     13  C   UNL A   1      35.498  24.147  25.274  1.00  0.00    -0.019 A 
ATOM     14  C   UNL A   1      36.020  22.939  23.257  1.00  0.00    -0.019 A 
ATOM     15  C   UNL A   1      36.501  23.443  25.946  1.00  0.00    -0.046 A 
ATOM     16  H   UNL A   1      34.866  24.777  25.792  1.00  0.00     0.066 H 
ATOM     17  C   UNL A   1      36.968  22.183  23.946  1.00  0.00    -0.046 A 
ATOM     18  H   UNL A   1      35.806  22.725  22.270  1.00  0.00     0.066 H 
ATOM     19  H   UNL A   1      36.651  23.600  26.955  1.00  0.00     0.063 H 
ATOM     20  H   UNL A   1      37.416  21.374  23.489  1.00  0.00     0.063 H 
BRANCH  12  21
ATOM     21  O   UNL A   1      34.537  24.758  23.140  1.00  0.00    -0.449 OA
BRANCH  21  22
ATOM     22  C   UNL A   1      33.194  24.975  23.424  1.00  0.00     0.217 A 
ATOM     23  C   UNL A   1      30.538  25.887  23.836  1.00  0.00     0.105 A 
ATOM     24  C   UNL A   1      31.462  26.835  23.665  1.00  0.00     0.028 A 
ATOM     25  O   UNL A   1      30.855  24.547  23.888  1.00  0.00    -0.457 OA
ATOM     26  C   UNL A   1      32.864  26.437  23.490  1.00  0.00     0.228 A 
ATOM     27  H   UNL A   1      31.195  27.832  23.656  1.00  0.00     0.070 H 
ATOM     28  C   UNL A   1      32.166  24.121  23.681  1.00  0.00     0.180 A 
ATOM     29  O   UNL A   1      33.726  27.307  23.404  1.00  0.00    -0.285 OA
BRANCH  23  30
ATOM     30  C   UNL A   1      29.081  26.186  23.988  1.00  0.00    -0.006 C 
ATOM     31  H   UNL A   1      28.519  25.566  23.321  1.00  0.00     0.031 H 
ATOM     32  H   UNL A   1      28.903  27.215  23.753  1.00  0.00     0.031 H 
ATOM     33  H   UNL A   1      28.781  25.993  24.996  1.00  0.00     0.031 H 
ENDBRANCH  23  30
BRANCH  28  34
ATOM     34  C   UNL A   1      32.216  22.649  23.757  1.00  0.00     0.021 A 
ATOM     35  C   UNL A   1      32.097  21.888  22.579  1.00  0.00    -0.050 A 
ATOM     36  C   UNL A   1      32.365  21.985  24.984  1.00  0.00    -0.050 A 
ATOM     37  C   UNL A   1      32.216  20.496  22.614  1.00  0.00    -0.043 A 
ATOM     38  H   UNL A   1      31.920  22.364  21.681  1.00  0.00     0.063 H 
ATOM     39  C   UNL A   1      32.472  20.590  25.025  1.00  0.00    -0.043 A 
ATOM     40  H   UNL A   1      32.395  22.528  25.860  1.00  0.00     0.063 H 
ATOM     41  C   UNL A   1      32.412  19.855  23.839  1.00  0.00     0.067 A 
ATOM     42  H   UNL A   1      32.158  19.948  21.742  1.00  0.00     0.064 H 
ATOM     43  H   UNL A   1      32.595  20.107  25.929  1.00  0.00     0.064 H 
BRANCH  41  44
ATOM     44  S   UNL A   1      32.695  18.097  23.858  1.00  0.00     0.175 S 
ATOM     45  O   UNL A   1      31.899  17.545  24.934  1.00  0.00    -0.224 OA
ATOM     46  O   UNL A   1      32.568  17.610  22.496  1.00  0.00    -0.224 OA
BRANCH  44  47
ATOM     47  C   UNL A   1      34.399  17.948  24.314  1.00  0.00     0.043 C 
ATOM     48  H   UNL A   1      35.015  18.290  23.510  1.00  0.00     0.040 H 
ATOM     49  H   UNL A   1      34.623  16.923  24.524  1.00  0.00     0.040 H 
ATOM     50  H   UNL A   1      34.587  18.540  25.185  1.00  0.00     0.040 H 
ENDBRANCH  44  47
ENDBRANCH  41  44
ENDBRANCH  28  34
ENDBRANCH  21  22
ENDBRANCH  12  21
ENDBRANCH   8  11
ENDBRANCH   4   7
ENDBRANCH   1   4
BRANCH   1  51
ATOM     51  C   UNL A   1      40.971  25.700  26.899  1.00  0.00    -0.052 C 
ATOM     52  H   UNL A   1      41.656  24.883  26.809  1.00  0.00     0.027 H 
ATOM     53  H   UNL A   1      40.852  26.081  27.892  1.00  0.00     0.027 H 
BRANCH  51  54
ATOM     54  C   UNL A   1      41.538  26.868  26.090  1.00  0.00    -0.052 C 
ATOM     55  H   UNL A   1      42.019  27.534  26.775  1.00  0.00     0.027 H 
ATOM     56  H   UNL A   1      40.700  27.288  25.574  1.00  0.00     0.027 H 
BRANCH  54  57
ATOM     57  C   UNL A   1      42.549  26.515  25.000  1.00  0.00    -0.036 C 
ATOM     58  H   UNL A   1      43.299  27.276  24.990  1.00  0.00     0.028 H 
ATOM     59  H   UNL A   1      41.984  26.445  24.094  1.00  0.00     0.028 H 
BRANCH  57  60
ATOM     60  C   UNL A   1      43.249  25.172  25.153  1.00  0.00     0.018 C 
ATOM     61  H   UNL A   1      42.918  24.526  24.366  1.00  0.00     0.049 H 
ATOM     62  H   UNL A   1      42.997  24.794  26.122  1.00  0.00     0.049 H 
BRANCH  60  63
ATOM     63  N   UNL A   1      44.700  25.263  25.094  1.00  0.00    -0.352 N 
ATOM     64  C   UNL A   1      45.572  25.950  25.907  1.00  0.00     0.251 C 
ATOM     65  H   UNL A   1      45.121  24.755  24.364  1.00  0.00     0.163 HD
ATOM     66  O   UNL A   1      46.766  25.999  25.630  1.00  0.00    -0.269 OA
BRANCH  64  67
ATOM     67  C   UNL A   1      45.067  26.668  27.100  1.00  0.00     0.039 A 
ATOM     68  C   UNL A   1      44.539  25.973  28.187  1.00  0.00    -0.049 A 
ATOM     69  C   UNL A   1      45.105  28.067  27.120  1.00  0.00    -0.049 A 
ATOM     70  C   UNL A   1      43.877  26.666  29.194  1.00  0.00    -0.053 A 
ATOM     71  H   UNL A   1      44.639  24.947  28.244  1.00  0.00     0.063 H 
ATOM     72  C   UNL A   1      44.531  28.765  28.189  1.00  0.00    -0.053 A 
ATOM     73  H   UNL A   1      45.554  28.583  26.348  1.00  0.00     0.063 H 
ATOM     74  C   UNL A   1      43.863  28.071  29.209  1.00  0.00    -0.014 A 
ATOM     75  H   UNL A   1      43.392  26.143  29.940  1.00  0.00     0.063 H 
ATOM     76  H   UNL A   1      44.600  29.794  28.226  1.00  0.00     0.063 H 
BRANCH  74  77
ATOM     77  C   UNL A   1      43.148  28.781  30.304  1.00  0.00     0.031 A 
ATOM     78  C   UNL A   1      41.746  29.296  30.111  1.00  0.00     0.074 A 
ATOM     79  C   UNL A   1      43.746  28.904  31.505  1.00  0.00     0.049 A 
ATOM     80  N   UNL A   1      40.958  29.887  30.975  1.00  0.00    -0.248 NA
ATOM     81  C   UNL A   1      41.150  29.134  28.776  1.00  0.00    -0.034 C 
ATOM     82  C   UNL A   1      45.100  28.443  31.817  1.00  0.00    -0.036 A 
ATOM     83  N   UNL A   1      43.290  29.421  32.692  1.00  0.00    -0.354 N 
ATOM     84  C   UNL A   1      39.785  30.176  30.289  1.00  0.00     0.074 A 
ATOM     85  C   UNL A   1      39.976  29.733  28.925  1.00  0.00    -0.034 C 
ATOM     86  H   UNL A   1      41.543  28.673  27.941  1.00  0.00     0.065 H 
ATOM     87  C   UNL A   1      45.341  28.637  33.121  1.00  0.00    -0.036 A 
ATOM     88  H   UNL A   1      45.763  28.033  31.140  1.00  0.00     0.065 H 
ATOM     89  C   UNL A   1      44.189  29.300  33.723  1.00  0.00     0.049 A 
ATOM     90  H   UNL A   1      42.404  29.839  32.793  1.00  0.00     0.167 HD
ATOM     91  C   UNL A   1      38.647  30.741  30.758  1.00  0.00     0.037 A 
ATOM     92  H   UNL A   1      39.290  29.867  28.166  1.00  0.00     0.065 H 
ATOM     93  H   UNL A   1      46.202  28.363  33.618  1.00  0.00     0.065 H 
ATOM     94  C   UNL A   1      44.105  29.687  35.010  1.00  0.00     0.037 A 
ATOM     95  C   UNL A   1      38.454  31.166  32.122  1.00  0.00     0.049 A 
ATOM     96  C   UNL A   1      42.851  30.360  35.493  1.00  0.00     0.074 A 
ATOM     97  C   UNL A   1      37.327  31.723  32.699  1.00  0.00    -0.036 A 
ATOM     98  N   UNL A   1      39.414  31.084  33.120  1.00  0.00    -0.354 N 
ATOM     99  N   UNL A   1      41.741  30.600  34.840  1.00  0.00    -0.248 NA
ATOM    100  C   UNL A   1      42.841  30.823  36.887  1.00  0.00    -0.034 C 
ATOM    101  C   UNL A   1      37.622  32.032  34.029  1.00  0.00    -0.036 A 
ATOM    102  H   UNL A   1      36.422  31.882  32.228  1.00  0.00     0.065 H 
ATOM    103  C   UNL A   1      38.913  31.610  34.302  1.00  0.00     0.049 A 
ATOM    104  H   UNL A   1      40.317  30.708  33.008  1.00  0.00     0.167 HD
ATOM    105  C   UNL A   1      40.894  31.226  35.744  1.00  0.00     0.074 A 
ATOM    106  C   UNL A   1      41.613  31.312  36.999  1.00  0.00    -0.034 C 
ATOM    107  H   UNL A   1      43.591  30.778  37.594  1.00  0.00     0.065 H 
ATOM    108  H   UNL A   1      36.986  32.497  34.696  1.00  0.00     0.065 H 
ATOM    109  C   UNL A   1      39.636  31.688  35.547  1.00  0.00     0.037 A 
ATOM    110  H   UNL A   1      41.220  31.705  37.869  1.00  0.00     0.065 H 
BRANCH  91 111
ATOM    111  C   UNL A   1      37.511  30.944  29.794  1.00  0.00     0.064 A 
ATOM    112  C   UNL A   1      37.316  32.166  29.133  1.00  0.00     0.173 A 
ATOM    113  C   UNL A   1      36.647  29.884  29.477  1.00  0.00     0.173 A 
ATOM    114  F   UNL A   1      38.108  33.215  29.403  1.00  0.00    -0.203 F 
ATOM    115  C   UNL A   1      36.286  32.325  28.208  1.00  0.00     0.198 A 
ATOM    116  C   UNL A   1      35.639  30.037  28.529  1.00  0.00     0.198 A 
ATOM    117  F   UNL A   1      36.795  28.691  30.072  1.00  0.00    -0.203 F 
ATOM    118  F   UNL A   1      36.094  33.515  27.620  1.00  0.00    -0.200 F 
ATOM    119  C   UNL A   1      35.455  31.259  27.900  1.00  0.00     0.200 A 
ATOM    120  F   UNL A   1      34.849  29.000  28.219  1.00  0.00    -0.200 F 
ATOM    121  F   UNL A   1      34.474  31.409  26.998  1.00  0.00    -0.200 F 
ENDBRANCH  91 111
BRANCH  94 122
ATOM    122  C   UNL A   1      45.245  29.424  35.925  1.00  0.00     0.064 A 
ATOM    123  C   UNL A   1      45.309  28.240  36.672  1.00  0.00     0.173 A 
ATOM    124  C   UNL A   1      46.320  30.320  36.028  1.00  0.00     0.173 A 
ATOM    125  F   UNL A   1      44.299  27.361  36.621  1.00  0.00    -0.203 F 
ATOM    126  C   UNL A   1      46.407  27.962  37.484  1.00  0.00     0.198 A 
ATOM    127  C   UNL A   1      47.430  30.027  36.816  1.00  0.00     0.198 A 
ATOM    128  F   UNL A   1      46.309  31.465  35.329  1.00  0.00    -0.203 F 
ATOM    129  F   UNL A   1      46.433  26.833  38.206  1.00  0.00    -0.200 F 
ATOM    130  C   UNL A   1      47.470  28.849  37.547  1.00  0.00     0.200 A 
ATOM    131  F   UNL A   1      48.465  30.877  36.856  1.00  0.00    -0.200 F 
ATOM    132  F   UNL A   1      48.536  28.569  38.309  1.00  0.00    -0.200 F 
ENDBRANCH  94 122
BRANCH 109 133
ATOM    133  C   UNL A   1      38.933  32.320  36.713  1.00  0.00     0.064 A 
ATOM    134  C   UNL A   1      38.014  31.601  37.491  1.00  0.00     0.173 A 
ATOM    135  C   UNL A   1      39.249  33.629  37.110  1.00  0.00     0.173 A 
ATOM    136  F   UNL A   1      37.667  30.353  37.145  1.00  0.00    -0.203 F 
ATOM    137  C   UNL A   1      37.431  32.174  38.620  1.00  0.00     0.198 A 
ATOM    138  C   UNL A   1      38.688  34.185  38.256  1.00  0.00     0.198 A 
ATOM    139  F   UNL A   1      40.128  34.356  36.404  1.00  0.00    -0.203 F 
ATOM    140  F   UNL A   1      36.533  31.479  39.331  1.00  0.00    -0.200 F 
ATOM    141  C   UNL A   1      37.778  33.459  39.008  1.00  0.00     0.200 A 
ATOM    142  F   UNL A   1      39.038  35.421  38.640  1.00  0.00    -0.200 F 
ATOM    143  F   UNL A   1      37.234  33.998  40.108  1.00  0.00    -0.200 F 
ENDBRANCH 109 133
ENDBRANCH  74  77
ENDBRANCH  64  67
ENDBRANCH  60  63
ENDBRANCH  57  60
ENDBRANCH  54  57
ENDBRANCH  51  54
ENDBRANCH   1  51
TORSDOF 19
ENDMDL
MODEL 9
REMARK VINA RESULT:     -11.6      3.324      8.973
REMARK SMILES Cc1cc(=O)c(Oc2ccc(C(=O)NCCCCCCNC(=O)c3ccc(-c4c5nc(c(-c6c(F)c(F)c(F)c(F)c6F)c6ccc([nH]6)c(-c6c(F)c(F)c(F)c(F)c6F)c6nc(c(-c7c(F)c(F)c(F)c(F)c7F)c7ccc4[nH]7)C=C6)C=C5)cc3)cc2)c(-c2ccc(S(C)(=O)=O)cc2)o1
REMARK SMILES IDX 16 1 15 4 14 7 12 8 13 9 11 11 8 12 9 13 88 14 10 15 87 17
REMARK SMILES IDX 7 21 6 22 2 23 3 24 100 25 4 26 89 28 5 29 1 30 90 34 91 35
REMARK SMILES IDX 99 36 92 37 98 39 93 41 94 44 96 45 97 46 95 47 17 51 18 54
REMARK SMILES IDX 19 57 20 60 21 63 22 64 23 66 24 67 25 68 86 69 26 70 85 72
REMARK SMILES IDX 27 74 28 77 29 78 79 79 30 80 84 81 78 82 80 83 31 84 83 85
REMARK SMILES IDX 77 87 76 89 32 91 64 94 44 95 63 96 45 97 48 98 62 99 81 100
REMARK SMILES IDX 46 101 47 103 61 105 82 106 49 109 33 111 34 112 42 113
REMARK SMILES IDX 35 114 36 115 40 116 43 117 37 118 38 119 41 120 39 121
REMARK SMILES IDX 65 122 66 123 74 124 67 125 68 126 72 127 75 128 69 129
REMARK SMILES IDX 70 130 73 131 71 132 50 133 51 134 59 135 52 136 53 137
REMARK SMILES IDX 57 138 60 139 54 140 55 141 58 142 56 143
REMARK H PARENT 16 2 16 3 15 5 15 6 14 10 9 16 88 18 10 19 87 20 3 27 1 31
REMARK H PARENT 1 32 1 33 91 38 99 40 92 42 98 43 95 48 95 49 95 50 17 52
REMARK H PARENT 17 53 18 55 18 56 19 58 19 59 20 61 20 62 21 65 25 71 86 73
REMARK H PARENT 26 75 85 76 84 86 78 88 80 90 83 92 77 93 45 102 48 104 81 107
REMARK H PARENT 46 108 82 110
REMARK Flexibility Score: inf
ROOT
ATOM      1  C   UNL A   1      31.066  28.379  23.139  1.00  0.00    -0.036 C 
ATOM      2  H   UNL A   1      30.667  27.452  22.784  1.00  0.00     0.028 H 
ATOM      3  H   UNL A   1      30.623  29.260  22.722  1.00  0.00     0.028 H 
ENDROOT
BRANCH   1   4
ATOM      4  C   UNL A   1      32.529  28.440  22.710  1.00  0.00     0.018 C 
ATOM      5  H   UNL A   1      32.736  29.442  22.395  1.00  0.00     0.049 H 
ATOM      6  H   UNL A   1      33.094  28.125  23.562  1.00  0.00     0.049 H 
BRANCH   4   7
ATOM      7  N   UNL A   1      32.910  27.549  21.635  1.00  0.00    -0.352 N 
ATOM      8  C   UNL A   1      33.067  26.180  21.615  1.00  0.00     0.251 C 
ATOM      9  O   UNL A   1      33.275  25.620  20.539  1.00  0.00    -0.269 OA
ATOM     10  H   UNL A   1      33.086  27.995  20.775  1.00  0.00     0.163 HD
BRANCH   8  11
ATOM     11  C   UNL A   1      33.107  25.375  22.867  1.00  0.00     0.040 A 
ATOM     12  C   UNL A   1      33.287  23.386  24.807  1.00  0.00     0.127 A 
ATOM     13  C   UNL A   1      32.082  23.579  24.143  1.00  0.00    -0.019 A 
ATOM     14  C   UNL A   1      34.309  24.325  24.677  1.00  0.00    -0.019 A 
ATOM     15  C   UNL A   1      32.005  24.550  23.141  1.00  0.00    -0.046 A 
ATOM     16  H   UNL A   1      31.254  23.013  24.386  1.00  0.00     0.066 H 
ATOM     17  C   UNL A   1      34.203  25.343  23.730  1.00  0.00    -0.046 A 
ATOM     18  H   UNL A   1      35.145  24.265  25.280  1.00  0.00     0.066 H 
ATOM     19  H   UNL A   1      31.133  24.661  22.600  1.00  0.00     0.063 H 
ATOM     20  H   UNL A   1      34.931  26.071  23.669  1.00  0.00     0.063 H 
BRANCH  12  21
ATOM     21  O   UNL A   1      33.505  22.351  25.665  1.00  0.00    -0.449 OA
BRANCH  21  22
ATOM     22  C   UNL A   1      33.774  21.048  25.259  1.00  0.00     0.217 A 
ATOM     23  C   UNL A   1      33.841  18.384  24.284  1.00  0.00     0.105 A 
ATOM     24  C   UNL A   1      32.627  18.902  24.488  1.00  0.00     0.028 A 
ATOM     25  O   UNL A   1      34.998  19.065  24.599  1.00  0.00    -0.457 OA
ATOM     26  C   UNL A   1      32.518  20.261  25.032  1.00  0.00     0.228 A 
ATOM     27  H   UNL A   1      31.780  18.356  24.265  1.00  0.00     0.070 H 
ATOM     28  C   UNL A   1      34.942  20.373  25.074  1.00  0.00     0.180 A 
ATOM     29  O   UNL A   1      31.406  20.714  25.287  1.00  0.00    -0.285 OA
BRANCH  23  30
ATOM     30  C   UNL A   1      34.060  17.024  23.703  1.00  0.00    -0.006 C 
ATOM     31  H   UNL A   1      35.090  16.754  23.807  1.00  0.00     0.031 H 
ATOM     32  H   UNL A   1      33.797  17.034  22.665  1.00  0.00     0.031 H 
ATOM     33  H   UNL A   1      33.449  16.313  24.218  1.00  0.00     0.031 H 
ENDBRANCH  23  30
BRANCH  28  34
ATOM     34  C   UNL A   1      36.313  20.869  25.294  1.00  0.00     0.021 A 
ATOM     35  C   UNL A   1      36.510  22.181  25.760  1.00  0.00    -0.050 A 
ATOM     36  C   UNL A   1      37.433  20.064  25.033  1.00  0.00    -0.050 A 
ATOM     37  C   UNL A   1      37.795  22.651  26.048  1.00  0.00    -0.043 A 
ATOM     38  H   UNL A   1      35.697  22.804  25.891  1.00  0.00     0.063 H 
ATOM     39  C   UNL A   1      38.722  20.534  25.308  1.00  0.00    -0.043 A 
ATOM     40  H   UNL A   1      37.304  19.121  24.636  1.00  0.00     0.063 H 
ATOM     41  C   UNL A   1      38.895  21.819  25.828  1.00  0.00     0.067 A 
ATOM     42  H   UNL A   1      37.928  23.605  26.419  1.00  0.00     0.064 H 
ATOM     43  H   UNL A   1      39.541  19.933  25.128  1.00  0.00     0.064 H 
BRANCH  41  44
ATOM     44  S   UNL A   1      40.512  22.376  26.322  1.00  0.00     0.175 S 
ATOM     45  O   UNL A   1      41.462  21.830  25.376  1.00  0.00    -0.224 OA
ATOM     46  O   UNL A   1      40.433  23.804  26.577  1.00  0.00    -0.224 OA
BRANCH  44  47
ATOM     47  C   UNL A   1      40.778  21.576  27.879  1.00  0.00     0.043 C 
ATOM     48  H   UNL A   1      40.495  22.237  28.672  1.00  0.00     0.040 H 
ATOM     49  H   UNL A   1      41.812  21.323  27.977  1.00  0.00     0.040 H 
ATOM     50  H   UNL A   1      40.186  20.686  27.927  1.00  0.00     0.040 H 
ENDBRANCH  44  47
ENDBRANCH  41  44
ENDBRANCH  28  34
ENDBRANCH  21  22
ENDBRANCH  12  21
ENDBRANCH   8  11
ENDBRANCH   4   7
ENDBRANCH   1   4
BRANCH   1  51
ATOM     51  C   UNL A   1      30.762  28.465  24.635  1.00  0.00    -0.052 C 
ATOM     52  H   UNL A   1      29.704  28.369  24.755  1.00  0.00     0.027 H 
ATOM     53  H   UNL A   1      31.169  29.403  24.948  1.00  0.00     0.027 H 
BRANCH  51  54
ATOM     54  C   UNL A   1      31.425  27.422  25.538  1.00  0.00    -0.052 C 
ATOM     55  H   UNL A   1      31.909  26.706  24.906  1.00  0.00     0.027 H 
ATOM     56  H   UNL A   1      30.634  27.024  26.138  1.00  0.00     0.027 H 
BRANCH  54  57
ATOM     57  C   UNL A   1      32.464  27.941  26.529  1.00  0.00    -0.036 C 
ATOM     58  H   UNL A   1      33.081  27.118  26.819  1.00  0.00     0.028 H 
ATOM     59  H   UNL A   1      31.905  28.374  27.332  1.00  0.00     0.028 H 
BRANCH  57  60
ATOM     60  C   UNL A   1      33.375  29.049  26.018  1.00  0.00     0.018 C 
ATOM     61  H   UNL A   1      33.395  29.006  24.949  1.00  0.00     0.049 H 
ATOM     62  H   UNL A   1      34.341  28.885  26.450  1.00  0.00     0.049 H 
BRANCH  60  63
ATOM     63  N   UNL A   1      32.950  30.382  26.417  1.00  0.00    -0.352 N 
ATOM     64  C   UNL A   1      33.556  31.283  27.263  1.00  0.00     0.251 C 
ATOM     65  H   UNL A   1      32.101  30.686  26.022  1.00  0.00     0.163 HD
ATOM     66  O   UNL A   1      32.983  32.324  27.569  1.00  0.00    -0.269 OA
BRANCH  64  67
ATOM     67  C   UNL A   1      34.886  30.982  27.839  1.00  0.00     0.039 A 
ATOM     68  C   UNL A   1      35.219  29.689  28.242  1.00  0.00    -0.049 A 
ATOM     69  C   UNL A   1      35.811  32.020  27.997  1.00  0.00    -0.049 A 
ATOM     70  C   UNL A   1      36.382  29.472  28.973  1.00  0.00    -0.053 A 
ATOM     71  H   UNL A   1      34.605  28.896  27.998  1.00  0.00     0.063 H 
ATOM     72  C   UNL A   1      37.029  31.776  28.641  1.00  0.00    -0.053 A 
ATOM     73  H   UNL A   1      35.595  32.964  27.640  1.00  0.00     0.063 H 
ATOM     74  C   UNL A   1      37.302  30.512  29.184  1.00  0.00    -0.014 A 
ATOM     75  H   UNL A   1      36.571  28.535  29.365  1.00  0.00     0.063 H 
ATOM     76  H   UNL A   1      37.730  32.531  28.717  1.00  0.00     0.063 H 
BRANCH  74  77
ATOM     77  C   UNL A   1      38.537  30.243  29.969  1.00  0.00     0.031 A 
ATOM     78  C   UNL A   1      38.665  30.701  31.399  1.00  0.00     0.074 A 
ATOM     79  C   UNL A   1      39.527  29.523  29.407  1.00  0.00     0.049 A 
ATOM     80  N   UNL A   1      39.647  30.503  32.243  1.00  0.00    -0.248 NA
ATOM     81  C   UNL A   1      37.552  31.486  31.953  1.00  0.00    -0.034 C 
ATOM     82  C   UNL A   1      39.520  29.020  28.032  1.00  0.00    -0.036 A 
ATOM     83  N   UNL A   1      40.712  29.061  29.922  1.00  0.00    -0.354 N 
ATOM     84  C   UNL A   1      39.277  31.146  33.418  1.00  0.00     0.074 A 
ATOM     85  C   UNL A   1      37.999  31.775  33.168  1.00  0.00    -0.034 C 
ATOM     86  H   UNL A   1      36.655  31.743  31.512  1.00  0.00     0.065 H 
ATOM     87  C   UNL A   1      40.610  28.268  27.833  1.00  0.00    -0.036 A 
ATOM     88  H   UNL A   1      38.790  29.215  27.328  1.00  0.00     0.065 H 
ATOM     89  C   UNL A   1      41.430  28.291  29.039  1.00  0.00     0.049 A 
ATOM     90  H   UNL A   1      41.018  29.262  30.836  1.00  0.00     0.167 HD
ATOM     91  C   UNL A   1      39.934  31.191  34.601  1.00  0.00     0.037 A 
ATOM     92  H   UNL A   1      37.500  32.373  33.845  1.00  0.00     0.065 H 
ATOM     93  H   UNL A   1      40.835  27.756  26.965  1.00  0.00     0.065 H 
ATOM     94  C   UNL A   1      42.621  27.678  29.178  1.00  0.00     0.037 A 
ATOM     95  C   UNL A   1      41.200  30.548  34.852  1.00  0.00     0.049 A 
ATOM     96  C   UNL A   1      43.355  27.788  30.484  1.00  0.00     0.074 A 
ATOM     97  C   UNL A   1      41.930  30.513  36.027  1.00  0.00    -0.036 A 
ATOM     98  N   UNL A   1      41.925  29.833  33.910  1.00  0.00    -0.354 N 
ATOM     99  N   UNL A   1      42.980  28.374  31.594  1.00  0.00    -0.248 NA
ATOM    100  C   UNL A   1      44.680  27.158  30.555  1.00  0.00    -0.034 C 
ATOM    101  C   UNL A   1      43.122  29.828  35.782  1.00  0.00    -0.036 A 
ATOM    102  H   UNL A   1      41.643  30.923  36.930  1.00  0.00     0.065 H 
ATOM    103  C   UNL A   1      43.110  29.379  34.471  1.00  0.00     0.049 A 
ATOM    104  H   UNL A   1      41.641  29.670  32.982  1.00  0.00     0.167 HD
ATOM    105  C   UNL A   1      44.011  28.173  32.500  1.00  0.00     0.074 A 
ATOM    106  C   UNL A   1      45.021  27.392  31.815  1.00  0.00    -0.034 C 
ATOM    107  H   UNL A   1      45.207  26.663  29.819  1.00  0.00     0.065 H 
ATOM    108  H   UNL A   1      43.884  29.681  36.462  1.00  0.00     0.065 H 
ATOM    109  C   UNL A   1      44.108  28.600  33.782  1.00  0.00     0.037 A 
ATOM    110  H   UNL A   1      45.896  27.061  32.253  1.00  0.00     0.065 H 
BRANCH  91 111
ATOM    111  C   UNL A   1      39.307  31.964  35.727  1.00  0.00     0.064 A 
ATOM    112  C   UNL A   1      38.422  31.360  36.634  1.00  0.00     0.173 A 
ATOM    113  C   UNL A   1      39.645  33.310  35.943  1.00  0.00     0.173 A 
ATOM    114  F   UNL A   1      38.059  30.079  36.470  1.00  0.00    -0.203 F 
ATOM    115  C   UNL A   1      37.884  32.079  37.699  1.00  0.00     0.198 A 
ATOM    116  C   UNL A   1      39.130  34.015  37.027  1.00  0.00     0.198 A 
ATOM    117  F   UNL A   1      40.494  33.934  35.114  1.00  0.00    -0.203 F 
ATOM    118  F   UNL A   1      37.009  31.490  38.527  1.00  0.00    -0.200 F 
ATOM    119  C   UNL A   1      38.245  33.402  37.900  1.00  0.00     0.200 A 
ATOM    120  F   UNL A   1      39.495  35.289  37.230  1.00  0.00    -0.200 F 
ATOM    121  F   UNL A   1      37.738  34.087  38.935  1.00  0.00    -0.200 F 
ENDBRANCH  91 111
BRANCH  94 122
ATOM    122  C   UNL A   1      43.172  26.895  28.042  1.00  0.00     0.064 A 
ATOM    123  C   UNL A   1      43.834  27.532  26.983  1.00  0.00     0.173 A 
ATOM    124  C   UNL A   1      43.099  25.494  28.017  1.00  0.00     0.173 A 
ATOM    125  F   UNL A   1      43.914  28.870  26.952  1.00  0.00    -0.203 F 
ATOM    126  C   UNL A   1      44.405  26.796  25.947  1.00  0.00     0.198 A 
ATOM    127  C   UNL A   1      43.696  24.759  26.997  1.00  0.00     0.198 A 
ATOM    128  F   UNL A   1      42.480  24.837  29.010  1.00  0.00    -0.203 F 
ATOM    129  F   UNL A   1      45.013  27.431  24.935  1.00  0.00    -0.200 F 
ATOM    130  C   UNL A   1      44.346  25.411  25.960  1.00  0.00     0.200 A 
ATOM    131  F   UNL A   1      43.656  23.420  27.026  1.00  0.00    -0.200 F 
ATOM    132  F   UNL A   1      44.917  24.704  24.976  1.00  0.00    -0.200 F 
ENDBRANCH  94 122
BRANCH 109 133
ATOM    133  C   UNL A   1      45.342  28.226  34.551  1.00  0.00     0.064 A 
ATOM    134  C   UNL A   1      46.464  29.067  34.590  1.00  0.00     0.173 A 
ATOM    135  C   UNL A   1      45.368  27.059  35.330  1.00  0.00     0.173 A 
ATOM    136  F   UNL A   1      46.494  30.186  33.852  1.00  0.00    -0.203 F 
ATOM    137  C   UNL A   1      47.570  28.747  35.374  1.00  0.00     0.198 A 
ATOM    138  C   UNL A   1      46.462  26.759  36.136  1.00  0.00     0.198 A 
ATOM    139  F   UNL A   1      44.317  26.224  35.333  1.00  0.00    -0.203 F 
ATOM    140  F   UNL A   1      48.643  29.550  35.373  1.00  0.00    -0.200 F 
ATOM    141  C   UNL A   1      47.563  27.602  36.156  1.00  0.00     0.200 A 
ATOM    142  F   UNL A   1      46.447  25.661  36.904  1.00  0.00    -0.200 F 
ATOM    143  F   UNL A   1      48.619  27.309  36.928  1.00  0.00    -0.200 F 
ENDBRANCH 109 133
ENDBRANCH  74  77
ENDBRANCH  64  67
ENDBRANCH  60  63
ENDBRANCH  57  60
ENDBRANCH  54  57
ENDBRANCH  51  54
ENDBRANCH   1  51
TORSDOF 19
ENDMDL
MODEL 10
REMARK VINA RESULT:     -11.6      2.973      8.625
REMARK SMILES Cc1cc(=O)c(Oc2ccc(C(=O)NCCCCCCNC(=O)c3ccc(-c4c5nc(c(-c6c(F)c(F)c(F)c(F)c6F)c6ccc([nH]6)c(-c6c(F)c(F)c(F)c(F)c6F)c6nc(c(-c7c(F)c(F)c(F)c(F)c7F)c7ccc4[nH]7)C=C6)C=C5)cc3)cc2)c(-c2ccc(S(C)(=O)=O)cc2)o1
REMARK SMILES IDX 16 1 15 4 14 7 12 8 13 9 11 11 8 12 9 13 88 14 10 15 87 17
REMARK SMILES IDX 7 21 6 22 2 23 3 24 100 25 4 26 89 28 5 29 1 30 90 34 91 35
REMARK SMILES IDX 99 36 92 37 98 39 93 41 94 44 96 45 97 46 95 47 17 51 18 54
REMARK SMILES IDX 19 57 20 60 21 63 22 64 23 66 24 67 25 68 86 69 26 70 85 72
REMARK SMILES IDX 27 74 28 77 29 78 79 79 30 80 84 81 78 82 80 83 31 84 83 85
REMARK SMILES IDX 77 87 76 89 32 91 64 94 44 95 63 96 45 97 48 98 62 99 81 100
REMARK SMILES IDX 46 101 47 103 61 105 82 106 49 109 33 111 34 112 42 113
REMARK SMILES IDX 35 114 36 115 40 116 43 117 37 118 38 119 41 120 39 121
REMARK SMILES IDX 65 122 66 123 74 124 67 125 68 126 72 127 75 128 69 129
REMARK SMILES IDX 70 130 73 131 71 132 50 133 51 134 59 135 52 136 53 137
REMARK SMILES IDX 57 138 60 139 54 140 55 141 58 142 56 143
REMARK H PARENT 16 2 16 3 15 5 15 6 14 10 9 16 88 18 10 19 87 20 3 27 1 31
REMARK H PARENT 1 32 1 33 91 38 99 40 92 42 98 43 95 48 95 49 95 50 17 52
REMARK H PARENT 17 53 18 55 18 56 19 58 19 59 20 61 20 62 21 65 25 71 86 73
REMARK H PARENT 26 75 85 76 84 86 78 88 80 90 83 92 77 93 45 102 48 104 81 107
REMARK H PARENT 46 108 82 110
REMARK Flexibility Score: inf
ROOT
ATOM      1  C   UNL A   1      33.652  29.247  26.079  1.00  0.00    -0.036 C 
ATOM      2  H   UNL A   1      34.691  29.501  26.038  1.00  0.00     0.028 H 
ATOM      3  H   UNL A   1      33.437  28.237  26.362  1.00  0.00     0.028 H 
ENDROOT
BRANCH   1   4
ATOM      4  C   UNL A   1      33.094  29.382  24.666  1.00  0.00     0.018 C 
ATOM      5  H   UNL A   1      32.992  30.426  24.453  1.00  0.00     0.049 H 
ATOM      6  H   UNL A   1      33.787  28.872  24.031  1.00  0.00     0.049 H 
BRANCH   4   7
ATOM      7  N   UNL A   1      31.810  28.754  24.431  1.00  0.00    -0.352 N 
ATOM      8  C   UNL A   1      31.482  27.434  24.212  1.00  0.00     0.251 C 
ATOM      9  O   UNL A   1      30.295  27.116  24.163  1.00  0.00    -0.269 OA
ATOM     10  H   UNL A   1      31.046  29.373  24.427  1.00  0.00     0.163 HD
BRANCH   8  11
ATOM     11  C   UNL A   1      32.517  26.405  23.919  1.00  0.00     0.040 A 
ATOM     12  C   UNL A   1      33.982  24.073  23.507  1.00  0.00     0.127 A 
ATOM     13  C   UNL A   1      33.837  24.564  24.799  1.00  0.00    -0.019 A 
ATOM     14  C   UNL A   1      33.609  24.860  22.419  1.00  0.00    -0.019 A 
ATOM     15  C   UNL A   1      33.067  25.711  25.008  1.00  0.00    -0.046 A 
ATOM     16  H   UNL A   1      34.292  24.088  25.593  1.00  0.00     0.066 H 
ATOM     17  C   UNL A   1      32.907  26.048  22.627  1.00  0.00    -0.046 A 
ATOM     18  H   UNL A   1      33.850  24.564  21.460  1.00  0.00     0.066 H 
ATOM     19  H   UNL A   1      32.903  26.051  25.968  1.00  0.00     0.063 H 
ATOM     20  H   UNL A   1      32.677  26.660  21.829  1.00  0.00     0.063 H 
BRANCH  12  21
ATOM     21  O   UNL A   1      34.559  22.871  23.230  1.00  0.00    -0.449 OA
BRANCH  21  22
ATOM     22  C   UNL A   1      34.237  21.685  23.880  1.00  0.00     0.217 A 
ATOM     23  C   UNL A   1      33.164  19.272  24.920  1.00  0.00     0.105 A 
ATOM     24  C   UNL A   1      32.311  20.049  24.248  1.00  0.00     0.028 A 
ATOM     25  O   UNL A   1      34.468  19.646  25.167  1.00  0.00    -0.457 OA
ATOM     26  C   UNL A   1      32.788  21.333  23.719  1.00  0.00     0.228 A 
ATOM     27  H   UNL A   1      31.334  19.751  24.103  1.00  0.00     0.070 H 
ATOM     28  C   UNL A   1      34.974  20.834  24.644  1.00  0.00     0.180 A 
ATOM     29  O   UNL A   1      31.990  22.082  23.162  1.00  0.00    -0.285 OA
BRANCH  23  30
ATOM     30  C   UNL A   1      32.788  17.933  25.468  1.00  0.00    -0.006 C 
ATOM     31  H   UNL A   1      33.670  17.342  25.601  1.00  0.00     0.031 H 
ATOM     32  H   UNL A   1      32.129  17.441  24.785  1.00  0.00     0.031 H 
ATOM     33  H   UNL A   1      32.296  18.059  26.410  1.00  0.00     0.031 H 
ENDBRANCH  23  30
BRANCH  28  34
ATOM     34  C   UNL A   1      36.392  20.968  25.029  1.00  0.00     0.021 A 
ATOM     35  C   UNL A   1      36.867  22.203  25.506  1.00  0.00    -0.050 A 
ATOM     36  C   UNL A   1      37.286  19.893  24.915  1.00  0.00    -0.050 A 
ATOM     37  C   UNL A   1      38.186  22.338  25.948  1.00  0.00    -0.043 A 
ATOM     38  H   UNL A   1      36.234  23.018  25.531  1.00  0.00     0.063 H 
ATOM     39  C   UNL A   1      38.611  20.026  25.344  1.00  0.00    -0.043 A 
ATOM     40  H   UNL A   1      36.964  19.000  24.512  1.00  0.00     0.063 H 
ATOM     41  C   UNL A   1      39.050  21.243  25.872  1.00  0.00     0.067 A 
ATOM     42  H   UNL A   1      38.519  23.239  26.325  1.00  0.00     0.064 H 
ATOM     43  H   UNL A   1      39.262  19.228  25.271  1.00  0.00     0.064 H 
BRANCH  41  44
ATOM     44  S   UNL A   1      40.687  21.384  26.559  1.00  0.00     0.175 S 
ATOM     45  O   UNL A   1      41.356  22.459  25.856  1.00  0.00    -0.224 OA
ATOM     46  O   UNL A   1      40.565  21.387  28.006  1.00  0.00    -0.224 OA
BRANCH  44  47
ATOM     47  C   UNL A   1      41.472  19.866  26.098  1.00  0.00     0.043 C 
ATOM     48  H   UNL A   1      40.893  19.381  25.340  1.00  0.00     0.040 H 
ATOM     49  H   UNL A   1      41.543  19.228  26.954  1.00  0.00     0.040 H 
ATOM     50  H   UNL A   1      42.452  20.072  25.723  1.00  0.00     0.040 H 
ENDBRANCH  44  47
ENDBRANCH  41  44
ENDBRANCH  28  34
ENDBRANCH  21  22
ENDBRANCH  12  21
ENDBRANCH   8  11
ENDBRANCH   4   7
ENDBRANCH   1   4
BRANCH   1  51
ATOM     51  C   UNL A   1      33.016  30.099  27.177  1.00  0.00    -0.052 C 
ATOM     52  H   UNL A   1      33.679  30.915  27.377  1.00  0.00     0.027 H 
ATOM     53  H   UNL A   1      32.864  29.430  27.997  1.00  0.00     0.027 H 
BRANCH  51  54
ATOM     54  C   UNL A   1      31.635  30.689  26.884  1.00  0.00    -0.052 C 
ATOM     55  H   UNL A   1      30.972  30.365  27.660  1.00  0.00     0.027 H 
ATOM     56  H   UNL A   1      31.379  30.339  25.906  1.00  0.00     0.027 H 
BRANCH  54  57
ATOM     57  C   UNL A   1      31.546  32.211  26.806  1.00  0.00    -0.036 C 
ATOM     58  H   UNL A   1      30.688  32.519  27.365  1.00  0.00     0.028 H 
ATOM     59  H   UNL A   1      31.495  32.444  25.763  1.00  0.00     0.028 H 
BRANCH  57  60
ATOM     60  C   UNL A   1      32.750  32.976  27.339  1.00  0.00     0.018 C 
ATOM     61  H   UNL A   1      33.493  33.017  26.570  1.00  0.00     0.049 H 
ATOM     62  H   UNL A   1      33.093  32.454  28.209  1.00  0.00     0.049 H 
BRANCH  60  63
ATOM     63  N   UNL A   1      32.439  34.335  27.752  1.00  0.00    -0.352 N 
ATOM     64  C   UNL A   1      33.024  35.117  28.721  1.00  0.00     0.251 C 
ATOM     65  H   UNL A   1      31.697  34.761  27.264  1.00  0.00     0.163 HD
ATOM     66  O   UNL A   1      32.546  36.210  29.006  1.00  0.00    -0.269 OA
BRANCH  64  67
ATOM     67  C   UNL A   1      34.214  34.625  29.454  1.00  0.00     0.039 A 
ATOM     68  C   UNL A   1      35.493  34.754  28.915  1.00  0.00    -0.049 A 
ATOM     69  C   UNL A   1      34.041  34.004  30.696  1.00  0.00    -0.049 A 
ATOM     70  C   UNL A   1      36.564  34.098  29.513  1.00  0.00    -0.053 A 
ATOM     71  H   UNL A   1      35.646  35.335  28.075  1.00  0.00     0.063 H 
ATOM     72  C   UNL A   1      35.139  33.435  31.350  1.00  0.00    -0.053 A 
ATOM     73  H   UNL A   1      33.105  33.966  31.129  1.00  0.00     0.063 H 
ATOM     74  C   UNL A   1      36.401  33.428  30.738  1.00  0.00    -0.014 A 
ATOM     75  H   UNL A   1      37.488  34.103  29.052  1.00  0.00     0.063 H 
ATOM     76  H   UNL A   1      35.020  33.018  32.287  1.00  0.00     0.063 H 
BRANCH  74  77
ATOM     77  C   UNL A   1      37.569  32.739  31.351  1.00  0.00     0.031 A 
ATOM     78  C   UNL A   1      38.055  33.109  32.728  1.00  0.00     0.074 A 
ATOM     79  C   UNL A   1      38.157  31.727  30.684  1.00  0.00     0.049 A 
ATOM     80  N   UNL A   1      39.022  32.574  33.432  1.00  0.00    -0.248 NA
ATOM     81  C   UNL A   1      37.374  34.225  33.402  1.00  0.00    -0.034 C 
ATOM     82  C   UNL A   1      37.776  31.274  29.345  1.00  0.00    -0.036 A 
ATOM     83  N   UNL A   1      39.173  30.878  31.044  1.00  0.00    -0.354 N 
ATOM     84  C   UNL A   1      39.072  33.292  34.620  1.00  0.00     0.074 A 
ATOM     85  C   UNL A   1      38.067  34.328  34.528  1.00  0.00    -0.034 C 
ATOM     86  H   UNL A   1      36.566  34.781  33.082  1.00  0.00     0.065 H 
ATOM     87  C   UNL A   1      38.499  30.193  29.024  1.00  0.00    -0.036 A 
ATOM     88  H   UNL A   1      37.063  31.717  28.744  1.00  0.00     0.065 H 
ATOM     89  C   UNL A   1      39.444  29.918  30.101  1.00  0.00     0.049 A 
ATOM     90  H   UNL A   1      39.660  30.951  31.897  1.00  0.00     0.167 HD
ATOM     91  C   UNL A   1      39.871  33.093  35.696  1.00  0.00     0.037 A 
ATOM     92  H   UNL A   1      37.909  35.054  35.245  1.00  0.00     0.065 H 
ATOM     93  H   UNL A   1      38.404  29.644  28.155  1.00  0.00     0.065 H 
ATOM     94  C   UNL A   1      40.359  28.928  30.094  1.00  0.00     0.037 A 
ATOM     95  C   UNL A   1      40.860  32.050  35.791  1.00  0.00     0.049 A 
ATOM     96  C   UNL A   1      41.269  28.763  31.277  1.00  0.00     0.074 A 
ATOM     97  C   UNL A   1      41.698  31.751  36.851  1.00  0.00    -0.036 A 
ATOM     98  N   UNL A   1      41.148  31.138  34.786  1.00  0.00    -0.354 N 
ATOM     99  N   UNL A   1      41.285  29.430  32.404  1.00  0.00    -0.248 NA
ATOM    100  C   UNL A   1      42.291  27.713  31.186  1.00  0.00    -0.034 C 
ATOM    101  C   UNL A   1      42.531  30.698  36.468  1.00  0.00    -0.036 A 
ATOM    102  H   UNL A   1      41.705  32.225  37.768  1.00  0.00     0.065 H 
ATOM    103  C   UNL A   1      42.173  30.296  35.191  1.00  0.00     0.049 A 
ATOM    104  H   UNL A   1      40.693  31.094  33.914  1.00  0.00     0.167 HD
ATOM    105  C   UNL A   1      42.305  28.874  33.163  1.00  0.00     0.074 A 
ATOM    106  C   UNL A   1      42.873  27.799  32.375  1.00  0.00    -0.034 C 
ATOM    107  H   UNL A   1      42.502  27.073  30.403  1.00  0.00     0.065 H 
ATOM    108  H   UNL A   1      43.288  30.289  37.039  1.00  0.00     0.065 H 
ATOM    109  C   UNL A   1      42.730  29.227  34.400  1.00  0.00     0.037 A 
ATOM    110  H   UNL A   1      43.634  27.181  32.697  1.00  0.00     0.065 H 
BRANCH  91 111
ATOM    111  C   UNL A   1      39.720  34.024  36.867  1.00  0.00     0.064 A 
ATOM    112  C   UNL A   1      38.907  33.702  37.965  1.00  0.00     0.173 A 
ATOM    113  C   UNL A   1      40.449  35.222  36.923  1.00  0.00     0.173 A 
ATOM    114  F   UNL A   1      38.183  32.573  37.960  1.00  0.00    -0.203 F 
ATOM    115  C   UNL A   1      38.813  34.554  39.063  1.00  0.00     0.198 A 
ATOM    116  C   UNL A   1      40.378  36.056  38.037  1.00  0.00     0.198 A 
ATOM    117  F   UNL A   1      41.250  35.575  35.907  1.00  0.00    -0.203 F 
ATOM    118  F   UNL A   1      37.998  34.244  40.081  1.00  0.00    -0.200 F 
ATOM    119  C   UNL A   1      39.555  35.725  39.102  1.00  0.00     0.200 A 
ATOM    120  F   UNL A   1      41.110  37.178  38.080  1.00  0.00    -0.200 F 
ATOM    121  F   UNL A   1      39.475  36.536  40.167  1.00  0.00    -0.200 F 
ENDBRANCH  91 111
BRANCH  94 122
ATOM    122  C   UNL A   1      40.433  28.016  28.924  1.00  0.00     0.064 A 
ATOM    123  C   UNL A   1      39.716  26.812  28.904  1.00  0.00     0.173 A 
ATOM    124  C   UNL A   1      41.174  28.353  27.781  1.00  0.00     0.173 A 
ATOM    125  F   UNL A   1      39.008  26.437  29.979  1.00  0.00    -0.203 F 
ATOM    126  C   UNL A   1      39.735  25.982  27.785  1.00  0.00     0.198 A 
ATOM    127  C   UNL A   1      41.168  27.538  26.652  1.00  0.00     0.198 A 
ATOM    128  F   UNL A   1      41.874  29.498  27.748  1.00  0.00    -0.203 F 
ATOM    129  F   UNL A   1      39.059  24.825  27.800  1.00  0.00    -0.200 F 
ATOM    130  C   UNL A   1      40.451  26.352  26.656  1.00  0.00     0.200 A 
ATOM    131  F   UNL A   1      41.843  27.910  25.556  1.00  0.00    -0.200 F 
ATOM    132  F   UNL A   1      40.449  25.565  25.571  1.00  0.00    -0.200 F 
ENDBRANCH  94 122
BRANCH 109 133
ATOM    133  C   UNL A   1      43.859  28.440  35.002  1.00  0.00     0.064 A 
ATOM    134  C   UNL A   1      45.193  28.846  34.856  1.00  0.00     0.173 A 
ATOM    135  C   UNL A   1      43.596  27.322  35.807  1.00  0.00     0.173 A 
ATOM    136  F   UNL A   1      45.498  29.900  34.085  1.00  0.00    -0.203 F 
ATOM    137  C   UNL A   1      46.224  28.154  35.488  1.00  0.00     0.198 A 
ATOM    138  C   UNL A   1      44.625  26.652  36.462  1.00  0.00     0.198 A 
ATOM    139  F   UNL A   1      42.335  26.897  35.984  1.00  0.00    -0.203 F 
ATOM    140  F   UNL A   1      47.495  28.541  35.311  1.00  0.00    -0.200 F 
ATOM    141  C   UNL A   1      45.938  27.067  36.300  1.00  0.00     0.200 A 
ATOM    142  F   UNL A   1      44.345  25.612  37.260  1.00  0.00    -0.200 F 
ATOM    143  F   UNL A   1      46.929  26.418  36.927  1.00  0.00    -0.200 F 
ENDBRANCH 109 133
ENDBRANCH  74  77
ENDBRANCH  64  67
ENDBRANCH  60  63
ENDBRANCH  57  60
ENDBRANCH  54  57
ENDBRANCH  51  54
ENDBRANCH   1  51
TORSDOF 19
ENDMDL
