MODEL 1
REMARK VINA RESULT:     -12.5      0.000      0.000
REMARK SMILES O=C(Cc1cccn1-c1ccc2c(c1)OCCO2)NCCCCCCNC(=O)c1ccc(-c2c3nc(c(-c4c(F)c(F)c(F)c(F)c4F)c4ccc([nH]4)c(-c4c(F)c(F)c(F)c(F)c4F)c4nc(c(-c5c(F)c(F)c(F)c(F)c5F)c5ccc2[nH]5)C=C4)C=C3)cc1
REMARK SMILES IDX 22 1 21 4 20 7 19 10 1 11 2 12 3 14 4 17 5 18 8 19 6 20 7 22
REMARK SMILES IDX 9 25 10 26 14 27 11 28 13 30 12 32 15 34 18 35 16 36 17 37
REMARK SMILES IDX 23 42 24 45 25 48 26 51 27 52 28 54 29 55 30 56 91 57 31 58
REMARK SMILES IDX 90 60 32 62 33 65 34 66 84 67 35 68 89 69 83 70 85 71 36 72
REMARK SMILES IDX 88 73 82 75 81 77 37 79 69 82 49 83 68 84 50 85 53 86 67 87
REMARK SMILES IDX 86 88 51 89 52 91 66 93 87 94 54 97 38 99 39 100 47 101
REMARK SMILES IDX 40 102 41 103 45 104 48 105 42 106 43 107 46 108 44 109
REMARK SMILES IDX 70 110 71 111 79 112 72 113 73 114 77 115 80 116 74 117
REMARK SMILES IDX 75 118 78 119 76 120 55 121 56 122 64 123 57 124 58 125
REMARK SMILES IDX 62 126 65 127 59 128 60 129 63 130 61 131
REMARK H PARENT 22 2 22 3 21 5 21 6 20 8 20 9 19 13 3 15 3 16 5 21 6 23 7 24
REMARK H PARENT 10 29 14 31 11 33 16 38 16 39 17 40 17 41 23 43 23 44 24 46
REMARK H PARENT 24 47 25 49 25 50 26 53 30 59 91 61 31 63 90 64 89 74 83 76
REMARK H PARENT 85 78 88 80 82 81 50 90 53 92 86 95 51 96 87 98
REMARK Flexibility Score: inf
ROOT
ATOM      1  C   UNL A   1      32.318  29.053  24.533  1.00  0.00    -0.052 C 
ATOM      2  H   UNL A   1      32.096  28.007  24.584  1.00  0.00     0.027 H 
ATOM      3  H   UNL A   1      31.505  29.647  24.171  1.00  0.00     0.027 H 
ENDROOT
BRANCH   1   4
ATOM      4  C   UNL A   1      33.463  29.246  23.531  1.00  0.00    -0.036 C 
ATOM      5  H   UNL A   1      33.293  30.162  23.004  1.00  0.00     0.028 H 
ATOM      6  H   UNL A   1      34.367  29.250  24.104  1.00  0.00     0.028 H 
BRANCH   4   7
ATOM      7  C   UNL A   1      33.610  28.126  22.504  1.00  0.00     0.017 C 
ATOM      8  H   UNL A   1      33.339  28.500  21.539  1.00  0.00     0.049 H 
ATOM      9  H   UNL A   1      34.626  27.793  22.511  1.00  0.00     0.049 H 
BRANCH   7  10
ATOM     10  N   UNL A   1      32.762  27.001  22.826  1.00  0.00    -0.356 N 
ATOM     11  O   UNL A   1      33.329  25.718  21.006  1.00  0.00    -0.275 OA
ATOM     12  C   UNL A   1      32.705  25.861  22.053  1.00  0.00     0.225 C 
ATOM     13  H   UNL A   1      32.199  27.051  23.633  1.00  0.00     0.163 HD
BRANCH  12  14
ATOM     14  C   UNL A   1      31.763  24.802  22.600  1.00  0.00     0.067 C 
ATOM     15  H   UNL A   1      32.267  23.857  22.590  1.00  0.00     0.043 H 
ATOM     16  H   UNL A   1      30.892  24.793  21.980  1.00  0.00     0.043 H 
BRANCH  14  17
ATOM     17  C   UNL A   1      31.315  25.093  24.011  1.00  0.00     0.032 A 
ATOM     18  C   UNL A   1      30.145  25.689  24.466  1.00  0.00    -0.040 A 
ATOM     19  N   UNL A   1      31.997  24.629  25.134  1.00  0.00    -0.320 N 
ATOM     20  C   UNL A   1      30.057  25.488  25.858  1.00  0.00    -0.044 A 
ATOM     21  H   UNL A   1      29.457  26.192  23.883  1.00  0.00     0.064 H 
ATOM     22  C   UNL A   1      31.177  24.789  26.233  1.00  0.00     0.009 A 
ATOM     23  H   UNL A   1      29.295  25.806  26.477  1.00  0.00     0.064 H 
ATOM     24  H   UNL A   1      31.375  24.439  27.184  1.00  0.00     0.082 H 
BRANCH  19  25
ATOM     25  C   UNL A   1      33.301  24.078  25.197  1.00  0.00     0.049 A 
ATOM     26  C   UNL A   1      34.397  24.918  25.432  1.00  0.00    -0.034 A 
ATOM     27  C   UNL A   1      33.493  22.712  24.960  1.00  0.00     0.008 A 
ATOM     28  C   UNL A   1      35.684  24.379  25.471  1.00  0.00    -0.014 A 
ATOM     29  H   UNL A   1      34.254  25.930  25.576  1.00  0.00     0.065 H 
ATOM     30  C   UNL A   1      34.784  22.186  24.983  1.00  0.00     0.163 A 
ATOM     31  H   UNL A   1      32.686  22.099  24.768  1.00  0.00     0.069 H 
ATOM     32  C   UNL A   1      35.878  23.020  25.229  1.00  0.00     0.161 A 
ATOM     33  H   UNL A   1      36.492  24.987  25.677  1.00  0.00     0.066 H 
ATOM     34  O   UNL A   1      34.901  20.843  24.728  1.00  0.00    -0.486 OA
ATOM     35  O   UNL A   1      37.174  22.571  25.241  1.00  0.00    -0.486 OA
ATOM     36  C   UNL A   1      36.200  20.352  25.071  1.00  0.00     0.122 C 
ATOM     37  C   UNL A   1      37.285  21.302  24.587  1.00  0.00     0.122 C 
ATOM     38  H   UNL A   1      36.345  19.395  24.615  1.00  0.00     0.074 H 
ATOM     39  H   UNL A   1      36.266  20.273  26.136  1.00  0.00     0.074 H 
ATOM     40  H   UNL A   1      37.185  21.440  23.531  1.00  0.00     0.074 H 
ATOM     41  H   UNL A   1      38.240  20.878  24.818  1.00  0.00     0.074 H 
ENDBRANCH  19  25
ENDBRANCH  14  17
ENDBRANCH  12  14
ENDBRANCH   7  10
ENDBRANCH   4   7
ENDBRANCH   1   4
BRANCH   1  42
ATOM     42  C   UNL A   1      32.600  29.546  25.957  1.00  0.00    -0.052 C 
ATOM     43  H   UNL A   1      31.663  29.787  26.415  1.00  0.00     0.027 H 
ATOM     44  H   UNL A   1      33.254  30.387  25.856  1.00  0.00     0.027 H 
BRANCH  42  45
ATOM     45  C   UNL A   1      33.329  28.547  26.863  1.00  0.00    -0.036 C 
ATOM     46  H   UNL A   1      33.081  27.556  26.541  1.00  0.00     0.028 H 
ATOM     47  H   UNL A   1      33.009  28.745  27.865  1.00  0.00     0.028 H 
BRANCH  45  48
ATOM     48  C   UNL A   1      34.851  28.689  26.850  1.00  0.00     0.018 C 
ATOM     49  H   UNL A   1      35.223  28.378  25.896  1.00  0.00     0.049 H 
ATOM     50  H   UNL A   1      35.258  28.079  27.628  1.00  0.00     0.049 H 
BRANCH  48  51
ATOM     51  N   UNL A   1      35.248  30.067  27.087  1.00  0.00    -0.352 N 
ATOM     52  C   UNL A   1      36.304  30.568  27.803  1.00  0.00     0.251 C 
ATOM     53  H   UNL A   1      34.669  30.744  26.669  1.00  0.00     0.163 HD
ATOM     54  O   UNL A   1      36.256  31.722  28.211  1.00  0.00    -0.269 OA
BRANCH  52  55
ATOM     55  C   UNL A   1      37.497  29.748  28.099  1.00  0.00     0.039 A 
ATOM     56  C   UNL A   1      38.516  29.708  27.136  1.00  0.00    -0.049 A 
ATOM     57  C   UNL A   1      37.576  28.942  29.239  1.00  0.00    -0.049 A 
ATOM     58  C   UNL A   1      39.634  28.907  27.342  1.00  0.00    -0.053 A 
ATOM     59  H   UNL A   1      38.437  30.273  26.276  1.00  0.00     0.063 H 
ATOM     60  C   UNL A   1      38.704  28.157  29.463  1.00  0.00    -0.053 A 
ATOM     61  H   UNL A   1      36.797  28.928  29.916  1.00  0.00     0.063 H 
ATOM     62  C   UNL A   1      39.738  28.155  28.519  1.00  0.00    -0.014 A 
ATOM     63  H   UNL A   1      40.382  28.869  26.632  1.00  0.00     0.063 H 
ATOM     64  H   UNL A   1      38.777  27.583  30.315  1.00  0.00     0.063 H 
BRANCH  62  65
ATOM     65  C   UNL A   1      41.039  27.524  28.836  1.00  0.00     0.031 A 
ATOM     66  C   UNL A   1      41.095  26.071  28.294  1.00  0.00     0.074 A 
ATOM     67  C   UNL A   1      41.931  28.288  29.543  1.00  0.00     0.049 A 
ATOM     68  N   UNL A   1      41.797  25.049  28.680  1.00  0.00    -0.248 NA
ATOM     69  C   UNL A   1      40.185  25.685  27.175  1.00  0.00    -0.034 C 
ATOM     70  C   UNL A   1      41.718  29.704  29.920  1.00  0.00    -0.036 A 
ATOM     71  N   UNL A   1      43.177  28.054  30.092  1.00  0.00    -0.354 N 
ATOM     72  C   UNL A   1      41.574  23.994  27.759  1.00  0.00     0.074 A 
ATOM     73  C   UNL A   1      40.490  24.409  26.926  1.00  0.00    -0.034 C 
ATOM     74  H   UNL A   1      39.480  26.271  26.701  1.00  0.00     0.065 H 
ATOM     75  C   UNL A   1      42.732  30.165  30.686  1.00  0.00    -0.036 A 
ATOM     76  H   UNL A   1      40.901  30.267  29.636  1.00  0.00     0.065 H 
ATOM     77  C   UNL A   1      43.709  29.113  30.886  1.00  0.00     0.049 A 
ATOM     78  H   UNL A   1      43.667  27.213  29.944  1.00  0.00     0.167 HD
ATOM     79  C   UNL A   1      42.393  22.902  27.657  1.00  0.00     0.037 A 
ATOM     80  H   UNL A   1      40.013  23.811  26.234  1.00  0.00     0.065 H 
ATOM     81  H   UNL A   1      42.801  31.121  31.070  1.00  0.00     0.065 H 
ATOM     82  C   UNL A   1      44.824  29.117  31.687  1.00  0.00     0.037 A 
ATOM     83  C   UNL A   1      43.401  22.971  28.657  1.00  0.00     0.049 A 
ATOM     84  C   UNL A   1      45.469  27.829  31.416  1.00  0.00     0.074 A 
ATOM     85  C   UNL A   1      43.366  22.774  30.011  1.00  0.00    -0.036 A 
ATOM     86  N   UNL A   1      44.557  23.628  28.322  1.00  0.00    -0.354 N 
ATOM     87  N   UNL A   1      46.127  27.553  30.331  1.00  0.00    -0.248 NA
ATOM     88  C   UNL A   1      45.290  26.737  32.379  1.00  0.00    -0.034 C 
ATOM     89  C   UNL A   1      44.253  23.755  30.496  1.00  0.00    -0.036 A 
ATOM     90  H   UNL A   1      42.822  22.078  30.545  1.00  0.00     0.065 H 
ATOM     91  C   UNL A   1      44.955  24.328  29.429  1.00  0.00     0.049 A 
ATOM     92  H   UNL A   1      45.013  23.601  27.450  1.00  0.00     0.167 HD
ATOM     93  C   UNL A   1      46.135  26.181  30.347  1.00  0.00     0.074 A 
ATOM     94  C   UNL A   1      45.927  25.775  31.719  1.00  0.00    -0.034 C 
ATOM     95  H   UNL A   1      44.812  26.720  33.294  1.00  0.00     0.065 H 
ATOM     96  H   UNL A   1      44.368  24.011  31.489  1.00  0.00     0.065 H 
ATOM     97  C   UNL A   1      45.767  25.502  29.231  1.00  0.00     0.037 A 
ATOM     98  H   UNL A   1      46.229  24.875  32.124  1.00  0.00     0.065 H 
BRANCH  79  99
ATOM     99  C   UNL A   1      42.581  21.842  26.600  1.00  0.00     0.064 A 
ATOM    100  C   UNL A   1      42.115  20.529  26.883  1.00  0.00     0.173 A 
ATOM    101  C   UNL A   1      43.506  21.950  25.555  1.00  0.00     0.173 A 
ATOM    102  F   UNL A   1      41.176  20.319  27.819  1.00  0.00    -0.203 F 
ATOM    103  C   UNL A   1      42.670  19.399  26.286  1.00  0.00     0.198 A 
ATOM    104  C   UNL A   1      44.021  20.815  24.919  1.00  0.00     0.198 A 
ATOM    105  F   UNL A   1      44.010  23.138  25.196  1.00  0.00    -0.203 F 
ATOM    106  F   UNL A   1      42.314  18.177  26.707  1.00  0.00    -0.200 F 
ATOM    107  C   UNL A   1      43.642  19.542  25.318  1.00  0.00     0.200 A 
ATOM    108  F   UNL A   1      44.954  20.955  23.967  1.00  0.00    -0.200 F 
ATOM    109  F   UNL A   1      44.239  18.461  24.798  1.00  0.00    -0.200 F 
ENDBRANCH  79  99
BRANCH  82 110
ATOM    110  C   UNL A   1      45.483  29.969  32.757  1.00  0.00     0.064 A 
ATOM    111  C   UNL A   1      45.099  30.062  34.099  1.00  0.00     0.173 A 
ATOM    112  C   UNL A   1      46.666  30.709  32.446  1.00  0.00     0.173 A 
ATOM    113  F   UNL A   1      43.943  29.542  34.522  1.00  0.00    -0.203 F 
ATOM    114  C   UNL A   1      45.897  30.720  35.061  1.00  0.00     0.198 A 
ATOM    115  C   UNL A   1      47.484  31.309  33.402  1.00  0.00     0.198 A 
ATOM    116  F   UNL A   1      47.083  30.878  31.185  1.00  0.00    -0.203 F 
ATOM    117  F   UNL A   1      45.490  30.774  36.337  1.00  0.00    -0.200 F 
ATOM    118  C   UNL A   1      47.109  31.298  34.721  1.00  0.00     0.200 A 
ATOM    119  F   UNL A   1      48.642  31.873  33.027  1.00  0.00    -0.200 F 
ATOM    120  F   UNL A   1      47.900  31.852  35.649  1.00  0.00    -0.200 F 
ENDBRANCH  82 110
BRANCH  97 121
ATOM    121  C   UNL A   1      45.921  26.298  27.946  1.00  0.00     0.064 A 
ATOM    122  C   UNL A   1      47.200  26.690  27.520  1.00  0.00     0.173 A 
ATOM    123  C   UNL A   1      44.845  26.799  27.192  1.00  0.00     0.173 A 
ATOM    124  F   UNL A   1      48.285  26.241  28.168  1.00  0.00    -0.203 F 
ATOM    125  C   UNL A   1      47.384  27.546  26.429  1.00  0.00     0.198 A 
ATOM    126  C   UNL A   1      45.024  27.650  26.098  1.00  0.00     0.198 A 
ATOM    127  F   UNL A   1      43.593  26.471  27.493  1.00  0.00    -0.203 F 
ATOM    128  F   UNL A   1      48.623  27.899  26.062  1.00  0.00    -0.200 F 
ATOM    129  C   UNL A   1      46.297  28.029  25.721  1.00  0.00     0.200 A 
ATOM    130  F   UNL A   1      43.960  28.094  25.411  1.00  0.00    -0.200 F 
ATOM    131  F   UNL A   1      46.474  28.843  24.669  1.00  0.00    -0.200 F 
ENDBRANCH  97 121
ENDBRANCH  62  65
ENDBRANCH  52  55
ENDBRANCH  48  51
ENDBRANCH  45  48
ENDBRANCH  42  45
ENDBRANCH   1  42
TORSDOF 15
ENDMDL
MODEL 2
REMARK VINA RESULT:     -12.4      0.528      1.390
REMARK SMILES O=C(Cc1cccn1-c1ccc2c(c1)OCCO2)NCCCCCCNC(=O)c1ccc(-c2c3nc(c(-c4c(F)c(F)c(F)c(F)c4F)c4ccc([nH]4)c(-c4c(F)c(F)c(F)c(F)c4F)c4nc(c(-c5c(F)c(F)c(F)c(F)c5F)c5ccc2[nH]5)C=C4)C=C3)cc1
REMARK SMILES IDX 22 1 21 4 20 7 19 10 1 11 2 12 3 14 4 17 5 18 8 19 6 20 7 22
REMARK SMILES IDX 9 25 10 26 14 27 11 28 13 30 12 32 15 34 18 35 16 36 17 37
REMARK SMILES IDX 23 42 24 45 25 48 26 51 27 52 28 54 29 55 30 56 91 57 31 58
REMARK SMILES IDX 90 60 32 62 33 65 34 66 84 67 35 68 89 69 83 70 85 71 36 72
REMARK SMILES IDX 88 73 82 75 81 77 37 79 69 82 49 83 68 84 50 85 53 86 67 87
REMARK SMILES IDX 86 88 51 89 52 91 66 93 87 94 54 97 38 99 39 100 47 101
REMARK SMILES IDX 40 102 41 103 45 104 48 105 42 106 43 107 46 108 44 109
REMARK SMILES IDX 70 110 71 111 79 112 72 113 73 114 77 115 80 116 74 117
REMARK SMILES IDX 75 118 78 119 76 120 55 121 56 122 64 123 57 124 58 125
REMARK SMILES IDX 62 126 65 127 59 128 60 129 63 130 61 131
REMARK H PARENT 22 2 22 3 21 5 21 6 20 8 20 9 19 13 3 15 3 16 5 21 6 23 7 24
REMARK H PARENT 10 29 14 31 11 33 16 38 16 39 17 40 17 41 23 43 23 44 24 46
REMARK H PARENT 24 47 25 49 25 50 26 53 30 59 91 61 31 63 90 64 89 74 83 76
REMARK H PARENT 85 78 88 80 82 81 50 90 53 92 86 95 51 96 87 98
REMARK Flexibility Score: inf
ROOT
ATOM      1  C   UNL A   1      32.750  29.154  24.635  1.00  0.00    -0.052 C 
ATOM      2  H   UNL A   1      31.834  29.045  24.093  1.00  0.00     0.027 H 
ATOM      3  H   UNL A   1      32.867  30.115  25.091  1.00  0.00     0.027 H 
ENDROOT
BRANCH   1   4
ATOM      4  C   UNL A   1      33.909  29.014  23.639  1.00  0.00    -0.036 C 
ATOM      5  H   UNL A   1      34.257  29.996  23.393  1.00  0.00     0.028 H 
ATOM      6  H   UNL A   1      34.649  28.411  24.121  1.00  0.00     0.028 H 
BRANCH   4   7
ATOM      7  C   UNL A   1      33.552  28.298  22.339  1.00  0.00     0.017 C 
ATOM      8  H   UNL A   1      33.225  29.021  21.621  1.00  0.00     0.049 H 
ATOM      9  H   UNL A   1      34.421  27.782  21.988  1.00  0.00     0.049 H 
BRANCH   7  10
ATOM     10  N   UNL A   1      32.499  27.329  22.542  1.00  0.00    -0.356 N 
ATOM     11  O   UNL A   1      33.536  25.586  21.462  1.00  0.00    -0.275 OA
ATOM     12  C   UNL A   1      32.586  26.026  22.102  1.00  0.00     0.225 C 
ATOM     13  H   UNL A   1      31.684  27.612  23.017  1.00  0.00     0.163 HD
BRANCH  12  14
ATOM     14  C   UNL A   1      31.371  25.183  22.451  1.00  0.00     0.067 C 
ATOM     15  H   UNL A   1      31.594  24.157  22.244  1.00  0.00     0.043 H 
ATOM     16  H   UNL A   1      30.552  25.538  21.862  1.00  0.00     0.043 H 
BRANCH  14  17
ATOM     17  C   UNL A   1      30.974  25.306  23.902  1.00  0.00     0.032 A 
ATOM     18  C   UNL A   1      29.928  26.014  24.480  1.00  0.00    -0.040 A 
ATOM     19  N   UNL A   1      31.556  24.544  24.913  1.00  0.00    -0.320 N 
ATOM     20  C   UNL A   1      29.797  25.599  25.820  1.00  0.00    -0.044 A 
ATOM     21  H   UNL A   1      29.345  26.724  24.007  1.00  0.00     0.064 H 
ATOM     22  C   UNL A   1      30.772  24.659  26.044  1.00  0.00     0.009 A 
ATOM     23  H   UNL A   1      29.101  25.938  26.502  1.00  0.00     0.064 H 
ATOM     24  H   UNL A   1      30.899  24.123  26.917  1.00  0.00     0.082 H 
BRANCH  19  25
ATOM     25  C   UNL A   1      32.739  23.768  24.850  1.00  0.00     0.049 A 
ATOM     26  C   UNL A   1      32.669  22.431  24.436  1.00  0.00    -0.034 A 
ATOM     27  C   UNL A   1      33.958  24.318  25.262  1.00  0.00     0.008 A 
ATOM     28  C   UNL A   1      33.831  21.658  24.396  1.00  0.00    -0.014 A 
ATOM     29  H   UNL A   1      31.763  22.020  24.162  1.00  0.00     0.065 H 
ATOM     30  C   UNL A   1      35.110  23.534  25.235  1.00  0.00     0.163 A 
ATOM     31  H   UNL A   1      34.004  25.297  25.584  1.00  0.00     0.069 H 
ATOM     32  C   UNL A   1      35.044  22.203  24.812  1.00  0.00     0.161 A 
ATOM     33  H   UNL A   1      33.791  20.684  24.059  1.00  0.00     0.066 H 
ATOM     34  O   UNL A   1      36.267  24.132  25.666  1.00  0.00    -0.486 OA
ATOM     35  O   UNL A   1      36.134  21.372  24.785  1.00  0.00    -0.486 OA
ATOM     36  C   UNL A   1      37.421  23.362  25.318  1.00  0.00     0.122 C 
ATOM     37  C   UNL A   1      37.193  21.885  25.600  1.00  0.00     0.122 C 
ATOM     38  H   UNL A   1      38.256  23.703  25.893  1.00  0.00     0.074 H 
ATOM     39  H   UNL A   1      37.611  23.485  24.273  1.00  0.00     0.074 H 
ATOM     40  H   UNL A   1      36.936  21.760  26.632  1.00  0.00     0.074 H 
ATOM     41  H   UNL A   1      38.092  21.350  25.374  1.00  0.00     0.074 H 
ENDBRANCH  19  25
ENDBRANCH  14  17
ENDBRANCH  12  14
ENDBRANCH   7  10
ENDBRANCH   4   7
ENDBRANCH   1   4
BRANCH   1  42
ATOM     42  C   UNL A   1      32.744  28.139  25.782  1.00  0.00    -0.052 C 
ATOM     43  H   UNL A   1      33.278  27.270  25.458  1.00  0.00     0.027 H 
ATOM     44  H   UNL A   1      31.715  27.948  26.005  1.00  0.00     0.027 H 
BRANCH  42  45
ATOM     45  C   UNL A   1      33.379  28.627  27.091  1.00  0.00    -0.036 C 
ATOM     46  H   UNL A   1      33.124  27.935  27.867  1.00  0.00     0.028 H 
ATOM     47  H   UNL A   1      32.997  29.610  27.273  1.00  0.00     0.028 H 
BRANCH  45  48
ATOM     48  C   UNL A   1      34.902  28.747  27.037  1.00  0.00     0.018 C 
ATOM     49  H   UNL A   1      35.246  28.408  26.082  1.00  0.00     0.049 H 
ATOM     50  H   UNL A   1      35.319  28.150  27.819  1.00  0.00     0.049 H 
BRANCH  48  51
ATOM     51  N   UNL A   1      35.323  30.125  27.230  1.00  0.00    -0.352 N 
ATOM     52  C   UNL A   1      36.405  30.628  27.905  1.00  0.00     0.251 C 
ATOM     53  H   UNL A   1      34.742  30.800  26.812  1.00  0.00     0.163 HD
ATOM     54  O   UNL A   1      36.382  31.792  28.287  1.00  0.00    -0.269 OA
BRANCH  52  55
ATOM     55  C   UNL A   1      37.594  29.798  28.189  1.00  0.00     0.039 A 
ATOM     56  C   UNL A   1      38.591  29.731  27.205  1.00  0.00    -0.049 A 
ATOM     57  C   UNL A   1      37.689  29.011  29.341  1.00  0.00    -0.049 A 
ATOM     58  C   UNL A   1      39.704  28.920  27.401  1.00  0.00    -0.053 A 
ATOM     59  H   UNL A   1      38.500  30.282  26.338  1.00  0.00     0.063 H 
ATOM     60  C   UNL A   1      38.812  28.216  29.553  1.00  0.00    -0.053 A 
ATOM     61  H   UNL A   1      36.924  29.017  30.034  1.00  0.00     0.063 H 
ATOM     62  C   UNL A   1      39.825  28.186  28.588  1.00  0.00    -0.014 A 
ATOM     63  H   UNL A   1      40.436  28.861  26.675  1.00  0.00     0.063 H 
ATOM     64  H   UNL A   1      38.897  27.656  30.414  1.00  0.00     0.063 H 
BRANCH  62  65
ATOM     65  C   UNL A   1      41.125  27.546  28.887  1.00  0.00     0.031 A 
ATOM     66  C   UNL A   1      41.164  26.093  28.342  1.00  0.00     0.074 A 
ATOM     67  C   UNL A   1      42.032  28.301  29.583  1.00  0.00     0.049 A 
ATOM     68  N   UNL A   1      41.863  25.064  28.718  1.00  0.00    -0.248 NA
ATOM     69  C   UNL A   1      40.236  25.715  27.235  1.00  0.00    -0.034 C 
ATOM     70  C   UNL A   1      41.835  29.719  29.964  1.00  0.00    -0.036 A 
ATOM     71  N   UNL A   1      43.284  28.057  30.115  1.00  0.00    -0.354 N 
ATOM     72  C   UNL A   1      41.620  24.013  27.798  1.00  0.00     0.074 A 
ATOM     73  C   UNL A   1      40.529  24.437  26.980  1.00  0.00    -0.034 C 
ATOM     74  H   UNL A   1      39.530  26.307  26.771  1.00  0.00     0.065 H 
ATOM     75  C   UNL A   1      42.862  30.171  30.718  1.00  0.00    -0.036 A 
ATOM     76  H   UNL A   1      41.019  30.288  29.691  1.00  0.00     0.065 H 
ATOM     77  C   UNL A   1      43.833  29.111  30.904  1.00  0.00     0.049 A 
ATOM     78  H   UNL A   1      43.766  27.213  29.960  1.00  0.00     0.167 HD
ATOM     79  C   UNL A   1      42.430  22.915  27.684  1.00  0.00     0.037 A 
ATOM     80  H   UNL A   1      40.038  23.844  26.293  1.00  0.00     0.065 H 
ATOM     81  H   UNL A   1      42.943  31.126  31.102  1.00  0.00     0.065 H 
ATOM     82  C   UNL A   1      44.958  29.106  31.690  1.00  0.00     0.037 A 
ATOM     83  C   UNL A   1      43.450  22.975  28.671  1.00  0.00     0.049 A 
ATOM     84  C   UNL A   1      45.591  27.813  31.410  1.00  0.00     0.074 A 
ATOM     85  C   UNL A   1      43.432  22.776  30.025  1.00  0.00    -0.036 A 
ATOM     86  N   UNL A   1      44.607  23.624  28.322  1.00  0.00    -0.354 N 
ATOM     87  N   UNL A   1      46.232  27.534  30.316  1.00  0.00    -0.248 NA
ATOM     88  C   UNL A   1      45.416  26.721  32.373  1.00  0.00    -0.034 C 
ATOM     89  C   UNL A   1      44.332  23.750  30.500  1.00  0.00    -0.036 A 
ATOM     90  H   UNL A   1      42.890  22.084  30.565  1.00  0.00     0.065 H 
ATOM     91  C   UNL A   1      45.025  24.320  29.425  1.00  0.00     0.049 A 
ATOM     92  H   UNL A   1      45.052  23.595  27.444  1.00  0.00     0.167 HD
ATOM     93  C   UNL A   1      46.230  26.162  30.330  1.00  0.00     0.074 A 
ATOM     94  C   UNL A   1      46.037  25.756  31.704  1.00  0.00    -0.034 C 
ATOM     95  H   UNL A   1      44.950  26.707  33.294  1.00  0.00     0.065 H 
ATOM     96  H   UNL A   1      44.462  24.004  31.492  1.00  0.00     0.065 H 
ATOM     97  C   UNL A   1      45.843  25.488  29.218  1.00  0.00     0.037 A 
ATOM     98  H   UNL A   1      46.338  24.853  32.104  1.00  0.00     0.065 H 
BRANCH  79  99
ATOM     99  C   UNL A   1      42.596  21.855  26.623  1.00  0.00     0.064 A 
ATOM    100  C   UNL A   1      42.124  20.546  26.910  1.00  0.00     0.173 A 
ATOM    101  C   UNL A   1      43.509  21.958  25.567  1.00  0.00     0.173 A 
ATOM    102  F   UNL A   1      41.195  20.342  27.858  1.00  0.00    -0.203 F 
ATOM    103  C   UNL A   1      42.662  19.412  26.305  1.00  0.00     0.198 A 
ATOM    104  C   UNL A   1      44.007  20.819  24.923  1.00  0.00     0.198 A 
ATOM    105  F   UNL A   1      44.017  23.142  25.203  1.00  0.00    -0.203 F 
ATOM    106  F   UNL A   1      42.302  18.192  26.728  1.00  0.00    -0.200 F 
ATOM    107  C   UNL A   1      43.623  19.549  25.325  1.00  0.00     0.200 A 
ATOM    108  F   UNL A   1      44.929  20.953  23.959  1.00  0.00    -0.200 F 
ATOM    109  F   UNL A   1      44.205  18.464  24.796  1.00  0.00    -0.200 F 
ENDBRANCH  79  99
BRANCH  82 110
ATOM    110  C   UNL A   1      45.638  29.952  32.753  1.00  0.00     0.064 A 
ATOM    111  C   UNL A   1      46.916  30.515  32.677  1.00  0.00     0.173 A 
ATOM    112  C   UNL A   1      44.922  30.311  33.938  1.00  0.00     0.173 A 
ATOM    113  F   UNL A   1      47.763  30.170  31.702  1.00  0.00    -0.203 F 
ATOM    114  C   UNL A   1      47.377  31.453  33.626  1.00  0.00     0.198 A 
ATOM    115  C   UNL A   1      45.352  31.279  34.845  1.00  0.00     0.198 A 
ATOM    116  F   UNL A   1      43.759  29.732  34.265  1.00  0.00    -0.203 F 
ATOM    117  F   UNL A   1      48.608  31.971  33.504  1.00  0.00    -0.200 F 
ATOM    118  C   UNL A   1      46.578  31.869  34.678  1.00  0.00     0.200 A 
ATOM    119  F   UNL A   1      44.552  31.640  35.860  1.00  0.00    -0.200 F 
ATOM    120  F   UNL A   1      46.990  32.816  35.532  1.00  0.00    -0.200 F 
ENDBRANCH  82 110
BRANCH  97 121
ATOM    121  C   UNL A   1      45.986  26.284  27.932  1.00  0.00     0.064 A 
ATOM    122  C   UNL A   1      47.261  26.680  27.497  1.00  0.00     0.173 A 
ATOM    123  C   UNL A   1      44.904  26.782  27.185  1.00  0.00     0.173 A 
ATOM    124  F   UNL A   1      48.352  26.233  28.138  1.00  0.00    -0.203 F 
ATOM    125  C   UNL A   1      47.436  27.537  26.406  1.00  0.00     0.198 A 
ATOM    126  C   UNL A   1      45.074  27.634  26.090  1.00  0.00     0.198 A 
ATOM    127  F   UNL A   1      43.655  26.451  27.495  1.00  0.00    -0.203 F 
ATOM    128  F   UNL A   1      48.671  27.893  26.030  1.00  0.00    -0.200 F 
ATOM    129  C   UNL A   1      46.342  28.017  25.705  1.00  0.00     0.200 A 
ATOM    130  F   UNL A   1      44.004  28.075  25.411  1.00  0.00    -0.200 F 
ATOM    131  F   UNL A   1      46.511  28.831  24.652  1.00  0.00    -0.200 F 
ENDBRANCH  97 121
ENDBRANCH  62  65
ENDBRANCH  52  55
ENDBRANCH  48  51
ENDBRANCH  45  48
ENDBRANCH  42  45
ENDBRANCH   1  42
TORSDOF 15
ENDMDL
MODEL 3
REMARK VINA RESULT:     -12.4      4.461      9.382
REMARK SMILES O=C(Cc1cccn1-c1ccc2c(c1)OCCO2)NCCCCCCNC(=O)c1ccc(-c2c3nc(c(-c4c(F)c(F)c(F)c(F)c4F)c4ccc([nH]4)c(-c4c(F)c(F)c(F)c(F)c4F)c4nc(c(-c5c(F)c(F)c(F)c(F)c5F)c5ccc2[nH]5)C=C4)C=C3)cc1
REMARK SMILES IDX 22 1 21 4 20 7 19 10 1 11 2 12 3 14 4 17 5 18 8 19 6 20 7 22
REMARK SMILES IDX 9 25 10 26 14 27 11 28 13 30 12 32 15 34 18 35 16 36 17 37
REMARK SMILES IDX 23 42 24 45 25 48 26 51 27 52 28 54 29 55 30 56 91 57 31 58
REMARK SMILES IDX 90 60 32 62 33 65 34 66 84 67 35 68 89 69 83 70 85 71 36 72
REMARK SMILES IDX 88 73 82 75 81 77 37 79 69 82 49 83 68 84 50 85 53 86 67 87
REMARK SMILES IDX 86 88 51 89 52 91 66 93 87 94 54 97 38 99 39 100 47 101
REMARK SMILES IDX 40 102 41 103 45 104 48 105 42 106 43 107 46 108 44 109
REMARK SMILES IDX 70 110 71 111 79 112 72 113 73 114 77 115 80 116 74 117
REMARK SMILES IDX 75 118 78 119 76 120 55 121 56 122 64 123 57 124 58 125
REMARK SMILES IDX 62 126 65 127 59 128 60 129 63 130 61 131
REMARK H PARENT 22 2 22 3 21 5 21 6 20 8 20 9 19 13 3 15 3 16 5 21 6 23 7 24
REMARK H PARENT 10 29 14 31 11 33 16 38 16 39 17 40 17 41 23 43 23 44 24 46
REMARK H PARENT 24 47 25 49 25 50 26 53 30 59 91 61 31 63 90 64 89 74 83 76
REMARK H PARENT 85 78 88 80 82 81 50 90 53 92 86 95 51 96 87 98
REMARK Flexibility Score: inf
ROOT
ATOM      1  C   UNL A   1      34.828  23.378  26.557  1.00  0.00    -0.052 C 
ATOM      2  H   UNL A   1      35.479  24.093  27.015  1.00  0.00     0.027 H 
ATOM      3  H   UNL A   1      33.896  23.792  26.235  1.00  0.00     0.027 H 
ENDROOT
BRANCH   1   4
ATOM      4  C   UNL A   1      34.479  22.314  27.606  1.00  0.00    -0.036 C 
ATOM      5  H   UNL A   1      34.964  21.401  27.328  1.00  0.00     0.028 H 
ATOM      6  H   UNL A   1      34.810  22.699  28.547  1.00  0.00     0.028 H 
BRANCH   4   7
ATOM      7  C   UNL A   1      32.986  22.032  27.758  1.00  0.00     0.017 C 
ATOM      8  H   UNL A   1      32.854  21.018  28.074  1.00  0.00     0.049 H 
ATOM      9  H   UNL A   1      32.587  22.711  28.481  1.00  0.00     0.049 H 
BRANCH   7  10
ATOM     10  N   UNL A   1      32.282  22.230  26.511  1.00  0.00    -0.356 N 
ATOM     11  O   UNL A   1      30.992  23.995  27.219  1.00  0.00    -0.275 OA
ATOM     12  C   UNL A   1      31.345  23.225  26.331  1.00  0.00     0.225 C 
ATOM     13  H   UNL A   1      32.481  21.629  25.757  1.00  0.00     0.163 HD
BRANCH  12  14
ATOM     14  C   UNL A   1      30.755  23.258  24.932  1.00  0.00     0.067 C 
ATOM     15  H   UNL A   1      30.090  24.094  24.860  1.00  0.00     0.043 H 
ATOM     16  H   UNL A   1      30.244  22.332  24.774  1.00  0.00     0.043 H 
BRANCH  14  17
ATOM     17  C   UNL A   1      31.807  23.386  23.858  1.00  0.00     0.032 A 
ATOM     18  C   UNL A   1      32.335  22.419  23.012  1.00  0.00    -0.040 A 
ATOM     19  N   UNL A   1      32.316  24.613  23.439  1.00  0.00    -0.320 N 
ATOM     20  C   UNL A   1      33.075  23.067  22.004  1.00  0.00    -0.044 A 
ATOM     21  H   UNL A   1      32.205  21.398  23.106  1.00  0.00     0.064 H 
ATOM     22  C   UNL A   1      33.003  24.414  22.258  1.00  0.00     0.009 A 
ATOM     23  H   UNL A   1      33.577  22.614  21.224  1.00  0.00     0.064 H 
ATOM     24  H   UNL A   1      33.397  25.158  21.662  1.00  0.00     0.082 H 
BRANCH  19  25
ATOM     25  C   UNL A   1      32.182  25.875  24.069  1.00  0.00     0.049 A 
ATOM     26  C   UNL A   1      31.140  26.731  23.690  1.00  0.00    -0.034 A 
ATOM     27  C   UNL A   1      33.126  26.285  25.017  1.00  0.00     0.008 A 
ATOM     28  C   UNL A   1      31.022  27.985  24.294  1.00  0.00    -0.014 A 
ATOM     29  H   UNL A   1      30.464  26.438  22.968  1.00  0.00     0.065 H 
ATOM     30  C   UNL A   1      33.010  27.544  25.603  1.00  0.00     0.163 A 
ATOM     31  H   UNL A   1      33.903  25.659  25.281  1.00  0.00     0.069 H 
ATOM     32  C   UNL A   1      31.965  28.396  25.234  1.00  0.00     0.161 A 
ATOM     33  H   UNL A   1      30.237  28.606  24.044  1.00  0.00     0.066 H 
ATOM     34  O   UNL A   1      33.977  27.887  26.513  1.00  0.00    -0.486 OA
ATOM     35  O   UNL A   1      31.807  29.656  25.753  1.00  0.00    -0.486 OA
ATOM     36  C   UNL A   1      33.606  29.045  27.267  1.00  0.00     0.122 C 
ATOM     37  C   UNL A   1      33.019  30.117  26.362  1.00  0.00     0.122 C 
ATOM     38  H   UNL A   1      34.473  29.438  27.756  1.00  0.00     0.074 H 
ATOM     39  H   UNL A   1      32.867  28.762  27.986  1.00  0.00     0.074 H 
ATOM     40  H   UNL A   1      33.728  30.358  25.597  1.00  0.00     0.074 H 
ATOM     41  H   UNL A   1      32.800  30.982  26.952  1.00  0.00     0.074 H 
ENDBRANCH  19  25
ENDBRANCH  14  17
ENDBRANCH  12  14
ENDBRANCH   7  10
ENDBRANCH   4   7
ENDBRANCH   1   4
BRANCH   1  42
ATOM     42  C   UNL A   1      35.518  22.854  25.293  1.00  0.00    -0.052 C 
ATOM     43  H   UNL A   1      34.890  23.079  24.456  1.00  0.00     0.027 H 
ATOM     44  H   UNL A   1      35.663  21.804  25.447  1.00  0.00     0.027 H 
BRANCH  42  45
ATOM     45  C   UNL A   1      36.908  23.439  25.015  1.00  0.00    -0.036 C 
ATOM     46  H   UNL A   1      36.844  24.059  24.145  1.00  0.00     0.028 H 
ATOM     47  H   UNL A   1      37.573  22.611  24.883  1.00  0.00     0.028 H 
BRANCH  45  48
ATOM     48  C   UNL A   1      37.471  24.279  26.162  1.00  0.00     0.018 C 
ATOM     49  H   UNL A   1      36.691  24.472  26.869  1.00  0.00     0.049 H 
ATOM     50  H   UNL A   1      37.848  25.195  25.761  1.00  0.00     0.049 H 
BRANCH  48  51
ATOM     51  N   UNL A   1      38.557  23.584  26.833  1.00  0.00    -0.352 N 
ATOM     52  C   UNL A   1      39.666  24.085  27.464  1.00  0.00     0.251 C 
ATOM     53  H   UNL A   1      38.485  22.602  26.833  1.00  0.00     0.163 HD
ATOM     54  O   UNL A   1      40.643  23.362  27.620  1.00  0.00    -0.269 OA
BRANCH  52  55
ATOM     55  C   UNL A   1      39.713  25.478  27.956  1.00  0.00     0.039 A 
ATOM     56  C   UNL A   1      39.196  25.735  29.234  1.00  0.00    -0.049 A 
ATOM     57  C   UNL A   1      40.147  26.533  27.147  1.00  0.00    -0.049 A 
ATOM     58  C   UNL A   1      39.167  27.037  29.720  1.00  0.00    -0.053 A 
ATOM     59  H   UNL A   1      38.839  24.959  29.813  1.00  0.00     0.063 H 
ATOM     60  C   UNL A   1      40.142  27.836  27.638  1.00  0.00    -0.053 A 
ATOM     61  H   UNL A   1      40.470  26.347  26.185  1.00  0.00     0.063 H 
ATOM     62  C   UNL A   1      39.666  28.082  28.931  1.00  0.00    -0.014 A 
ATOM     63  H   UNL A   1      38.779  27.232  30.657  1.00  0.00     0.063 H 
ATOM     64  H   UNL A   1      40.487  28.613  27.055  1.00  0.00     0.063 H 
BRANCH  62  65
ATOM     65  C   UNL A   1      39.867  29.405  29.564  1.00  0.00     0.031 A 
ATOM     66  C   UNL A   1      38.630  30.316  29.342  1.00  0.00     0.074 A 
ATOM     67  C   UNL A   1      41.067  29.604  30.195  1.00  0.00     0.049 A 
ATOM     68  N   UNL A   1      38.523  31.611  29.324  1.00  0.00    -0.248 NA
ATOM     69  C   UNL A   1      37.313  29.682  29.040  1.00  0.00    -0.034 C 
ATOM     70  C   UNL A   1      42.115  28.570  30.363  1.00  0.00    -0.036 A 
ATOM     71  N   UNL A   1      41.662  30.685  30.816  1.00  0.00    -0.354 N 
ATOM     72  C   UNL A   1      37.146  31.933  29.218  1.00  0.00     0.074 A 
ATOM     73  C   UNL A   1      36.467  30.709  28.933  1.00  0.00    -0.034 C 
ATOM     74  H   UNL A   1      37.104  28.676  28.938  1.00  0.00     0.065 H 
ATOM     75  C   UNL A   1      43.219  29.084  30.949  1.00  0.00    -0.036 A 
ATOM     76  H   UNL A   1      42.016  27.586  30.070  1.00  0.00     0.065 H 
ATOM     77  C   UNL A   1      43.013  30.491  31.229  1.00  0.00     0.049 A 
ATOM     78  H   UNL A   1      41.185  31.534  30.965  1.00  0.00     0.167 HD
ATOM     79  C   UNL A   1      36.642  33.172  29.510  1.00  0.00     0.037 A 
ATOM     80  H   UNL A   1      35.470  30.630  28.681  1.00  0.00     0.065 H 
ATOM     81  H   UNL A   1      44.079  28.555  31.165  1.00  0.00     0.065 H 
ATOM     82  C   UNL A   1      43.911  31.412  31.709  1.00  0.00     0.037 A 
ATOM     83  C   UNL A   1      37.709  34.054  29.831  1.00  0.00     0.049 A 
ATOM     84  C   UNL A   1      43.121  32.635  31.876  1.00  0.00     0.074 A 
ATOM     85  C   UNL A   1      38.660  34.663  29.058  1.00  0.00    -0.036 A 
ATOM     86  N   UNL A   1      38.086  34.111  31.147  1.00  0.00    -0.354 N 
ATOM     87  N   UNL A   1      42.262  32.828  32.830  1.00  0.00    -0.248 NA
ATOM     88  C   UNL A   1      43.224  33.683  30.854  1.00  0.00    -0.034 C 
ATOM     89  C   UNL A   1      39.807  34.619  29.876  1.00  0.00    -0.036 A 
ATOM     90  H   UNL A   1      38.562  35.056  28.109  1.00  0.00     0.065 H 
ATOM     91  C   UNL A   1      39.452  34.217  31.169  1.00  0.00     0.049 A 
ATOM     92  H   UNL A   1      37.489  34.080  31.929  1.00  0.00     0.167 HD
ATOM     93  C   UNL A   1      41.501  33.852  32.322  1.00  0.00     0.074 A 
ATOM     94  C   UNL A   1      42.309  34.522  31.328  1.00  0.00    -0.034 C 
ATOM     95  H   UNL A   1      43.826  33.749  30.018  1.00  0.00     0.065 H 
ATOM     96  H   UNL A   1      40.764  34.851  29.567  1.00  0.00     0.065 H 
ATOM     97  C   UNL A   1      40.149  33.744  32.338  1.00  0.00     0.037 A 
ATOM     98  H   UNL A   1      42.192  35.504  31.032  1.00  0.00     0.065 H 
BRANCH  79  99
ATOM     99  C   UNL A   1      35.251  33.684  29.792  1.00  0.00     0.064 A 
ATOM    100  C   UNL A   1      34.646  34.534  28.827  1.00  0.00     0.173 A 
ATOM    101  C   UNL A   1      34.684  33.712  31.071  1.00  0.00     0.173 A 
ATOM    102  F   UNL A   1      35.067  34.536  27.552  1.00  0.00    -0.203 F 
ATOM    103  C   UNL A   1      33.669  35.468  29.166  1.00  0.00     0.198 A 
ATOM    104  C   UNL A   1      33.664  34.613  31.395  1.00  0.00     0.198 A 
ATOM    105  F   UNL A   1      35.167  32.948  32.060  1.00  0.00    -0.203 F 
ATOM    106  F   UNL A   1      33.250  36.359  28.258  1.00  0.00    -0.200 F 
ATOM    107  C   UNL A   1      33.194  35.522  30.460  1.00  0.00     0.200 A 
ATOM    108  F   UNL A   1      33.190  34.655  32.649  1.00  0.00    -0.200 F 
ATOM    109  F   UNL A   1      32.315  36.469  30.816  1.00  0.00    -0.200 F 
ENDBRANCH  79  99
BRANCH  82 110
ATOM    110  C   UNL A   1      45.394  31.542  32.009  1.00  0.00     0.064 A 
ATOM    111  C   UNL A   1      45.988  31.559  33.275  1.00  0.00     0.173 A 
ATOM    112  C   UNL A   1      46.336  31.572  30.933  1.00  0.00     0.173 A 
ATOM    113  F   UNL A   1      45.247  31.672  34.382  1.00  0.00    -0.203 F 
ATOM    114  C   UNL A   1      47.387  31.477  33.445  1.00  0.00     0.198 A 
ATOM    115  C   UNL A   1      47.713  31.434  31.098  1.00  0.00     0.198 A 
ATOM    116  F   UNL A   1      45.950  31.736  29.661  1.00  0.00    -0.203 F 
ATOM    117  F   UNL A   1      47.908  31.488  34.681  1.00  0.00    -0.200 F 
ATOM    118  C   UNL A   1      48.242  31.365  32.361  1.00  0.00     0.200 A 
ATOM    119  F   UNL A   1      48.506  31.346  30.020  1.00  0.00    -0.200 F 
ATOM    120  F   UNL A   1      49.562  31.209  32.529  1.00  0.00    -0.200 F 
ENDBRANCH  82 110
BRANCH  97 121
ATOM    121  C   UNL A   1      39.618  32.786  33.390  1.00  0.00     0.064 A 
ATOM    122  C   UNL A   1      39.809  33.072  34.751  1.00  0.00     0.173 A 
ATOM    123  C   UNL A   1      39.045  31.534  33.104  1.00  0.00     0.173 A 
ATOM    124  F   UNL A   1      40.330  34.253  35.117  1.00  0.00    -0.203 F 
ATOM    125  C   UNL A   1      39.474  32.155  35.753  1.00  0.00     0.198 A 
ATOM    126  C   UNL A   1      38.702  30.616  34.101  1.00  0.00     0.198 A 
ATOM    127  F   UNL A   1      38.797  31.171  31.849  1.00  0.00    -0.203 F 
ATOM    128  F   UNL A   1      39.679  32.468  37.039  1.00  0.00    -0.200 F 
ATOM    129  C   UNL A   1      38.924  30.926  35.427  1.00  0.00     0.200 A 
ATOM    130  F   UNL A   1      38.153  29.438  33.769  1.00  0.00    -0.200 F 
ATOM    131  F   UNL A   1      38.593  30.051  36.389  1.00  0.00    -0.200 F 
ENDBRANCH  97 121
ENDBRANCH  62  65
ENDBRANCH  52  55
ENDBRANCH  48  51
ENDBRANCH  45  48
ENDBRANCH  42  45
ENDBRANCH   1  42
TORSDOF 15
ENDMDL
MODEL 4
REMARK VINA RESULT:     -12.4      1.204      2.834
REMARK SMILES O=C(Cc1cccn1-c1ccc2c(c1)OCCO2)NCCCCCCNC(=O)c1ccc(-c2c3nc(c(-c4c(F)c(F)c(F)c(F)c4F)c4ccc([nH]4)c(-c4c(F)c(F)c(F)c(F)c4F)c4nc(c(-c5c(F)c(F)c(F)c(F)c5F)c5ccc2[nH]5)C=C4)C=C3)cc1
REMARK SMILES IDX 22 1 21 4 20 7 19 10 1 11 2 12 3 14 4 17 5 18 8 19 6 20 7 22
REMARK SMILES IDX 9 25 10 26 14 27 11 28 13 30 12 32 15 34 18 35 16 36 17 37
REMARK SMILES IDX 23 42 24 45 25 48 26 51 27 52 28 54 29 55 30 56 91 57 31 58
REMARK SMILES IDX 90 60 32 62 33 65 34 66 84 67 35 68 89 69 83 70 85 71 36 72
REMARK SMILES IDX 88 73 82 75 81 77 37 79 69 82 49 83 68 84 50 85 53 86 67 87
REMARK SMILES IDX 86 88 51 89 52 91 66 93 87 94 54 97 38 99 39 100 47 101
REMARK SMILES IDX 40 102 41 103 45 104 48 105 42 106 43 107 46 108 44 109
REMARK SMILES IDX 70 110 71 111 79 112 72 113 73 114 77 115 80 116 74 117
REMARK SMILES IDX 75 118 78 119 76 120 55 121 56 122 64 123 57 124 58 125
REMARK SMILES IDX 62 126 65 127 59 128 60 129 63 130 61 131
REMARK H PARENT 22 2 22 3 21 5 21 6 20 8 20 9 19 13 3 15 3 16 5 21 6 23 7 24
REMARK H PARENT 10 29 14 31 11 33 16 38 16 39 17 40 17 41 23 43 23 44 24 46
REMARK H PARENT 24 47 25 49 25 50 26 53 30 59 91 61 31 63 90 64 89 74 83 76
REMARK H PARENT 85 78 88 80 82 81 50 90 53 92 86 95 51 96 87 98
REMARK Flexibility Score: inf
ROOT
ATOM      1  C   UNL A   1      33.937  26.099  25.740  1.00  0.00    -0.052 C 
ATOM      2  H   UNL A   1      34.434  26.306  26.664  1.00  0.00     0.027 H 
ATOM      3  H   UNL A   1      32.985  25.627  25.861  1.00  0.00     0.027 H 
ENDROOT
BRANCH   1   4
ATOM      4  C   UNL A   1      34.802  25.109  24.948  1.00  0.00    -0.036 C 
ATOM      5  H   UNL A   1      34.178  24.627  24.224  1.00  0.00     0.028 H 
ATOM      6  H   UNL A   1      35.592  25.683  24.510  1.00  0.00     0.028 H 
BRANCH   4   7
ATOM      7  C   UNL A   1      35.473  24.029  25.793  1.00  0.00     0.017 C 
ATOM      8  H   UNL A   1      36.367  23.706  25.300  1.00  0.00     0.049 H 
ATOM      9  H   UNL A   1      35.697  24.442  26.753  1.00  0.00     0.049 H 
BRANCH   7  10
ATOM     10  N   UNL A   1      34.604  22.889  25.980  1.00  0.00    -0.356 N 
ATOM     11  O   UNL A   1      36.086  21.303  25.226  1.00  0.00    -0.275 OA
ATOM     12  C   UNL A   1      34.992  21.597  25.700  1.00  0.00     0.225 C 
ATOM     13  H   UNL A   1      33.693  23.044  26.323  1.00  0.00     0.163 HD
BRANCH  12  14
ATOM     14  C   UNL A   1      33.921  20.562  25.999  1.00  0.00     0.067 C 
ATOM     15  H   UNL A   1      33.080  21.056  26.439  1.00  0.00     0.043 H 
ATOM     16  H   UNL A   1      34.347  19.838  26.661  1.00  0.00     0.043 H 
BRANCH  14  17
ATOM     17  C   UNL A   1      33.457  19.831  24.763  1.00  0.00     0.032 A 
ATOM     18  C   UNL A   1      33.596  18.493  24.418  1.00  0.00    -0.040 A 
ATOM     19  N   UNL A   1      32.631  20.413  23.804  1.00  0.00    -0.320 N 
ATOM     20  C   UNL A   1      32.763  18.230  23.313  1.00  0.00    -0.044 A 
ATOM     21  H   UNL A   1      34.206  17.807  24.892  1.00  0.00     0.064 H 
ATOM     22  C   UNL A   1      32.142  19.411  22.990  1.00  0.00     0.009 A 
ATOM     23  H   UNL A   1      32.644  17.322  22.836  1.00  0.00     0.064 H 
ATOM     24  H   UNL A   1      31.425  19.531  22.258  1.00  0.00     0.082 H 
BRANCH  19  25
ATOM     25  C   UNL A   1      32.311  21.784  23.644  1.00  0.00     0.049 A 
ATOM     26  C   UNL A   1      31.302  22.355  24.432  1.00  0.00    -0.034 A 
ATOM     27  C   UNL A   1      32.955  22.541  22.660  1.00  0.00     0.008 A 
ATOM     28  C   UNL A   1      30.970  23.700  24.259  1.00  0.00    -0.014 A 
ATOM     29  H   UNL A   1      30.808  21.785  25.136  1.00  0.00     0.065 H 
ATOM     30  C   UNL A   1      32.605  23.879  22.483  1.00  0.00     0.163 A 
ATOM     31  H   UNL A   1      33.685  22.113  22.069  1.00  0.00     0.069 H 
ATOM     32  C   UNL A   1      31.607  24.454  23.275  1.00  0.00     0.161 A 
ATOM     33  H   UNL A   1      30.252  24.136  24.859  1.00  0.00     0.066 H 
ATOM     34  O   UNL A   1      33.266  24.558  21.491  1.00  0.00    -0.486 OA
ATOM     35  O   UNL A   1      31.198  25.756  23.135  1.00  0.00    -0.486 OA
ATOM     36  C   UNL A   1      33.061  25.970  21.591  1.00  0.00     0.122 C 
ATOM     37  C   UNL A   1      31.600  26.288  21.868  1.00  0.00     0.122 C 
ATOM     38  H   UNL A   1      33.350  26.432  20.670  1.00  0.00     0.074 H 
ATOM     39  H   UNL A   1      33.651  26.345  22.400  1.00  0.00     0.074 H 
ATOM     40  H   UNL A   1      30.994  25.858  21.097  1.00  0.00     0.074 H 
ATOM     41  H   UNL A   1      31.478  27.351  21.887  1.00  0.00     0.074 H 
ENDBRANCH  19  25
ENDBRANCH  14  17
ENDBRANCH  12  14
ENDBRANCH   7  10
ENDBRANCH   4   7
ENDBRANCH   1   4
BRANCH   1  42
ATOM     42  C   UNL A   1      33.661  27.435  25.042  1.00  0.00    -0.052 C 
ATOM     43  H   UNL A   1      32.702  27.371  24.572  1.00  0.00     0.027 H 
ATOM     44  H   UNL A   1      34.465  27.581  24.351  1.00  0.00     0.027 H 
BRANCH  42  45
ATOM     45  C   UNL A   1      33.660  28.664  25.959  1.00  0.00    -0.036 C 
ATOM     46  H   UNL A   1      32.766  28.644  26.548  1.00  0.00     0.028 H 
ATOM     47  H   UNL A   1      33.716  29.525  25.325  1.00  0.00     0.028 H 
BRANCH  45  48
ATOM     48  C   UNL A   1      34.857  28.735  26.908  1.00  0.00     0.018 C 
ATOM     49  H   UNL A   1      35.675  28.195  26.479  1.00  0.00     0.049 H 
ATOM     50  H   UNL A   1      34.575  28.306  27.845  1.00  0.00     0.049 H 
BRANCH  48  51
ATOM     51  N   UNL A   1      35.264  30.112  27.132  1.00  0.00    -0.352 N 
ATOM     52  C   UNL A   1      36.327  30.612  27.837  1.00  0.00     0.251 C 
ATOM     53  H   UNL A   1      34.686  30.790  26.712  1.00  0.00     0.163 HD
ATOM     54  O   UNL A   1      36.288  31.770  28.236  1.00  0.00    -0.269 OA
BRANCH  52  55
ATOM     55  C   UNL A   1      37.517  29.787  28.132  1.00  0.00     0.039 A 
ATOM     56  C   UNL A   1      38.529  29.733  27.163  1.00  0.00    -0.049 A 
ATOM     57  C   UNL A   1      37.599  28.991  29.279  1.00  0.00    -0.049 A 
ATOM     58  C   UNL A   1      39.643  28.927  27.368  1.00  0.00    -0.053 A 
ATOM     59  H   UNL A   1      38.447  30.291  26.298  1.00  0.00     0.063 H 
ATOM     60  C   UNL A   1      38.723  28.201  29.501  1.00  0.00    -0.053 A 
ATOM     61  H   UNL A   1      36.824  28.987  29.961  1.00  0.00     0.063 H 
ATOM     62  C   UNL A   1      39.751  28.184  28.551  1.00  0.00    -0.014 A 
ATOM     63  H   UNL A   1      40.386  28.877  26.653  1.00  0.00     0.063 H 
ATOM     64  H   UNL A   1      38.799  27.633  30.358  1.00  0.00     0.063 H 
BRANCH  62  65
ATOM     65  C   UNL A   1      41.050  27.548  28.864  1.00  0.00     0.031 A 
ATOM     66  C   UNL A   1      41.100  26.095  28.320  1.00  0.00     0.074 A 
ATOM     67  C   UNL A   1      41.946  28.307  29.570  1.00  0.00     0.049 A 
ATOM     68  N   UNL A   1      41.798  25.069  28.703  1.00  0.00    -0.248 NA
ATOM     69  C   UNL A   1      40.186  25.714  27.202  1.00  0.00    -0.034 C 
ATOM     70  C   UNL A   1      41.739  29.724  29.949  1.00  0.00    -0.036 A 
ATOM     71  N   UNL A   1      43.193  28.067  30.116  1.00  0.00    -0.354 N 
ATOM     72  C   UNL A   1      41.569  24.017  27.781  1.00  0.00     0.074 A 
ATOM     73  C   UNL A   1      40.485  24.437  26.951  1.00  0.00    -0.034 C 
ATOM     74  H   UNL A   1      39.482  26.304  26.731  1.00  0.00     0.065 H 
ATOM     75  C   UNL A   1      42.757  30.179  30.714  1.00  0.00    -0.036 A 
ATOM     76  H   UNL A   1      40.925  30.290  29.667  1.00  0.00     0.065 H 
ATOM     77  C   UNL A   1      43.730  29.123  30.910  1.00  0.00     0.049 A 
ATOM     78  H   UNL A   1      43.680  27.225  29.966  1.00  0.00     0.167 HD
ATOM     79  C   UNL A   1      42.384  22.922  27.676  1.00  0.00     0.037 A 
ATOM     80  H   UNL A   1      40.004  23.843  26.259  1.00  0.00     0.065 H 
ATOM     81  H   UNL A   1      42.831  31.135  31.099  1.00  0.00     0.065 H 
ATOM     82  C   UNL A   1      44.846  29.122  31.709  1.00  0.00     0.037 A 
ATOM     83  C   UNL A   1      43.394  22.986  28.674  1.00  0.00     0.049 A 
ATOM     84  C   UNL A   1      45.486  27.832  31.435  1.00  0.00     0.074 A 
ATOM     85  C   UNL A   1      43.361  22.787  30.027  1.00  0.00    -0.036 A 
ATOM     86  N   UNL A   1      44.552  23.639  28.337  1.00  0.00    -0.354 N 
ATOM     87  N   UNL A   1      46.141  27.555  30.349  1.00  0.00    -0.248 NA
ATOM     88  C   UNL A   1      45.305  26.739  32.397  1.00  0.00    -0.034 C 
ATOM     89  C   UNL A   1      44.253  23.764  30.512  1.00  0.00    -0.036 A 
ATOM     90  H   UNL A   1      42.816  22.093  30.562  1.00  0.00     0.065 H 
ATOM     91  C   UNL A   1      44.955  24.336  29.445  1.00  0.00     0.049 A 
ATOM     92  H   UNL A   1      45.006  23.611  27.464  1.00  0.00     0.167 HD
ATOM     93  C   UNL A   1      46.144  26.183  30.363  1.00  0.00     0.074 A 
ATOM     94  C   UNL A   1      45.937  25.776  31.734  1.00  0.00    -0.034 C 
ATOM     95  H   UNL A   1      44.829  26.723  33.313  1.00  0.00     0.065 H 
ATOM     96  H   UNL A   1      44.371  24.018  31.506  1.00  0.00     0.065 H 
ATOM     97  C   UNL A   1      45.771  25.507  29.246  1.00  0.00     0.037 A 
ATOM     98  H   UNL A   1      46.237  24.874  32.138  1.00  0.00     0.065 H 
BRANCH  79  99
ATOM     99  C   UNL A   1      42.566  21.863  26.617  1.00  0.00     0.064 A 
ATOM    100  C   UNL A   1      42.111  20.548  26.905  1.00  0.00     0.173 A 
ATOM    101  C   UNL A   1      43.478  21.976  25.562  1.00  0.00     0.173 A 
ATOM    102  F   UNL A   1      41.184  20.333  27.852  1.00  0.00    -0.203 F 
ATOM    103  C   UNL A   1      42.665  19.420  26.303  1.00  0.00     0.198 A 
ATOM    104  C   UNL A   1      43.992  20.843  24.920  1.00  0.00     0.198 A 
ATOM    105  F   UNL A   1      43.971  23.166  25.196  1.00  0.00    -0.203 F 
ATOM    106  F   UNL A   1      42.321  18.196  26.728  1.00  0.00    -0.200 F 
ATOM    107  C   UNL A   1      43.625  19.569  25.324  1.00  0.00     0.200 A 
ATOM    108  F   UNL A   1      44.913  20.988  23.956  1.00  0.00    -0.200 F 
ATOM    109  F   UNL A   1      44.222  18.491  24.796  1.00  0.00    -0.200 F 
ENDBRANCH  79  99
BRANCH  82 110
ATOM    110  C   UNL A   1      45.511  29.970  32.779  1.00  0.00     0.064 A 
ATOM    111  C   UNL A   1      45.049  30.176  34.083  1.00  0.00     0.173 A 
ATOM    112  C   UNL A   1      46.779  30.579  32.517  1.00  0.00     0.173 A 
ATOM    113  F   UNL A   1      43.822  29.790  34.448  1.00  0.00    -0.203 F 
ATOM    114  C   UNL A   1      45.840  30.811  35.065  1.00  0.00     0.198 A 
ATOM    115  C   UNL A   1      47.585  31.155  33.498  1.00  0.00     0.198 A 
ATOM    116  F   UNL A   1      47.294  30.635  31.282  1.00  0.00    -0.203 F 
ATOM    117  F   UNL A   1      45.355  30.977  36.304  1.00  0.00    -0.200 F 
ATOM    118  C   UNL A   1      47.122  31.255  34.785  1.00  0.00     0.200 A 
ATOM    119  F   UNL A   1      48.814  31.587  33.179  1.00  0.00    -0.200 F 
ATOM    120  F   UNL A   1      47.898  31.786  35.738  1.00  0.00    -0.200 F 
ENDBRANCH  82 110
BRANCH  97 121
ATOM    121  C   UNL A   1      45.925  26.304  27.963  1.00  0.00     0.064 A 
ATOM    122  C   UNL A   1      47.205  26.690  27.533  1.00  0.00     0.173 A 
ATOM    123  C   UNL A   1      44.850  26.812  27.212  1.00  0.00     0.173 A 
ATOM    124  F   UNL A   1      48.290  26.234  28.177  1.00  0.00    -0.203 F 
ATOM    125  C   UNL A   1      47.391  27.547  26.443  1.00  0.00     0.198 A 
ATOM    126  C   UNL A   1      45.031  27.664  26.119  1.00  0.00     0.198 A 
ATOM    127  F   UNL A   1      43.597  26.490  27.517  1.00  0.00    -0.203 F 
ATOM    128  F   UNL A   1      48.631  27.893  26.072  1.00  0.00    -0.200 F 
ATOM    129  C   UNL A   1      46.304  28.037  25.739  1.00  0.00     0.200 A 
ATOM    130  F   UNL A   1      43.967  28.115  25.436  1.00  0.00    -0.200 F 
ATOM    131  F   UNL A   1      46.483  28.851  24.688  1.00  0.00    -0.200 F 
ENDBRANCH  97 121
ENDBRANCH  62  65
ENDBRANCH  52  55
ENDBRANCH  48  51
ENDBRANCH  45  48
ENDBRANCH  42  45
ENDBRANCH   1  42
TORSDOF 15
ENDMDL
MODEL 5
REMARK VINA RESULT:     -12.3      1.389      2.723
REMARK SMILES O=C(Cc1cccn1-c1ccc2c(c1)OCCO2)NCCCCCCNC(=O)c1ccc(-c2c3nc(c(-c4c(F)c(F)c(F)c(F)c4F)c4ccc([nH]4)c(-c4c(F)c(F)c(F)c(F)c4F)c4nc(c(-c5c(F)c(F)c(F)c(F)c5F)c5ccc2[nH]5)C=C4)C=C3)cc1
REMARK SMILES IDX 22 1 21 4 20 7 19 10 1 11 2 12 3 14 4 17 5 18 8 19 6 20 7 22
REMARK SMILES IDX 9 25 10 26 14 27 11 28 13 30 12 32 15 34 18 35 16 36 17 37
REMARK SMILES IDX 23 42 24 45 25 48 26 51 27 52 28 54 29 55 30 56 91 57 31 58
REMARK SMILES IDX 90 60 32 62 33 65 34 66 84 67 35 68 89 69 83 70 85 71 36 72
REMARK SMILES IDX 88 73 82 75 81 77 37 79 69 82 49 83 68 84 50 85 53 86 67 87
REMARK SMILES IDX 86 88 51 89 52 91 66 93 87 94 54 97 38 99 39 100 47 101
REMARK SMILES IDX 40 102 41 103 45 104 48 105 42 106 43 107 46 108 44 109
REMARK SMILES IDX 70 110 71 111 79 112 72 113 73 114 77 115 80 116 74 117
REMARK SMILES IDX 75 118 78 119 76 120 55 121 56 122 64 123 57 124 58 125
REMARK SMILES IDX 62 126 65 127 59 128 60 129 63 130 61 131
REMARK H PARENT 22 2 22 3 21 5 21 6 20 8 20 9 19 13 3 15 3 16 5 21 6 23 7 24
REMARK H PARENT 10 29 14 31 11 33 16 38 16 39 17 40 17 41 23 43 23 44 24 46
REMARK H PARENT 24 47 25 49 25 50 26 53 30 59 91 61 31 63 90 64 89 74 83 76
REMARK H PARENT 85 78 88 80 82 81 50 90 53 92 86 95 51 96 87 98
REMARK Flexibility Score: inf
ROOT
ATOM      1  C   UNL A   1      31.738  27.345  25.006  1.00  0.00    -0.052 C 
ATOM      2  H   UNL A   1      31.139  27.899  25.698  1.00  0.00     0.027 H 
ATOM      3  H   UNL A   1      31.870  27.837  24.065  1.00  0.00     0.027 H 
ENDROOT
BRANCH   1   4
ATOM      4  C   UNL A   1      31.014  26.028  24.699  1.00  0.00    -0.036 C 
ATOM      5  H   UNL A   1      31.363  25.288  25.388  1.00  0.00     0.028 H 
ATOM      6  H   UNL A   1      29.967  26.232  24.790  1.00  0.00     0.028 H 
BRANCH   4   7
ATOM      7  C   UNL A   1      31.226  25.498  23.283  1.00  0.00     0.017 C 
ATOM      8  H   UNL A   1      30.291  25.148  22.898  1.00  0.00     0.049 H 
ATOM      9  H   UNL A   1      31.612  26.292  22.679  1.00  0.00     0.049 H 
BRANCH   7  10
ATOM     10  N   UNL A   1      32.178  24.410  23.264  1.00  0.00    -0.356 N 
ATOM     11  O   UNL A   1      33.814  25.516  22.089  1.00  0.00    -0.275 OA
ATOM     12  C   UNL A   1      33.422  24.515  22.681  1.00  0.00     0.225 C 
ATOM     13  H   UNL A   1      31.926  23.557  23.687  1.00  0.00     0.163 HD
BRANCH  12  14
ATOM     14  C   UNL A   1      34.260  23.253  22.805  1.00  0.00     0.067 C 
ATOM     15  H   UNL A   1      34.925  23.199  21.969  1.00  0.00     0.043 H 
ATOM     16  H   UNL A   1      33.588  22.421  22.832  1.00  0.00     0.043 H 
BRANCH  14  17
ATOM     17  C   UNL A   1      35.078  23.219  24.073  1.00  0.00     0.032 A 
ATOM     18  C   UNL A   1      35.989  24.145  24.566  1.00  0.00    -0.040 A 
ATOM     19  N   UNL A   1      34.899  22.257  25.064  1.00  0.00    -0.320 N 
ATOM     20  C   UNL A   1      36.280  23.810  25.904  1.00  0.00    -0.044 A 
ATOM     21  H   UNL A   1      36.384  24.942  24.043  1.00  0.00     0.064 H 
ATOM     22  C   UNL A   1      35.558  22.681  26.201  1.00  0.00     0.009 A 
ATOM     23  H   UNL A   1      36.916  24.318  26.539  1.00  0.00     0.064 H 
ATOM     24  H   UNL A   1      35.514  22.223  27.124  1.00  0.00     0.082 H 
BRANCH  19  25
ATOM     25  C   UNL A   1      34.177  21.041  24.980  1.00  0.00     0.049 A 
ATOM     26  C   UNL A   1      32.801  21.033  25.241  1.00  0.00    -0.034 A 
ATOM     27  C   UNL A   1      34.852  19.847  24.701  1.00  0.00     0.008 A 
ATOM     28  C   UNL A   1      32.094  19.831  25.181  1.00  0.00    -0.014 A 
ATOM     29  H   UNL A   1      32.312  21.911  25.477  1.00  0.00     0.065 H 
ATOM     30  C   UNL A   1      34.141  18.649  24.660  1.00  0.00     0.163 A 
ATOM     31  H   UNL A   1      35.869  19.853  24.527  1.00  0.00     0.069 H 
ATOM     32  C   UNL A   1      32.765  18.640  24.909  1.00  0.00     0.161 A 
ATOM     33  H   UNL A   1      31.074  19.823  25.339  1.00  0.00     0.066 H 
ATOM     34  O   UNL A   1      34.867  17.516  24.395  1.00  0.00    -0.486 OA
ATOM     35  O   UNL A   1      32.012  17.494  24.909  1.00  0.00    -0.486 OA
ATOM     36  C   UNL A   1      34.019  16.408  24.077  1.00  0.00     0.122 C 
ATOM     37  C   UNL A   1      32.841  16.333  25.035  1.00  0.00     0.122 C 
ATOM     38  H   UNL A   1      34.585  15.502  24.148  1.00  0.00     0.074 H 
ATOM     39  H   UNL A   1      33.644  16.539  23.084  1.00  0.00     0.074 H 
ATOM     40  H   UNL A   1      33.208  16.270  26.039  1.00  0.00     0.074 H 
ATOM     41  H   UNL A   1      32.259  15.467  24.797  1.00  0.00     0.074 H 
ENDBRANCH  19  25
ENDBRANCH  14  17
ENDBRANCH  12  14
ENDBRANCH   7  10
ENDBRANCH   4   7
ENDBRANCH   1   4
BRANCH   1  42
ATOM     42  C   UNL A   1      33.141  27.199  25.607  1.00  0.00    -0.052 C 
ATOM     43  H   UNL A   1      33.676  26.478  25.026  1.00  0.00     0.027 H 
ATOM     44  H   UNL A   1      32.998  26.906  26.626  1.00  0.00     0.027 H 
BRANCH  42  45
ATOM     45  C   UNL A   1      33.972  28.488  25.648  1.00  0.00    -0.036 C 
ATOM     46  H   UNL A   1      33.309  29.321  25.539  1.00  0.00     0.028 H 
ATOM     47  H   UNL A   1      34.686  28.422  24.853  1.00  0.00     0.028 H 
BRANCH  45  48
ATOM     48  C   UNL A   1      34.768  28.674  26.941  1.00  0.00     0.018 C 
ATOM     49  H   UNL A   1      35.641  28.057  26.905  1.00  0.00     0.049 H 
ATOM     50  H   UNL A   1      34.147  28.398  27.766  1.00  0.00     0.049 H 
BRANCH  48  51
ATOM     51  N   UNL A   1      35.172  30.060  27.109  1.00  0.00    -0.352 N 
ATOM     52  C   UNL A   1      36.256  30.588  27.761  1.00  0.00     0.251 C 
ATOM     53  H   UNL A   1      34.576  30.721  26.689  1.00  0.00     0.163 HD
ATOM     54  O   UNL A   1      36.222  31.757  28.126  1.00  0.00    -0.269 OA
BRANCH  52  55
ATOM     55  C   UNL A   1      37.461  29.779  28.040  1.00  0.00     0.039 A 
ATOM     56  C   UNL A   1      38.462  29.743  27.060  1.00  0.00    -0.049 A 
ATOM     57  C   UNL A   1      37.566  28.980  29.184  1.00  0.00    -0.049 A 
ATOM     58  C   UNL A   1      39.591  28.953  27.250  1.00  0.00    -0.053 A 
ATOM     59  H   UNL A   1      38.363  30.303  26.199  1.00  0.00     0.063 H 
ATOM     60  C   UNL A   1      38.705  28.207  29.391  1.00  0.00    -0.053 A 
ATOM     61  H   UNL A   1      36.800  28.964  29.874  1.00  0.00     0.063 H 
ATOM     62  C   UNL A   1      39.722  28.208  28.429  1.00  0.00    -0.014 A 
ATOM     63  H   UNL A   1      40.326  28.917  26.527  1.00  0.00     0.063 H 
ATOM     64  H   UNL A   1      38.798  27.637  30.245  1.00  0.00     0.063 H 
BRANCH  62  65
ATOM     65  C   UNL A   1      41.034  27.590  28.726  1.00  0.00     0.031 A 
ATOM     66  C   UNL A   1      41.082  26.125  28.217  1.00  0.00     0.074 A 
ATOM     67  C   UNL A   1      41.941  28.374  29.391  1.00  0.00     0.049 A 
ATOM     68  N   UNL A   1      41.799  25.115  28.608  1.00  0.00    -0.248 NA
ATOM     69  C   UNL A   1      40.145  25.709  27.132  1.00  0.00    -0.034 C 
ATOM     70  C   UNL A   1      41.731  29.798  29.739  1.00  0.00    -0.036 A 
ATOM     71  N   UNL A   1      43.202  28.158  29.911  1.00  0.00    -0.354 N 
ATOM     72  C   UNL A   1      41.556  24.037  27.718  1.00  0.00     0.074 A 
ATOM     73  C   UNL A   1      40.449  24.428  26.905  1.00  0.00    -0.034 C 
ATOM     74  H   UNL A   1      39.425  26.281  26.664  1.00  0.00     0.065 H 
ATOM     75  C   UNL A   1      42.763  30.280  30.467  1.00  0.00    -0.036 A 
ATOM     76  H   UNL A   1      40.905  30.351  29.464  1.00  0.00     0.065 H 
ATOM     77  C   UNL A   1      43.750  29.238  30.666  1.00  0.00     0.049 A 
ATOM     78  H   UNL A   1      43.692  27.316  29.770  1.00  0.00     0.167 HD
ATOM     79  C   UNL A   1      42.378  22.946  27.621  1.00  0.00     0.037 A 
ATOM     80  H   UNL A   1      39.956  23.813  26.240  1.00  0.00     0.065 H 
ATOM     81  H   UNL A   1      42.838  31.246  30.827  1.00  0.00     0.065 H 
ATOM     82  C   UNL A   1      44.885  29.265  31.436  1.00  0.00     0.037 A 
ATOM     83  C   UNL A   1      43.411  23.043  28.591  1.00  0.00     0.049 A 
ATOM     84  C   UNL A   1      45.529  27.973  31.179  1.00  0.00     0.074 A 
ATOM     85  C   UNL A   1      43.413  22.878  29.950  1.00  0.00    -0.036 A 
ATOM     86  N   UNL A   1      44.555  23.697  28.210  1.00  0.00    -0.354 N 
ATOM     87  N   UNL A   1      46.159  27.674  30.084  1.00  0.00    -0.248 NA
ATOM     88  C   UNL A   1      45.381  26.904  32.172  1.00  0.00    -0.034 C 
ATOM     89  C   UNL A   1      44.308  23.874  30.388  1.00  0.00    -0.036 A 
ATOM     90  H   UNL A   1      42.887  22.194  30.515  1.00  0.00     0.065 H 
ATOM     91  C   UNL A   1      44.979  24.425  29.290  1.00  0.00     0.049 A 
ATOM     92  H   UNL A   1      44.988  23.651  27.327  1.00  0.00     0.167 HD
ATOM     93  C   UNL A   1      46.174  26.303  30.132  1.00  0.00     0.074 A 
ATOM     94  C   UNL A   1      46.005  25.929  31.518  1.00  0.00    -0.034 C 
ATOM     95  H   UNL A   1      44.927  26.906  33.100  1.00  0.00     0.065 H 
ATOM     96  H   UNL A   1      44.448  24.154  31.372  1.00  0.00     0.065 H 
ATOM     97  C   UNL A   1      45.780  25.597  29.042  1.00  0.00     0.037 A 
ATOM     98  H   UNL A   1      46.321  25.040  31.937  1.00  0.00     0.065 H 
BRANCH  79  99
ATOM     99  C   UNL A   1      42.543  21.863  26.584  1.00  0.00     0.064 A 
ATOM    100  C   UNL A   1      42.073  20.560  26.903  1.00  0.00     0.173 A 
ATOM    101  C   UNL A   1      43.451  21.942  25.523  1.00  0.00     0.173 A 
ATOM    102  F   UNL A   1      41.148  20.376  27.858  1.00  0.00    -0.203 F 
ATOM    103  C   UNL A   1      42.611  19.413  26.322  1.00  0.00     0.198 A 
ATOM    104  C   UNL A   1      43.949  20.790  24.904  1.00  0.00     0.198 A 
ATOM    105  F   UNL A   1      43.956  23.119  25.129  1.00  0.00    -0.203 F 
ATOM    106  F   UNL A   1      42.255  18.203  26.775  1.00  0.00    -0.200 F 
ATOM    107  C   UNL A   1      43.569  19.529  25.336  1.00  0.00     0.200 A 
ATOM    108  F   UNL A   1      44.868  20.903  23.934  1.00  0.00    -0.200 F 
ATOM    109  F   UNL A   1      44.151  18.433  24.830  1.00  0.00    -0.200 F 
ENDBRANCH  79  99
BRANCH  82 110
ATOM    110  C   UNL A   1      45.569  30.145  32.469  1.00  0.00     0.064 A 
ATOM    111  C   UNL A   1      46.753  30.868  32.293  1.00  0.00     0.173 A 
ATOM    112  C   UNL A   1      44.948  30.361  33.739  1.00  0.00     0.173 A 
ATOM    113  F   UNL A   1      47.525  30.674  31.219  1.00  0.00    -0.203 F 
ATOM    114  C   UNL A   1      47.198  31.816  33.239  1.00  0.00     0.198 A 
ATOM    115  C   UNL A   1      45.353  31.337  34.649  1.00  0.00     0.198 A 
ATOM    116  F   UNL A   1      43.907  29.627  34.151  1.00  0.00    -0.203 F 
ATOM    117  F   UNL A   1      48.336  32.491  33.020  1.00  0.00    -0.200 F 
ATOM    118  C   UNL A   1      46.473  32.084  34.389  1.00  0.00     0.200 A 
ATOM    119  F   UNL A   1      44.631  31.552  35.758  1.00  0.00    -0.200 F 
ATOM    120  F   UNL A   1      46.857  33.039  35.246  1.00  0.00    -0.200 F 
ENDBRANCH  82 110
BRANCH  97 121
ATOM    121  C   UNL A   1      45.896  26.362  27.736  1.00  0.00     0.064 A 
ATOM    122  C   UNL A   1      44.739  26.666  27.001  1.00  0.00     0.173 A 
ATOM    123  C   UNL A   1      47.115  26.693  27.118  1.00  0.00     0.173 A 
ATOM    124  F   UNL A   1      43.531  26.406  27.524  1.00  0.00    -0.203 F 
ATOM    125  C   UNL A   1      44.802  27.236  25.726  1.00  0.00     0.198 A 
ATOM    126  C   UNL A   1      47.184  27.268  25.846  1.00  0.00     0.198 A 
ATOM    127  F   UNL A   1      48.272  26.471  27.735  1.00  0.00    -0.203 F 
ATOM    128  F   UNL A   1      43.671  27.503  25.059  1.00  0.00    -0.200 F 
ATOM    129  C   UNL A   1      46.024  27.533  25.146  1.00  0.00     0.200 A 
ATOM    130  F   UNL A   1      48.376  27.565  25.307  1.00  0.00    -0.200 F 
ATOM    131  F   UNL A   1      46.084  28.088  23.927  1.00  0.00    -0.200 F 
ENDBRANCH  97 121
ENDBRANCH  62  65
ENDBRANCH  52  55
ENDBRANCH  48  51
ENDBRANCH  45  48
ENDBRANCH  42  45
ENDBRANCH   1  42
TORSDOF 15
ENDMDL
MODEL 6
REMARK VINA RESULT:     -12.2      4.450      9.475
REMARK SMILES O=C(Cc1cccn1-c1ccc2c(c1)OCCO2)NCCCCCCNC(=O)c1ccc(-c2c3nc(c(-c4c(F)c(F)c(F)c(F)c4F)c4ccc([nH]4)c(-c4c(F)c(F)c(F)c(F)c4F)c4nc(c(-c5c(F)c(F)c(F)c(F)c5F)c5ccc2[nH]5)C=C4)C=C3)cc1
REMARK SMILES IDX 22 1 21 4 20 7 19 10 1 11 2 12 3 14 4 17 5 18 8 19 6 20 7 22
REMARK SMILES IDX 9 25 10 26 14 27 11 28 13 30 12 32 15 34 18 35 16 36 17 37
REMARK SMILES IDX 23 42 24 45 25 48 26 51 27 52 28 54 29 55 30 56 91 57 31 58
REMARK SMILES IDX 90 60 32 62 33 65 34 66 84 67 35 68 89 69 83 70 85 71 36 72
REMARK SMILES IDX 88 73 82 75 81 77 37 79 69 82 49 83 68 84 50 85 53 86 67 87
REMARK SMILES IDX 86 88 51 89 52 91 66 93 87 94 54 97 38 99 39 100 47 101
REMARK SMILES IDX 40 102 41 103 45 104 48 105 42 106 43 107 46 108 44 109
REMARK SMILES IDX 70 110 71 111 79 112 72 113 73 114 77 115 80 116 74 117
REMARK SMILES IDX 75 118 78 119 76 120 55 121 56 122 64 123 57 124 58 125
REMARK SMILES IDX 62 126 65 127 59 128 60 129 63 130 61 131
REMARK H PARENT 22 2 22 3 21 5 21 6 20 8 20 9 19 13 3 15 3 16 5 21 6 23 7 24
REMARK H PARENT 10 29 14 31 11 33 16 38 16 39 17 40 17 41 23 43 23 44 24 46
REMARK H PARENT 24 47 25 49 25 50 26 53 30 59 91 61 31 63 90 64 89 74 83 76
REMARK H PARENT 85 78 88 80 82 81 50 90 53 92 86 95 51 96 87 98
REMARK Flexibility Score: inf
ROOT
ATOM      1  C   UNL A   1      34.885  21.600  26.149  1.00  0.00    -0.052 C 
ATOM      2  H   UNL A   1      34.258  22.210  25.532  1.00  0.00     0.027 H 
ATOM      3  H   UNL A   1      34.755  20.551  25.987  1.00  0.00     0.027 H 
ENDROOT
BRANCH   1   4
ATOM      4  C   UNL A   1      34.500  21.854  27.613  1.00  0.00    -0.036 C 
ATOM      5  H   UNL A   1      34.735  20.975  28.176  1.00  0.00     0.028 H 
ATOM      6  H   UNL A   1      35.052  22.716  27.924  1.00  0.00     0.028 H 
BRANCH   4   7
ATOM      7  C   UNL A   1      33.026  22.183  27.838  1.00  0.00     0.017 C 
ATOM      8  H   UNL A   1      32.573  21.388  28.393  1.00  0.00     0.049 H 
ATOM      9  H   UNL A   1      32.966  23.105  28.378  1.00  0.00     0.049 H 
BRANCH   7  10
ATOM     10  N   UNL A   1      32.324  22.343  26.585  1.00  0.00    -0.356 N 
ATOM     11  O   UNL A   1      31.035  24.131  27.235  1.00  0.00    -0.275 OA
ATOM     12  C   UNL A   1      31.388  23.332  26.373  1.00  0.00     0.225 C 
ATOM     13  H   UNL A   1      32.522  21.716  25.852  1.00  0.00     0.163 HD
BRANCH  12  14
ATOM     14  C   UNL A   1      30.799  23.321  24.973  1.00  0.00     0.067 C 
ATOM     15  H   UNL A   1      30.111  24.136  24.884  1.00  0.00     0.043 H 
ATOM     16  H   UNL A   1      30.314  22.377  24.834  1.00  0.00     0.043 H 
BRANCH  14  17
ATOM     17  C   UNL A   1      31.848  23.457  23.897  1.00  0.00     0.032 A 
ATOM     18  C   UNL A   1      32.380  22.494  23.049  1.00  0.00    -0.040 A 
ATOM     19  N   UNL A   1      32.348  24.688  23.478  1.00  0.00    -0.320 N 
ATOM     20  C   UNL A   1      33.115  23.148  22.041  1.00  0.00    -0.044 A 
ATOM     21  H   UNL A   1      32.257  21.473  23.142  1.00  0.00     0.064 H 
ATOM     22  C   UNL A   1      33.034  24.495  22.296  1.00  0.00     0.009 A 
ATOM     23  H   UNL A   1      33.618  22.700  21.259  1.00  0.00     0.064 H 
ATOM     24  H   UNL A   1      33.423  25.242  21.700  1.00  0.00     0.082 H 
BRANCH  19  25
ATOM     25  C   UNL A   1      32.208  25.948  24.111  1.00  0.00     0.049 A 
ATOM     26  C   UNL A   1      31.143  26.786  23.755  1.00  0.00    -0.034 A 
ATOM     27  C   UNL A   1      33.166  26.375  25.037  1.00  0.00     0.008 A 
ATOM     28  C   UNL A   1      31.017  28.038  24.360  1.00  0.00    -0.014 A 
ATOM     29  H   UNL A   1      30.455  26.480  23.049  1.00  0.00     0.065 H 
ATOM     30  C   UNL A   1      33.041  27.633  25.624  1.00  0.00     0.163 A 
ATOM     31  H   UNL A   1      33.959  25.763  25.284  1.00  0.00     0.069 H 
ATOM     32  C   UNL A   1      31.974  28.467  25.279  1.00  0.00     0.161 A 
ATOM     33  H   UNL A   1      30.216  28.646  24.127  1.00  0.00     0.066 H 
ATOM     34  O   UNL A   1      34.023  27.993  26.512  1.00  0.00    -0.486 OA
ATOM     35  O   UNL A   1      31.807  29.724  25.800  1.00  0.00    -0.486 OA
ATOM     36  C   UNL A   1      33.650  29.145  27.272  1.00  0.00     0.122 C 
ATOM     37  C   UNL A   1      33.024  30.206  26.380  1.00  0.00     0.122 C 
ATOM     38  H   UNL A   1      34.521  29.553  27.741  1.00  0.00     0.074 H 
ATOM     39  H   UNL A   1      32.932  28.851  28.009  1.00  0.00     0.074 H 
ATOM     40  H   UNL A   1      33.712  30.458  25.600  1.00  0.00     0.074 H 
ATOM     41  H   UNL A   1      32.804  31.069  26.975  1.00  0.00     0.074 H 
ENDBRANCH  19  25
ENDBRANCH  14  17
ENDBRANCH  12  14
ENDBRANCH   7  10
ENDBRANCH   4   7
ENDBRANCH   1   4
BRANCH   1  42
ATOM     42  C   UNL A   1      36.343  21.906  25.790  1.00  0.00    -0.052 C 
ATOM     43  H   UNL A   1      36.647  21.220  25.028  1.00  0.00     0.027 H 
ATOM     44  H   UNL A   1      36.900  21.808  26.699  1.00  0.00     0.027 H 
BRANCH  42  45
ATOM     45  C   UNL A   1      36.607  23.329  25.282  1.00  0.00    -0.036 C 
ATOM     46  H   UNL A   1      35.666  23.782  25.044  1.00  0.00     0.028 H 
ATOM     47  H   UNL A   1      37.248  23.240  24.429  1.00  0.00     0.028 H 
BRANCH  45  48
ATOM     48  C   UNL A   1      37.331  24.225  26.287  1.00  0.00     0.018 C 
ATOM     49  H   UNL A   1      36.654  24.488  27.072  1.00  0.00     0.049 H 
ATOM     50  H   UNL A   1      37.674  25.101  25.778  1.00  0.00     0.049 H 
BRANCH  48  51
ATOM     51  N   UNL A   1      38.480  23.544  26.860  1.00  0.00    -0.352 N 
ATOM     52  C   UNL A   1      39.627  24.059  27.405  1.00  0.00     0.251 C 
ATOM     53  H   UNL A   1      38.425  22.561  26.856  1.00  0.00     0.163 HD
ATOM     54  O   UNL A   1      40.626  23.352  27.473  1.00  0.00    -0.269 OA
BRANCH  52  55
ATOM     55  C   UNL A   1      39.690  25.447  27.906  1.00  0.00     0.039 A 
ATOM     56  C   UNL A   1      39.209  25.696  29.199  1.00  0.00    -0.049 A 
ATOM     57  C   UNL A   1      40.105  26.508  27.093  1.00  0.00    -0.049 A 
ATOM     58  C   UNL A   1      39.195  26.995  29.696  1.00  0.00    -0.053 A 
ATOM     59  H   UNL A   1      38.866  24.917  29.781  1.00  0.00     0.063 H 
ATOM     60  C   UNL A   1      40.116  27.807  27.594  1.00  0.00    -0.053 A 
ATOM     61  H   UNL A   1      40.402  26.328  26.122  1.00  0.00     0.063 H 
ATOM     62  C   UNL A   1      39.676  28.044  28.902  1.00  0.00    -0.014 A 
ATOM     63  H   UNL A   1      38.833  27.183  30.644  1.00  0.00     0.063 H 
ATOM     64  H   UNL A   1      40.447  28.587  27.008  1.00  0.00     0.063 H 
BRANCH  62  65
ATOM     65  C   UNL A   1      39.896  29.362  29.538  1.00  0.00     0.031 A 
ATOM     66  C   UNL A   1      38.652  30.274  29.366  1.00  0.00     0.074 A 
ATOM     67  C   UNL A   1      41.116  29.557  30.131  1.00  0.00     0.049 A 
ATOM     68  N   UNL A   1      38.543  31.568  29.363  1.00  0.00    -0.248 NA
ATOM     69  C   UNL A   1      37.326  29.640  29.103  1.00  0.00    -0.034 C 
ATOM     70  C   UNL A   1      42.170  28.523  30.254  1.00  0.00    -0.036 A 
ATOM     71  N   UNL A   1      41.730  30.634  30.741  1.00  0.00    -0.354 N 
ATOM     72  C   UNL A   1      37.163  31.889  29.306  1.00  0.00     0.074 A 
ATOM     73  C   UNL A   1      36.476  30.667  29.033  1.00  0.00    -0.034 C 
ATOM     74  H   UNL A   1      37.114  28.635  28.999  1.00  0.00     0.065 H 
ATOM     75  C   UNL A   1      43.293  29.034  30.807  1.00  0.00    -0.036 A 
ATOM     76  H   UNL A   1      42.063  27.542  29.956  1.00  0.00     0.065 H 
ATOM     77  C   UNL A   1      43.095  30.438  31.107  1.00  0.00     0.049 A 
ATOM     78  H   UNL A   1      41.258  31.480  30.913  1.00  0.00     0.167 HD
ATOM     79  C   UNL A   1      36.667  33.125  29.626  1.00  0.00     0.037 A 
ATOM     80  H   UNL A   1      35.471  30.589  28.815  1.00  0.00     0.065 H 
ATOM     81  H   UNL A   1      44.161  28.504  30.990  1.00  0.00     0.065 H 
ATOM     82  C   UNL A   1      44.008  31.355  31.564  1.00  0.00     0.037 A 
ATOM     83  C   UNL A   1      37.743  34.005  29.918  1.00  0.00     0.049 A 
ATOM     84  C   UNL A   1      43.223  32.577  31.768  1.00  0.00     0.074 A 
ATOM     85  C   UNL A   1      38.668  34.622  29.119  1.00  0.00    -0.036 A 
ATOM     86  N   UNL A   1      38.165  34.051  31.222  1.00  0.00    -0.354 N 
ATOM     87  N   UNL A   1      42.395  32.760  32.752  1.00  0.00    -0.248 NA
ATOM     88  C   UNL A   1      43.290  33.633  30.753  1.00  0.00    -0.034 C 
ATOM     89  C   UNL A   1      39.841  34.573  29.898  1.00  0.00    -0.036 A 
ATOM     90  H   UNL A   1      38.538  35.024  28.178  1.00  0.00     0.065 H 
ATOM     91  C   UNL A   1      39.530  34.159  31.198  1.00  0.00     0.049 A 
ATOM     92  H   UNL A   1      37.593  34.013  32.023  1.00  0.00     0.167 HD
ATOM     93  C   UNL A   1      41.617  33.787  32.279  1.00  0.00     0.074 A 
ATOM     94  C   UNL A   1      42.390  34.467  31.265  1.00  0.00    -0.034 C 
ATOM     95  H   UNL A   1      43.863  33.707  29.897  1.00  0.00     0.065 H 
ATOM     96  H   UNL A   1      40.787  34.809  29.559  1.00  0.00     0.065 H 
ATOM     97  C   UNL A   1      40.266  33.677  32.339  1.00  0.00     0.037 A 
ATOM     98  H   UNL A   1      42.263  35.451  30.982  1.00  0.00     0.065 H 
BRANCH  79  99
ATOM     99  C   UNL A   1      35.286  33.633  29.959  1.00  0.00     0.064 A 
ATOM    100  C   UNL A   1      34.633  34.459  29.005  1.00  0.00     0.173 A 
ATOM    101  C   UNL A   1      34.776  33.681  31.261  1.00  0.00     0.173 A 
ATOM    102  F   UNL A   1      34.997  34.439  27.713  1.00  0.00    -0.203 F 
ATOM    103  C   UNL A   1      33.664  35.392  29.369  1.00  0.00     0.198 A 
ATOM    104  C   UNL A   1      33.763  34.582  31.612  1.00  0.00     0.198 A 
ATOM    105  F   UNL A   1      35.307  32.941  32.242  1.00  0.00    -0.203 F 
ATOM    106  F   UNL A   1      33.198  36.263  28.462  1.00  0.00    -0.200 F 
ATOM    107  C   UNL A   1      33.245  35.469  30.681  1.00  0.00     0.200 A 
ATOM    108  F   UNL A   1      33.344  34.645  32.884  1.00  0.00    -0.200 F 
ATOM    109  F   UNL A   1      32.375  36.416  31.056  1.00  0.00    -0.200 F 
ENDBRANCH  79  99
BRANCH  82 110
ATOM    110  C   UNL A   1      45.500  31.485  31.816  1.00  0.00     0.064 A 
ATOM    111  C   UNL A   1      46.508  31.512  30.846  1.00  0.00     0.173 A 
ATOM    112  C   UNL A   1      45.980  31.685  33.148  1.00  0.00     0.173 A 
ATOM    113  F   UNL A   1      46.245  31.206  29.572  1.00  0.00    -0.203 F 
ATOM    114  C   UNL A   1      47.843  31.842  31.165  1.00  0.00     0.198 A 
ATOM    115  C   UNL A   1      47.285  32.067  33.457  1.00  0.00     0.198 A 
ATOM    116  F   UNL A   1      45.190  31.520  34.217  1.00  0.00    -0.203 F 
ATOM    117  F   UNL A   1      48.771  31.862  30.198  1.00  0.00    -0.200 F 
ATOM    118  C   UNL A   1      48.219  32.165  32.458  1.00  0.00     0.200 A 
ATOM    119  F   UNL A   1      47.610  32.355  34.726  1.00  0.00    -0.200 F 
ATOM    120  F   UNL A   1      49.469  32.553  32.742  1.00  0.00    -0.200 F 
ENDBRANCH  82 110
BRANCH  97 121
ATOM    121  C   UNL A   1      39.772  32.709  33.400  1.00  0.00     0.064 A 
ATOM    122  C   UNL A   1      39.087  31.545  33.016  1.00  0.00     0.173 A 
ATOM    123  C   UNL A   1      39.835  32.952  34.784  1.00  0.00     0.173 A 
ATOM    124  F   UNL A   1      38.998  31.223  31.717  1.00  0.00    -0.203 F 
ATOM    125  C   UNL A   1      38.485  30.699  33.953  1.00  0.00     0.198 A 
ATOM    126  C   UNL A   1      39.240  32.107  35.725  1.00  0.00     0.198 A 
ATOM    127  F   UNL A   1      40.480  34.012  35.259  1.00  0.00    -0.203 F 
ATOM    128  F   UNL A   1      37.836  29.603  33.540  1.00  0.00    -0.200 F 
ATOM    129  C   UNL A   1      38.557  30.983  35.307  1.00  0.00     0.200 A 
ATOM    130  F   UNL A   1      39.335  32.387  37.034  1.00  0.00    -0.200 F 
ATOM    131  F   UNL A   1      37.987  30.166  36.206  1.00  0.00    -0.200 F 
ENDBRANCH  97 121
ENDBRANCH  62  65
ENDBRANCH  52  55
ENDBRANCH  48  51
ENDBRANCH  45  48
ENDBRANCH  42  45
ENDBRANCH   1  42
TORSDOF 15
ENDMDL
MODEL 7
REMARK VINA RESULT:     -12.1      1.442      2.563
REMARK SMILES O=C(Cc1cccn1-c1ccc2c(c1)OCCO2)NCCCCCCNC(=O)c1ccc(-c2c3nc(c(-c4c(F)c(F)c(F)c(F)c4F)c4ccc([nH]4)c(-c4c(F)c(F)c(F)c(F)c4F)c4nc(c(-c5c(F)c(F)c(F)c(F)c5F)c5ccc2[nH]5)C=C4)C=C3)cc1
REMARK SMILES IDX 22 1 21 4 20 7 19 10 1 11 2 12 3 14 4 17 5 18 8 19 6 20 7 22
REMARK SMILES IDX 9 25 10 26 14 27 11 28 13 30 12 32 15 34 18 35 16 36 17 37
REMARK SMILES IDX 23 42 24 45 25 48 26 51 27 52 28 54 29 55 30 56 91 57 31 58
REMARK SMILES IDX 90 60 32 62 33 65 34 66 84 67 35 68 89 69 83 70 85 71 36 72
REMARK SMILES IDX 88 73 82 75 81 77 37 79 69 82 49 83 68 84 50 85 53 86 67 87
REMARK SMILES IDX 86 88 51 89 52 91 66 93 87 94 54 97 38 99 39 100 47 101
REMARK SMILES IDX 40 102 41 103 45 104 48 105 42 106 43 107 46 108 44 109
REMARK SMILES IDX 70 110 71 111 79 112 72 113 73 114 77 115 80 116 74 117
REMARK SMILES IDX 75 118 78 119 76 120 55 121 56 122 64 123 57 124 58 125
REMARK SMILES IDX 62 126 65 127 59 128 60 129 63 130 61 131
REMARK H PARENT 22 2 22 3 21 5 21 6 20 8 20 9 19 13 3 15 3 16 5 21 6 23 7 24
REMARK H PARENT 10 29 14 31 11 33 16 38 16 39 17 40 17 41 23 43 23 44 24 46
REMARK H PARENT 24 47 25 49 25 50 26 53 30 59 91 61 31 63 90 64 89 74 83 76
REMARK H PARENT 85 78 88 80 82 81 50 90 53 92 86 95 51 96 87 98
REMARK Flexibility Score: inf
ROOT
ATOM      1  C   UNL A   1      32.072  27.821  26.209  1.00  0.00    -0.052 C 
ATOM      2  H   UNL A   1      32.517  28.313  27.049  1.00  0.00     0.027 H 
ATOM      3  H   UNL A   1      31.252  28.360  25.782  1.00  0.00     0.027 H 
ENDROOT
BRANCH   1   4
ATOM      4  C   UNL A   1      31.495  26.485  26.694  1.00  0.00    -0.036 C 
ATOM      5  H   UNL A   1      31.929  26.261  27.646  1.00  0.00     0.028 H 
ATOM      6  H   UNL A   1      30.433  26.611  26.732  1.00  0.00     0.028 H 
BRANCH   4   7
ATOM      7  C   UNL A   1      31.754  25.302  25.764  1.00  0.00     0.017 C 
ATOM      8  H   UNL A   1      30.910  24.644  25.794  1.00  0.00     0.049 H 
ATOM      9  H   UNL A   1      31.906  25.679  24.774  1.00  0.00     0.049 H 
BRANCH   7  10
ATOM     10  N   UNL A   1      32.936  24.569  26.158  1.00  0.00    -0.356 N 
ATOM     11  O   UNL A   1      31.859  23.033  27.485  1.00  0.00    -0.275 OA
ATOM     12  C   UNL A   1      32.891  23.464  26.980  1.00  0.00     0.225 C 
ATOM     13  H   UNL A   1      33.811  24.874  25.825  1.00  0.00     0.163 HD
BRANCH  12  14
ATOM     14  C   UNL A   1      34.253  22.843  27.238  1.00  0.00     0.067 C 
ATOM     15  H   UNL A   1      34.129  21.788  27.372  1.00  0.00     0.043 H 
ATOM     16  H   UNL A   1      34.661  23.308  28.111  1.00  0.00     0.043 H 
BRANCH  14  17
ATOM     17  C   UNL A   1      35.223  23.073  26.105  1.00  0.00     0.032 A 
ATOM     18  C   UNL A   1      36.153  24.089  25.924  1.00  0.00    -0.040 A 
ATOM     19  N   UNL A   1      35.435  22.143  25.089  1.00  0.00    -0.320 N 
ATOM     20  C   UNL A   1      37.009  23.724  24.867  1.00  0.00    -0.044 A 
ATOM     21  H   UNL A   1      36.207  24.962  26.473  1.00  0.00     0.064 H 
ATOM     22  C   UNL A   1      36.581  22.503  24.408  1.00  0.00     0.009 A 
ATOM     23  H   UNL A   1      37.806  24.272  24.506  1.00  0.00     0.064 H 
ATOM     24  H   UNL A   1      37.041  21.944  23.673  1.00  0.00     0.082 H 
BRANCH  19  25
ATOM     25  C   UNL A   1      34.651  21.008  24.767  1.00  0.00     0.049 A 
ATOM     26  C   UNL A   1      33.299  21.172  24.439  1.00  0.00    -0.034 A 
ATOM     27  C   UNL A   1      35.212  19.728  24.841  1.00  0.00     0.008 A 
ATOM     28  C   UNL A   1      32.519  20.051  24.144  1.00  0.00    -0.014 A 
ATOM     29  H   UNL A   1      32.881  22.115  24.415  1.00  0.00     0.065 H 
ATOM     30  C   UNL A   1      34.422  18.615  24.561  1.00  0.00     0.163 A 
ATOM     31  H   UNL A   1      36.203  19.610  25.100  1.00  0.00     0.069 H 
ATOM     32  C   UNL A   1      33.075  18.776  24.223  1.00  0.00     0.161 A 
ATOM     33  H   UNL A   1      31.532  20.168  23.869  1.00  0.00     0.066 H 
ATOM     34  O   UNL A   1      35.032  17.391  24.667  1.00  0.00    -0.486 OA
ATOM     35  O   UNL A   1      32.238  17.722  23.962  1.00  0.00    -0.486 OA
ATOM     36  C   UNL A   1      34.242  16.355  24.076  1.00  0.00     0.122 C 
ATOM     37  C   UNL A   1      32.779  16.497  24.467  1.00  0.00     0.122 C 
ATOM     38  H   UNL A   1      34.602  15.404  24.411  1.00  0.00     0.074 H 
ATOM     39  H   UNL A   1      34.320  16.430  23.012  1.00  0.00     0.074 H 
ATOM     40  H   UNL A   1      32.699  16.489  25.534  1.00  0.00     0.074 H 
ATOM     41  H   UNL A   1      32.231  15.679  24.047  1.00  0.00     0.074 H 
ENDBRANCH  19  25
ENDBRANCH  14  17
ENDBRANCH  12  14
ENDBRANCH   7  10
ENDBRANCH   4   7
ENDBRANCH   1   4
BRANCH   1  42
ATOM     42  C   UNL A   1      33.130  27.719  25.106  1.00  0.00    -0.052 C 
ATOM     43  H   UNL A   1      32.693  28.070  24.194  1.00  0.00     0.027 H 
ATOM     44  H   UNL A   1      33.424  26.690  25.070  1.00  0.00     0.027 H 
BRANCH  42  45
ATOM     45  C   UNL A   1      34.415  28.519  25.355  1.00  0.00    -0.036 C 
ATOM     46  H   UNL A   1      34.313  29.475  24.885  1.00  0.00     0.028 H 
ATOM     47  H   UNL A   1      35.222  27.944  24.949  1.00  0.00     0.028 H 
BRANCH  45  48
ATOM     48  C   UNL A   1      34.733  28.742  26.834  1.00  0.00     0.018 C 
ATOM     49  H   UNL A   1      35.533  28.092  27.121  1.00  0.00     0.049 H 
ATOM     50  H   UNL A   1      33.855  28.532  27.407  1.00  0.00     0.049 H 
BRANCH  48  51
ATOM     51  N   UNL A   1      35.128  30.119  27.081  1.00  0.00    -0.352 N 
ATOM     52  C   UNL A   1      36.177  30.616  27.808  1.00  0.00     0.251 C 
ATOM     53  H   UNL A   1      34.553  30.798  26.660  1.00  0.00     0.163 HD
ATOM     54  O   UNL A   1      36.125  31.769  28.220  1.00  0.00    -0.269 OA
BRANCH  52  55
ATOM     55  C   UNL A   1      37.367  29.794  28.112  1.00  0.00     0.039 A 
ATOM     56  C   UNL A   1      38.389  29.749  27.153  1.00  0.00    -0.049 A 
ATOM     57  C   UNL A   1      37.440  28.993  29.256  1.00  0.00    -0.049 A 
ATOM     58  C   UNL A   1      39.505  28.946  27.367  1.00  0.00    -0.053 A 
ATOM     59  H   UNL A   1      38.315  30.310  26.291  1.00  0.00     0.063 H 
ATOM     60  C   UNL A   1      38.565  28.206  29.487  1.00  0.00    -0.053 A 
ATOM     61  H   UNL A   1      36.658  28.984  29.929  1.00  0.00     0.063 H 
ATOM     62  C   UNL A   1      39.603  28.198  28.547  1.00  0.00    -0.014 A 
ATOM     63  H   UNL A   1      40.255  28.903  26.660  1.00  0.00     0.063 H 
ATOM     64  H   UNL A   1      38.633  27.635  30.342  1.00  0.00     0.063 H 
BRANCH  62  65
ATOM     65  C   UNL A   1      40.901  27.566  28.872  1.00  0.00     0.031 A 
ATOM     66  C   UNL A   1      40.966  26.119  28.313  1.00  0.00     0.074 A 
ATOM     67  C   UNL A   1      41.783  28.322  29.598  1.00  0.00     0.049 A 
ATOM     68  N   UNL A   1      41.665  25.093  28.695  1.00  0.00    -0.248 NA
ATOM     69  C   UNL A   1      40.069  25.745  27.179  1.00  0.00    -0.034 C 
ATOM     70  C   UNL A   1      41.564  29.734  29.988  1.00  0.00    -0.036 A 
ATOM     71  N   UNL A   1      43.024  28.084  30.158  1.00  0.00    -0.354 N 
ATOM     72  C   UNL A   1      41.454  24.049  27.759  1.00  0.00     0.074 A 
ATOM     73  C   UNL A   1      40.379  24.472  26.919  1.00  0.00    -0.034 C 
ATOM     74  H   UNL A   1      39.369  26.336  26.704  1.00  0.00     0.065 H 
ATOM     75  C   UNL A   1      42.568  30.187  30.771  1.00  0.00    -0.036 A 
ATOM     76  H   UNL A   1      40.750  30.299  29.701  1.00  0.00     0.065 H 
ATOM     77  C   UNL A   1      43.544  29.134  30.970  1.00  0.00     0.049 A 
ATOM     78  H   UNL A   1      43.517  27.246  30.005  1.00  0.00     0.167 HD
ATOM     79  C   UNL A   1      42.276  22.959  27.654  1.00  0.00     0.037 A 
ATOM     80  H   UNL A   1      39.911  23.882  26.214  1.00  0.00     0.065 H 
ATOM     81  H   UNL A   1      42.632  31.139  31.168  1.00  0.00     0.065 H 
ATOM     82  C   UNL A   1      44.650  29.130  31.784  1.00  0.00     0.037 A 
ATOM     83  C   UNL A   1      43.272  23.019  28.666  1.00  0.00     0.049 A 
ATOM     84  C   UNL A   1      45.301  27.847  31.506  1.00  0.00     0.074 A 
ATOM     85  C   UNL A   1      43.222  22.805  30.017  1.00  0.00    -0.036 A 
ATOM     86  N   UNL A   1      44.431  23.681  28.352  1.00  0.00    -0.354 N 
ATOM     87  N   UNL A   1      45.971  27.584  30.425  1.00  0.00    -0.248 NA
ATOM     88  C   UNL A   1      45.112  26.743  32.453  1.00  0.00    -0.034 C 
ATOM     89  C   UNL A   1      44.102  23.782  30.523  1.00  0.00    -0.036 A 
ATOM     90  H   UNL A   1      42.673  22.103  30.537  1.00  0.00     0.065 H 
ATOM     91  C   UNL A   1      44.815  24.369  29.472  1.00  0.00     0.049 A 
ATOM     92  H   UNL A   1      44.897  23.665  27.485  1.00  0.00     0.167 HD
ATOM     93  C   UNL A   1      45.981  26.212  30.425  1.00  0.00     0.074 A 
ATOM     94  C   UNL A   1      45.759  25.790  31.789  1.00  0.00    -0.034 C 
ATOM     95  H   UNL A   1      44.624  26.714  33.363  1.00  0.00     0.065 H 
ATOM     96  H   UNL A   1      44.205  24.027  31.521  1.00  0.00     0.065 H 
ATOM     97  C   UNL A   1      45.627  25.546  29.297  1.00  0.00     0.037 A 
ATOM     98  H   UNL A   1      46.057  24.886  32.188  1.00  0.00     0.065 H 
BRANCH  79  99
ATOM     99  C   UNL A   1      42.478  21.913  26.586  1.00  0.00     0.064 A 
ATOM    100  C   UNL A   1      42.004  20.598  26.845  1.00  0.00     0.173 A 
ATOM    101  C   UNL A   1      43.420  22.031  25.558  1.00  0.00     0.173 A 
ATOM    102  F   UNL A   1      41.048  20.379  27.763  1.00  0.00    -0.203 F 
ATOM    103  C   UNL A   1      42.564  19.473  26.243  1.00  0.00     0.198 A 
ATOM    104  C   UNL A   1      43.942  20.902  24.916  1.00  0.00     0.198 A 
ATOM    105  F   UNL A   1      43.933  23.222  25.222  1.00  0.00    -0.203 F 
ATOM    106  F   UNL A   1      42.198  18.247  26.642  1.00  0.00    -0.200 F 
ATOM    107  C   UNL A   1      43.552  19.626  25.293  1.00  0.00     0.200 A 
ATOM    108  F   UNL A   1      44.891  21.051  23.981  1.00  0.00    -0.200 F 
ATOM    109  F   UNL A   1      44.154  18.550  24.768  1.00  0.00    -0.200 F 
ENDBRANCH  79  99
BRANCH  82 110
ATOM    110  C   UNL A   1      45.295  29.971  32.872  1.00  0.00     0.064 A 
ATOM    111  C   UNL A   1      44.768  30.237  34.140  1.00  0.00     0.173 A 
ATOM    112  C   UNL A   1      46.608  30.502  32.673  1.00  0.00     0.173 A 
ATOM    113  F   UNL A   1      43.502  29.929  34.438  1.00  0.00    -0.203 F 
ATOM    114  C   UNL A   1      45.533  30.856  35.152  1.00  0.00     0.198 A 
ATOM    115  C   UNL A   1      47.385  31.062  33.687  1.00  0.00     0.198 A 
ATOM    116  F   UNL A   1      47.199  30.497  31.471  1.00  0.00    -0.203 F 
ATOM    117  F   UNL A   1      44.985  31.082  36.355  1.00  0.00    -0.200 F 
ATOM    118  C   UNL A   1      46.853  31.222  34.940  1.00  0.00     0.200 A 
ATOM    119  F   UNL A   1      48.653  31.417  33.433  1.00  0.00    -0.200 F 
ATOM    120  F   UNL A   1      47.598  31.737  35.926  1.00  0.00    -0.200 F 
ENDBRANCH  82 110
BRANCH  97 121
ATOM    121  C   UNL A   1      45.795  26.357  28.024  1.00  0.00     0.064 A 
ATOM    122  C   UNL A   1      47.079  26.746  27.610  1.00  0.00     0.173 A 
ATOM    123  C   UNL A   1      44.728  26.875  27.269  1.00  0.00     0.173 A 
ATOM    124  F   UNL A   1      48.157  26.281  28.258  1.00  0.00    -0.203 F 
ATOM    125  C   UNL A   1      47.276  27.615  26.532  1.00  0.00     0.198 A 
ATOM    126  C   UNL A   1      44.919  27.739  26.187  1.00  0.00     0.198 A 
ATOM    127  F   UNL A   1      43.471  26.552  27.559  1.00  0.00    -0.203 F 
ATOM    128  F   UNL A   1      48.520  27.963  26.176  1.00  0.00    -0.200 F 
ATOM    129  C   UNL A   1      46.196  28.114  25.823  1.00  0.00     0.200 A 
ATOM    130  F   UNL A   1      43.862  28.200  25.500  1.00  0.00    -0.200 F 
ATOM    131  F   UNL A   1      46.386  28.940  24.783  1.00  0.00    -0.200 F 
ENDBRANCH  97 121
ENDBRANCH  62  65
ENDBRANCH  52  55
ENDBRANCH  48  51
ENDBRANCH  45  48
ENDBRANCH  42  45
ENDBRANCH   1  42
TORSDOF 15
ENDMDL
MODEL 8
REMARK VINA RESULT:     -12.0      4.543      9.666
REMARK SMILES O=C(Cc1cccn1-c1ccc2c(c1)OCCO2)NCCCCCCNC(=O)c1ccc(-c2c3nc(c(-c4c(F)c(F)c(F)c(F)c4F)c4ccc([nH]4)c(-c4c(F)c(F)c(F)c(F)c4F)c4nc(c(-c5c(F)c(F)c(F)c(F)c5F)c5ccc2[nH]5)C=C4)C=C3)cc1
REMARK SMILES IDX 22 1 21 4 20 7 19 10 1 11 2 12 3 14 4 17 5 18 8 19 6 20 7 22
REMARK SMILES IDX 9 25 10 26 14 27 11 28 13 30 12 32 15 34 18 35 16 36 17 37
REMARK SMILES IDX 23 42 24 45 25 48 26 51 27 52 28 54 29 55 30 56 91 57 31 58
REMARK SMILES IDX 90 60 32 62 33 65 34 66 84 67 35 68 89 69 83 70 85 71 36 72
REMARK SMILES IDX 88 73 82 75 81 77 37 79 69 82 49 83 68 84 50 85 53 86 67 87
REMARK SMILES IDX 86 88 51 89 52 91 66 93 87 94 54 97 38 99 39 100 47 101
REMARK SMILES IDX 40 102 41 103 45 104 48 105 42 106 43 107 46 108 44 109
REMARK SMILES IDX 70 110 71 111 79 112 72 113 73 114 77 115 80 116 74 117
REMARK SMILES IDX 75 118 78 119 76 120 55 121 56 122 64 123 57 124 58 125
REMARK SMILES IDX 62 126 65 127 59 128 60 129 63 130 61 131
REMARK H PARENT 22 2 22 3 21 5 21 6 20 8 20 9 19 13 3 15 3 16 5 21 6 23 7 24
REMARK H PARENT 10 29 14 31 11 33 16 38 16 39 17 40 17 41 23 43 23 44 24 46
REMARK H PARENT 24 47 25 49 25 50 26 53 30 59 91 61 31 63 90 64 89 74 83 76
REMARK H PARENT 85 78 88 80 82 81 50 90 53 92 86 95 51 96 87 98
REMARK Flexibility Score: inf
ROOT
ATOM      1  C   UNL A   1      35.228  21.184  24.833  1.00  0.00    -0.052 C 
ATOM      2  H   UNL A   1      35.557  21.308  23.823  1.00  0.00     0.027 H 
ATOM      3  H   UNL A   1      35.276  20.173  25.179  1.00  0.00     0.027 H 
ENDROOT
BRANCH   1   4
ATOM      4  C   UNL A   1      33.749  21.587  24.904  1.00  0.00    -0.036 C 
ATOM      5  H   UNL A   1      33.158  20.724  24.678  1.00  0.00     0.028 H 
ATOM      6  H   UNL A   1      33.586  21.964  25.892  1.00  0.00     0.028 H 
BRANCH   4   7
ATOM      7  C   UNL A   1      33.345  22.704  23.945  1.00  0.00     0.017 C 
ATOM      8  H   UNL A   1      34.226  23.122  23.505  1.00  0.00     0.049 H 
ATOM      9  H   UNL A   1      32.706  22.290  23.194  1.00  0.00     0.049 H 
BRANCH   7  10
ATOM     10  N   UNL A   1      32.621  23.751  24.631  1.00  0.00    -0.356 N 
ATOM     11  O   UNL A   1      33.897  25.499  23.858  1.00  0.00    -0.275 OA
ATOM     12  C   UNL A   1      32.944  25.085  24.513  1.00  0.00     0.225 C 
ATOM     13  H   UNL A   1      31.863  23.499  25.208  1.00  0.00     0.163 HD
BRANCH  12  14
ATOM     14  C   UNL A   1      32.030  26.005  25.304  1.00  0.00     0.067 C 
ATOM     15  H   UNL A   1      31.708  25.492  26.187  1.00  0.00     0.043 H 
ATOM     16  H   UNL A   1      31.206  26.263  24.673  1.00  0.00     0.043 H 
BRANCH  14  17
ATOM     17  C   UNL A   1      32.708  27.289  25.714  1.00  0.00     0.032 A 
ATOM     18  C   UNL A   1      33.741  27.498  26.619  1.00  0.00    -0.040 A 
ATOM     19  N   UNL A   1      32.474  28.506  25.079  1.00  0.00    -0.320 N 
ATOM     20  C   UNL A   1      34.216  28.814  26.455  1.00  0.00    -0.044 A 
ATOM     21  H   UNL A   1      34.101  26.805  27.296  1.00  0.00     0.064 H 
ATOM     22  C   UNL A   1      33.458  29.393  25.468  1.00  0.00     0.009 A 
ATOM     23  H   UNL A   1      34.987  29.258  26.979  1.00  0.00     0.064 H 
ATOM     24  H   UNL A   1      33.601  30.338  25.079  1.00  0.00     0.082 H 
BRANCH  19  25
ATOM     25  C   UNL A   1      31.429  28.834  24.180  1.00  0.00     0.049 A 
ATOM     26  C   UNL A   1      31.258  28.080  23.012  1.00  0.00    -0.034 A 
ATOM     27  C   UNL A   1      30.616  29.946  24.430  1.00  0.00     0.008 A 
ATOM     28  C   UNL A   1      30.244  28.417  22.114  1.00  0.00    -0.014 A 
ATOM     29  H   UNL A   1      31.879  27.279  22.816  1.00  0.00     0.065 H 
ATOM     30  C   UNL A   1      29.617  30.285  23.520  1.00  0.00     0.163 A 
ATOM     31  H   UNL A   1      30.756  30.510  25.282  1.00  0.00     0.069 H 
ATOM     32  C   UNL A   1      29.438  29.528  22.358  1.00  0.00     0.161 A 
ATOM     33  H   UNL A   1      30.092  27.845  21.268  1.00  0.00     0.066 H 
ATOM     34  O   UNL A   1      28.868  31.394  23.820  1.00  0.00    -0.486 OA
ATOM     35  O   UNL A   1      28.490  29.822  21.411  1.00  0.00    -0.486 OA
ATOM     36  C   UNL A   1      27.697  31.478  23.002  1.00  0.00     0.122 C 
ATOM     37  C   UNL A   1      28.026  31.169  21.550  1.00  0.00     0.122 C 
ATOM     38  H   UNL A   1      27.294  32.467  23.066  1.00  0.00     0.074 H 
ATOM     39  H   UNL A   1      26.985  30.760  23.350  1.00  0.00     0.074 H 
ATOM     40  H   UNL A   1      28.788  31.841  21.212  1.00  0.00     0.074 H 
ATOM     41  H   UNL A   1      27.139  31.290  20.963  1.00  0.00     0.074 H 
ENDBRANCH  19  25
ENDBRANCH  14  17
ENDBRANCH  12  14
ENDBRANCH   7  10
ENDBRANCH   4   7
ENDBRANCH   1   4
BRANCH   1  42
ATOM     42  C   UNL A   1      36.171  21.984  25.738  1.00  0.00    -0.052 C 
ATOM     43  H   UNL A   1      37.038  21.386  25.924  1.00  0.00     0.027 H 
ATOM     44  H   UNL A   1      35.612  22.212  26.622  1.00  0.00     0.027 H 
BRANCH  42  45
ATOM     45  C   UNL A   1      36.636  23.331  25.170  1.00  0.00    -0.036 C 
ATOM     46  H   UNL A   1      35.779  23.854  24.798  1.00  0.00     0.028 H 
ATOM     47  H   UNL A   1      37.352  23.115  24.404  1.00  0.00     0.028 H 
BRANCH  45  48
ATOM     48  C   UNL A   1      37.339  24.228  26.190  1.00  0.00     0.018 C 
ATOM     49  H   UNL A   1      36.644  24.492  26.961  1.00  0.00     0.049 H 
ATOM     50  H   UNL A   1      37.692  25.103  25.689  1.00  0.00     0.049 H 
BRANCH  48  51
ATOM     51  N   UNL A   1      38.474  23.547  26.789  1.00  0.00    -0.352 N 
ATOM     52  C   UNL A   1      39.610  24.062  27.358  1.00  0.00     0.251 C 
ATOM     53  H   UNL A   1      38.419  22.564  26.784  1.00  0.00     0.163 HD
ATOM     54  O   UNL A   1      40.606  23.354  27.449  1.00  0.00    -0.269 OA
BRANCH  52  55
ATOM     55  C   UNL A   1      39.663  25.451  27.859  1.00  0.00     0.039 A 
ATOM     56  C   UNL A   1      39.159  25.700  29.143  1.00  0.00    -0.049 A 
ATOM     57  C   UNL A   1      40.090  26.512  27.053  1.00  0.00    -0.049 A 
ATOM     58  C   UNL A   1      39.135  26.999  29.639  1.00  0.00    -0.053 A 
ATOM     59  H   UNL A   1      38.807  24.920  29.720  1.00  0.00     0.063 H 
ATOM     60  C   UNL A   1      40.091  27.811  27.553  1.00  0.00    -0.053 A 
ATOM     61  H   UNL A   1      40.403  26.331  26.087  1.00  0.00     0.063 H 
ATOM     62  C   UNL A   1      39.628  28.048  28.852  1.00  0.00    -0.014 A 
ATOM     63  H   UNL A   1      38.757  27.188  30.580  1.00  0.00     0.063 H 
ATOM     64  H   UNL A   1      40.430  28.591  26.971  1.00  0.00     0.063 H 
BRANCH  62  65
ATOM     65  C   UNL A   1      39.835  29.367  29.492  1.00  0.00     0.031 A 
ATOM     66  C   UNL A   1      38.600  30.283  29.283  1.00  0.00     0.074 A 
ATOM     67  C   UNL A   1      41.040  29.558  30.117  1.00  0.00     0.049 A 
ATOM     68  N   UNL A   1      38.496  31.578  29.274  1.00  0.00    -0.248 NA
ATOM     69  C   UNL A   1      37.280  29.653  28.985  1.00  0.00    -0.034 C 
ATOM     70  C   UNL A   1      42.086  28.521  30.272  1.00  0.00    -0.036 A 
ATOM     71  N   UNL A   1      41.641  30.635  30.741  1.00  0.00    -0.354 N 
ATOM     72  C   UNL A   1      37.120  31.904  29.178  1.00  0.00     0.074 A 
ATOM     73  C   UNL A   1      36.436  30.684  28.889  1.00  0.00    -0.034 C 
ATOM     74  H   UNL A   1      37.067  28.649  28.877  1.00  0.00     0.065 H 
ATOM     75  C   UNL A   1      43.195  29.029  30.855  1.00  0.00    -0.036 A 
ATOM     76  H   UNL A   1      41.982  27.540  29.974  1.00  0.00     0.065 H 
ATOM     77  C   UNL A   1      42.994  30.434  31.146  1.00  0.00     0.049 A 
ATOM     78  H   UNL A   1      41.167  31.483  30.898  1.00  0.00     0.167 HD
ATOM     79  C   UNL A   1      36.620  33.142  29.481  1.00  0.00     0.037 A 
ATOM     80  H   UNL A   1      35.437  30.609  28.643  1.00  0.00     0.065 H 
ATOM     81  H   UNL A   1      44.055  28.496  31.063  1.00  0.00     0.065 H 
ATOM     82  C   UNL A   1      43.897  31.350  31.626  1.00  0.00     0.037 A 
ATOM     83  C   UNL A   1      37.691  34.019  29.800  1.00  0.00     0.049 A 
ATOM     84  C   UNL A   1      43.112  32.574  31.805  1.00  0.00     0.074 A 
ATOM     85  C   UNL A   1      38.640  34.631  29.026  1.00  0.00    -0.036 A 
ATOM     86  N   UNL A   1      38.077  34.067  31.115  1.00  0.00    -0.354 N 
ATOM     87  N   UNL A   1      42.258  32.763  32.765  1.00  0.00    -0.248 NA
ATOM     88  C   UNL A   1      43.211  33.628  30.790  1.00  0.00    -0.034 C 
ATOM     89  C   UNL A   1      39.791  34.579  29.837  1.00  0.00    -0.036 A 
ATOM     90  H   UNL A   1      38.537  35.031  28.080  1.00  0.00     0.065 H 
ATOM     91  C   UNL A   1      39.443  34.170  31.129  1.00  0.00     0.049 A 
ATOM     92  H   UNL A   1      37.483  34.033  31.901  1.00  0.00     0.167 HD
ATOM     93  C   UNL A   1      41.498  33.792  32.268  1.00  0.00     0.074 A 
ATOM     94  C   UNL A   1      42.301  34.467  31.274  1.00  0.00    -0.034 C 
ATOM     95  H   UNL A   1      43.809  33.698  29.950  1.00  0.00     0.065 H 
ATOM     96  H   UNL A   1      40.747  34.810  29.524  1.00  0.00     0.065 H 
ATOM     97  C   UNL A   1      40.145  33.687  32.291  1.00  0.00     0.037 A 
ATOM     98  H   UNL A   1      42.185  35.451  30.985  1.00  0.00     0.065 H 
BRANCH  79  99
ATOM     99  C   UNL A   1      35.233  33.657  29.774  1.00  0.00     0.064 A 
ATOM    100  C   UNL A   1      34.631  34.528  28.826  1.00  0.00     0.173 A 
ATOM    101  C   UNL A   1      34.667  33.662  31.054  1.00  0.00     0.173 A 
ATOM    102  F   UNL A   1      35.050  34.553  27.551  1.00  0.00    -0.203 F 
ATOM    103  C   UNL A   1      33.659  35.460  29.185  1.00  0.00     0.198 A 
ATOM    104  C   UNL A   1      33.651  34.562  31.397  1.00  0.00     0.198 A 
ATOM    105  F   UNL A   1      35.147  32.877  32.027  1.00  0.00    -0.203 F 
ATOM    106  F   UNL A   1      33.244  36.371  28.294  1.00  0.00    -0.200 F 
ATOM    107  C   UNL A   1      33.186  35.492  30.480  1.00  0.00     0.200 A 
ATOM    108  F   UNL A   1      33.179  34.582  32.651  1.00  0.00    -0.200 F 
ATOM    109  F   UNL A   1      32.312  36.436  30.855  1.00  0.00    -0.200 F 
ENDBRANCH  79  99
BRANCH  82 110
ATOM    110  C   UNL A   1      45.382  31.474  31.918  1.00  0.00     0.064 A 
ATOM    111  C   UNL A   1      45.971  31.655  33.174  1.00  0.00     0.173 A 
ATOM    112  C   UNL A   1      46.330  31.318  30.858  1.00  0.00     0.173 A 
ATOM    113  F   UNL A   1      45.229  31.951  34.245  1.00  0.00    -0.203 F 
ATOM    114  C   UNL A   1      47.366  31.554  33.368  1.00  0.00     0.198 A 
ATOM    115  C   UNL A   1      47.701  31.161  31.054  1.00  0.00     0.198 A 
ATOM    116  F   UNL A   1      45.956  31.308  29.572  1.00  0.00    -0.203 F 
ATOM    117  F   UNL A   1      47.881  31.727  34.593  1.00  0.00    -0.200 F 
ATOM    118  C   UNL A   1      48.222  31.259  32.319  1.00  0.00     0.200 A 
ATOM    119  F   UNL A   1      48.496  30.892  30.008  1.00  0.00    -0.200 F 
ATOM    120  F   UNL A   1      49.534  31.087  32.521  1.00  0.00    -0.200 F 
ENDBRANCH  82 110
BRANCH  97 121
ATOM    121  C   UNL A   1      39.618  32.724  33.341  1.00  0.00     0.064 A 
ATOM    122  C   UNL A   1      39.826  32.997  34.702  1.00  0.00     0.173 A 
ATOM    123  C   UNL A   1      39.032  31.479  33.050  1.00  0.00     0.173 A 
ATOM    124  F   UNL A   1      40.358  34.171  35.073  1.00  0.00    -0.203 F 
ATOM    125  C   UNL A   1      39.493  32.073  35.699  1.00  0.00     0.198 A 
ATOM    126  C   UNL A   1      38.693  30.556  34.042  1.00  0.00     0.198 A 
ATOM    127  F   UNL A   1      38.769  31.129  31.794  1.00  0.00    -0.203 F 
ATOM    128  F   UNL A   1      39.715  32.374  36.985  1.00  0.00    -0.200 F 
ATOM    129  C   UNL A   1      38.931  30.852  35.369  1.00  0.00     0.200 A 
ATOM    130  F   UNL A   1      38.132  29.384  33.705  1.00  0.00    -0.200 F 
ATOM    131  F   UNL A   1      38.604  29.971  36.326  1.00  0.00    -0.200 F 
ENDBRANCH  97 121
ENDBRANCH  62  65
ENDBRANCH  52  55
ENDBRANCH  48  51
ENDBRANCH  45  48
ENDBRANCH  42  45
ENDBRANCH   1  42
TORSDOF 15
ENDMDL
MODEL 9
REMARK VINA RESULT:     -11.9      4.425      9.036
REMARK SMILES O=C(Cc1cccn1-c1ccc2c(c1)OCCO2)NCCCCCCNC(=O)c1ccc(-c2c3nc(c(-c4c(F)c(F)c(F)c(F)c4F)c4ccc([nH]4)c(-c4c(F)c(F)c(F)c(F)c4F)c4nc(c(-c5c(F)c(F)c(F)c(F)c5F)c5ccc2[nH]5)C=C4)C=C3)cc1
REMARK SMILES IDX 22 1 21 4 20 7 19 10 1 11 2 12 3 14 4 17 5 18 8 19 6 20 7 22
REMARK SMILES IDX 9 25 10 26 14 27 11 28 13 30 12 32 15 34 18 35 16 36 17 37
REMARK SMILES IDX 23 42 24 45 25 48 26 51 27 52 28 54 29 55 30 56 91 57 31 58
REMARK SMILES IDX 90 60 32 62 33 65 34 66 84 67 35 68 89 69 83 70 85 71 36 72
REMARK SMILES IDX 88 73 82 75 81 77 37 79 69 82 49 83 68 84 50 85 53 86 67 87
REMARK SMILES IDX 86 88 51 89 52 91 66 93 87 94 54 97 38 99 39 100 47 101
REMARK SMILES IDX 40 102 41 103 45 104 48 105 42 106 43 107 46 108 44 109
REMARK SMILES IDX 70 110 71 111 79 112 72 113 73 114 77 115 80 116 74 117
REMARK SMILES IDX 75 118 78 119 76 120 55 121 56 122 64 123 57 124 58 125
REMARK SMILES IDX 62 126 65 127 59 128 60 129 63 130 61 131
REMARK H PARENT 22 2 22 3 21 5 21 6 20 8 20 9 19 13 3 15 3 16 5 21 6 23 7 24
REMARK H PARENT 10 29 14 31 11 33 16 38 16 39 17 40 17 41 23 43 23 44 24 46
REMARK H PARENT 24 47 25 49 25 50 26 53 30 59 91 61 31 63 90 64 89 74 83 76
REMARK H PARENT 85 78 88 80 82 81 50 90 53 92 86 95 51 96 87 98
REMARK Flexibility Score: inf
ROOT
ATOM      1  C   UNL A   1      34.480  25.057  25.113  1.00  0.00    -0.052 C 
ATOM      2  H   UNL A   1      35.361  25.260  24.539  1.00  0.00     0.027 H 
ATOM      3  H   UNL A   1      33.654  24.718  24.524  1.00  0.00     0.027 H 
ENDROOT
BRANCH   1   4
ATOM      4  C   UNL A   1      34.026  26.369  25.765  1.00  0.00    -0.036 C 
ATOM      5  H   UNL A   1      33.098  26.187  26.267  1.00  0.00     0.028 H 
ATOM      6  H   UNL A   1      34.813  26.665  26.426  1.00  0.00     0.028 H 
BRANCH   4   7
ATOM      7  C   UNL A   1      33.822  27.529  24.793  1.00  0.00     0.017 C 
ATOM      8  H   UNL A   1      33.636  28.423  25.351  1.00  0.00     0.049 H 
ATOM      9  H   UNL A   1      34.705  27.630  24.199  1.00  0.00     0.049 H 
BRANCH   7  10
ATOM     10  N   UNL A   1      32.704  27.286  23.909  1.00  0.00    -0.356 N 
ATOM     11  O   UNL A   1      33.943  27.021  21.991  1.00  0.00    -0.275 OA
ATOM     12  C   UNL A   1      32.857  27.024  22.564  1.00  0.00     0.225 C 
ATOM     13  H   UNL A   1      31.794  27.308  24.284  1.00  0.00     0.163 HD
BRANCH  12  14
ATOM     14  C   UNL A   1      31.545  26.776  21.840  1.00  0.00     0.067 C 
ATOM     15  H   UNL A   1      31.504  25.746  21.550  1.00  0.00     0.043 H 
ATOM     16  H   UNL A   1      31.515  27.428  20.993  1.00  0.00     0.043 H 
BRANCH  14  17
ATOM     17  C   UNL A   1      30.340  27.084  22.695  1.00  0.00     0.032 A 
ATOM     18  C   UNL A   1      29.486  28.179  22.664  1.00  0.00    -0.040 A 
ATOM     19  N   UNL A   1      29.795  26.169  23.593  1.00  0.00    -0.320 N 
ATOM     20  C   UNL A   1      28.359  27.884  23.456  1.00  0.00    -0.044 A 
ATOM     21  H   UNL A   1      29.649  29.058  22.147  1.00  0.00     0.064 H 
ATOM     22  C   UNL A   1      28.548  26.626  23.970  1.00  0.00     0.009 A 
ATOM     23  H   UNL A   1      27.545  28.499  23.618  1.00  0.00     0.064 H 
ATOM     24  H   UNL A   1      27.868  26.105  24.545  1.00  0.00     0.082 H 
BRANCH  19  25
ATOM     25  C   UNL A   1      30.370  24.965  24.069  1.00  0.00     0.049 A 
ATOM     26  C   UNL A   1      30.510  24.762  25.448  1.00  0.00    -0.034 A 
ATOM     27  C   UNL A   1      30.853  24.015  23.161  1.00  0.00     0.008 A 
ATOM     28  C   UNL A   1      31.098  23.586  25.917  1.00  0.00    -0.014 A 
ATOM     29  H   UNL A   1      30.180  25.479  26.114  1.00  0.00     0.065 H 
ATOM     30  C   UNL A   1      31.454  22.852  23.639  1.00  0.00     0.163 A 
ATOM     31  H   UNL A   1      30.765  24.175  22.146  1.00  0.00     0.069 H 
ATOM     32  C   UNL A   1      31.585  22.642  25.015  1.00  0.00     0.161 A 
ATOM     33  H   UNL A   1      31.173  23.416  26.933  1.00  0.00     0.066 H 
ATOM     34  O   UNL A   1      31.918  21.972  22.694  1.00  0.00    -0.486 OA
ATOM     35  O   UNL A   1      32.188  21.533  25.549  1.00  0.00    -0.486 OA
ATOM     36  C   UNL A   1      32.232  20.699  23.268  1.00  0.00     0.122 C 
ATOM     37  C   UNL A   1      32.995  20.865  24.573  1.00  0.00     0.122 C 
ATOM     38  H   UNL A   1      32.834  20.144  22.579  1.00  0.00     0.074 H 
ATOM     39  H   UNL A   1      31.319  20.180  23.470  1.00  0.00     0.074 H 
ATOM     40  H   UNL A   1      33.878  21.442  24.392  1.00  0.00     0.074 H 
ATOM     41  H   UNL A   1      33.254  19.896  24.944  1.00  0.00     0.074 H 
ENDBRANCH  19  25
ENDBRANCH  14  17
ENDBRANCH  12  14
ENDBRANCH   7  10
ENDBRANCH   4   7
ENDBRANCH   1   4
BRANCH   1  42
ATOM     42  C   UNL A   1      34.802  23.917  26.085  1.00  0.00    -0.052 C 
ATOM     43  H   UNL A   1      34.073  23.146  25.944  1.00  0.00     0.027 H 
ATOM     44  H   UNL A   1      34.784  24.347  27.064  1.00  0.00     0.027 H 
BRANCH  42  45
ATOM     45  C   UNL A   1      36.193  23.290  25.921  1.00  0.00    -0.036 C 
ATOM     46  H   UNL A   1      36.287  22.936  24.915  1.00  0.00     0.028 H 
ATOM     47  H   UNL A   1      36.266  22.503  26.643  1.00  0.00     0.028 H 
BRANCH  45  48
ATOM     48  C   UNL A   1      37.347  24.254  26.200  1.00  0.00     0.018 C 
ATOM     49  H   UNL A   1      37.005  25.027  26.856  1.00  0.00     0.049 H 
ATOM     50  H   UNL A   1      37.677  24.669  25.271  1.00  0.00     0.049 H 
BRANCH  48  51
ATOM     51  N   UNL A   1      38.464  23.564  26.822  1.00  0.00    -0.352 N 
ATOM     52  C   UNL A   1      39.590  24.070  27.417  1.00  0.00     0.251 C 
ATOM     53  H   UNL A   1      38.402  22.581  26.815  1.00  0.00     0.163 HD
ATOM     54  O   UNL A   1      40.580  23.355  27.529  1.00  0.00    -0.269 OA
BRANCH  52  55
ATOM     55  C   UNL A   1      39.642  25.458  27.922  1.00  0.00     0.039 A 
ATOM     56  C   UNL A   1      39.150  25.701  29.212  1.00  0.00    -0.049 A 
ATOM     57  C   UNL A   1      40.056  26.523  27.115  1.00  0.00    -0.049 A 
ATOM     58  C   UNL A   1      39.126  26.998  29.711  1.00  0.00    -0.053 A 
ATOM     59  H   UNL A   1      38.808  24.918  29.791  1.00  0.00     0.063 H 
ATOM     60  C   UNL A   1      40.056  27.820  27.618  1.00  0.00    -0.053 A 
ATOM     61  H   UNL A   1      40.360  26.346  26.144  1.00  0.00     0.063 H 
ATOM     62  C   UNL A   1      39.606  28.052  28.923  1.00  0.00    -0.014 A 
ATOM     63  H   UNL A   1      38.756  27.183  30.657  1.00  0.00     0.063 H 
ATOM     64  H   UNL A   1      40.386  28.604  27.035  1.00  0.00     0.063 H 
BRANCH  62  65
ATOM     65  C   UNL A   1      39.814  29.370  29.564  1.00  0.00     0.031 A 
ATOM     66  C   UNL A   1      38.585  30.292  29.342  1.00  0.00     0.074 A 
ATOM     67  C   UNL A   1      41.013  29.555  30.201  1.00  0.00     0.049 A 
ATOM     68  N   UNL A   1      38.489  31.588  29.332  1.00  0.00    -0.248 NA
ATOM     69  C   UNL A   1      37.265  29.670  29.031  1.00  0.00    -0.034 C 
ATOM     70  C   UNL A   1      42.051  28.513  30.367  1.00  0.00    -0.036 A 
ATOM     71  N   UNL A   1      41.613  30.629  30.831  1.00  0.00    -0.354 N 
ATOM     72  C   UNL A   1      37.115  31.921  29.222  1.00  0.00     0.074 A 
ATOM     73  C   UNL A   1      36.427  30.705  28.927  1.00  0.00    -0.034 C 
ATOM     74  H   UNL A   1      37.048  28.667  28.922  1.00  0.00     0.065 H 
ATOM     75  C   UNL A   1      43.157  29.014  30.961  1.00  0.00    -0.036 A 
ATOM     76  H   UNL A   1      41.946  27.531  30.068  1.00  0.00     0.065 H 
ATOM     77  C   UNL A   1      42.961  30.421  31.249  1.00  0.00     0.049 A 
ATOM     78  H   UNL A   1      41.143  31.480  30.983  1.00  0.00     0.167 HD
ATOM     79  C   UNL A   1      36.619  33.162  29.519  1.00  0.00     0.037 A 
ATOM     80  H   UNL A   1      35.431  30.635  28.670  1.00  0.00     0.065 H 
ATOM     81  H   UNL A   1      44.013  28.477  31.178  1.00  0.00     0.065 H 
ATOM     82  C   UNL A   1      43.864  31.332  31.738  1.00  0.00     0.037 A 
ATOM     83  C   UNL A   1      37.691  34.034  29.849  1.00  0.00     0.049 A 
ATOM     84  C   UNL A   1      43.084  32.561  31.909  1.00  0.00     0.074 A 
ATOM     85  C   UNL A   1      38.651  34.640  29.084  1.00  0.00    -0.036 A 
ATOM     86  N   UNL A   1      38.064  34.080  31.168  1.00  0.00    -0.354 N 
ATOM     87  N   UNL A   1      42.221  32.755  32.860  1.00  0.00    -0.248 NA
ATOM     88  C   UNL A   1      43.199  33.614  30.894  1.00  0.00    -0.034 C 
ATOM     89  C   UNL A   1      39.793  34.582  29.906  1.00  0.00    -0.036 A 
ATOM     90  H   UNL A   1      38.560  35.040  28.137  1.00  0.00     0.065 H 
ATOM     91  C   UNL A   1      39.430  34.175  31.196  1.00  0.00     0.049 A 
ATOM     92  H   UNL A   1      37.462  34.050  31.947  1.00  0.00     0.167 HD
ATOM     93  C   UNL A   1      41.471  33.787  32.356  1.00  0.00     0.074 A 
ATOM     94  C   UNL A   1      42.288  34.457  31.369  1.00  0.00    -0.034 C 
ATOM     95  H   UNL A   1      43.805  33.680  30.060  1.00  0.00     0.065 H 
ATOM     96  H   UNL A   1      40.754  34.808  29.603  1.00  0.00     0.065 H 
ATOM     97  C   UNL A   1      40.118  33.690  32.365  1.00  0.00     0.037 A 
ATOM     98  H   UNL A   1      42.181  35.442  31.078  1.00  0.00     0.065 H 
BRANCH  79  99
ATOM     99  C   UNL A   1      35.231  33.684  29.798  1.00  0.00     0.064 A 
ATOM    100  C   UNL A   1      34.630  34.529  28.827  1.00  0.00     0.173 A 
ATOM    101  C   UNL A   1      34.666  33.725  31.078  1.00  0.00     0.173 A 
ATOM    102  F   UNL A   1      35.049  34.518  27.551  1.00  0.00    -0.203 F 
ATOM    103  C   UNL A   1      33.657  35.470  29.159  1.00  0.00     0.198 A 
ATOM    104  C   UNL A   1      33.650  34.634  31.395  1.00  0.00     0.198 A 
ATOM    105  F   UNL A   1      35.146  32.967  32.072  1.00  0.00    -0.203 F 
ATOM    106  F   UNL A   1      33.242  36.356  28.243  1.00  0.00    -0.200 F 
ATOM    107  C   UNL A   1      33.184  35.538  30.453  1.00  0.00     0.200 A 
ATOM    108  F   UNL A   1      33.178  34.688  32.649  1.00  0.00    -0.200 F 
ATOM    109  F   UNL A   1      32.310  36.492  30.801  1.00  0.00    -0.200 F 
ENDBRANCH  79  99
BRANCH  82 110
ATOM    110  C   UNL A   1      45.347  31.449  32.045  1.00  0.00     0.064 A 
ATOM    111  C   UNL A   1      45.931  31.524  33.314  1.00  0.00     0.173 A 
ATOM    112  C   UNL A   1      46.299  31.401  30.979  1.00  0.00     0.173 A 
ATOM    113  F   UNL A   1      45.182  31.712  34.406  1.00  0.00    -0.203 F 
ATOM    114  C   UNL A   1      47.326  31.423  33.503  1.00  0.00     0.198 A 
ATOM    115  C   UNL A   1      47.671  31.244  31.165  1.00  0.00     0.198 A 
ATOM    116  F   UNL A   1      45.928  31.502  29.695  1.00  0.00    -0.203 F 
ATOM    117  F   UNL A   1      47.836  31.492  34.741  1.00  0.00    -0.200 F 
ATOM    118  C   UNL A   1      48.188  31.235  32.435  1.00  0.00     0.200 A 
ATOM    119  F   UNL A   1      48.472  31.081  30.101  1.00  0.00    -0.200 F 
ATOM    120  F   UNL A   1      49.503  31.062  32.624  1.00  0.00    -0.200 F 
ENDBRANCH  82 110
BRANCH  97 121
ATOM    121  C   UNL A   1      39.575  32.730  33.409  1.00  0.00     0.064 A 
ATOM    122  C   UNL A   1      39.755  33.011  34.773  1.00  0.00     0.173 A 
ATOM    123  C   UNL A   1      39.002  31.480  33.114  1.00  0.00     0.173 A 
ATOM    124  F   UNL A   1      40.275  34.190  35.147  1.00  0.00    -0.203 F 
ATOM    125  C   UNL A   1      39.408  32.092  35.769  1.00  0.00     0.198 A 
ATOM    126  C   UNL A   1      38.647  30.561  34.105  1.00  0.00     0.198 A 
ATOM    127  F   UNL A   1      38.765  31.122  31.856  1.00  0.00    -0.203 F 
ATOM    128  F   UNL A   1      39.602  32.401  37.057  1.00  0.00    -0.200 F 
ATOM    129  C   UNL A   1      38.858  30.866  35.434  1.00  0.00     0.200 A 
ATOM    130  F   UNL A   1      38.099  29.384  33.764  1.00  0.00    -0.200 F 
ATOM    131  F   UNL A   1      38.516  29.988  36.389  1.00  0.00    -0.200 F 
ENDBRANCH  97 121
ENDBRANCH  62  65
ENDBRANCH  52  55
ENDBRANCH  48  51
ENDBRANCH  45  48
ENDBRANCH  42  45
ENDBRANCH   1  42
TORSDOF 15
ENDMDL
MODEL 10
REMARK VINA RESULT:     -11.8      2.971      8.550
REMARK SMILES O=C(Cc1cccn1-c1ccc2c(c1)OCCO2)NCCCCCCNC(=O)c1ccc(-c2c3nc(c(-c4c(F)c(F)c(F)c(F)c4F)c4ccc([nH]4)c(-c4c(F)c(F)c(F)c(F)c4F)c4nc(c(-c5c(F)c(F)c(F)c(F)c5F)c5ccc2[nH]5)C=C4)C=C3)cc1
REMARK SMILES IDX 22 1 21 4 20 7 19 10 1 11 2 12 3 14 4 17 5 18 8 19 6 20 7 22
REMARK SMILES IDX 9 25 10 26 14 27 11 28 13 30 12 32 15 34 18 35 16 36 17 37
REMARK SMILES IDX 23 42 24 45 25 48 26 51 27 52 28 54 29 55 30 56 91 57 31 58
REMARK SMILES IDX 90 60 32 62 33 65 34 66 84 67 35 68 89 69 83 70 85 71 36 72
REMARK SMILES IDX 88 73 82 75 81 77 37 79 69 82 49 83 68 84 50 85 53 86 67 87
REMARK SMILES IDX 86 88 51 89 52 91 66 93 87 94 54 97 38 99 39 100 47 101
REMARK SMILES IDX 40 102 41 103 45 104 48 105 42 106 43 107 46 108 44 109
REMARK SMILES IDX 70 110 71 111 79 112 72 113 73 114 77 115 80 116 74 117
REMARK SMILES IDX 75 118 78 119 76 120 55 121 56 122 64 123 57 124 58 125
REMARK SMILES IDX 62 126 65 127 59 128 60 129 63 130 61 131
REMARK H PARENT 22 2 22 3 21 5 21 6 20 8 20 9 19 13 3 15 3 16 5 21 6 23 7 24
REMARK H PARENT 10 29 14 31 11 33 16 38 16 39 17 40 17 41 23 43 23 44 24 46
REMARK H PARENT 24 47 25 49 25 50 26 53 30 59 91 61 31 63 90 64 89 74 83 76
REMARK H PARENT 85 78 88 80 82 81 50 90 53 92 86 95 51 96 87 98
REMARK Flexibility Score: inf
ROOT
ATOM      1  C   UNL A   1      35.515  30.738  28.845  1.00  0.00    -0.052 C 
ATOM      2  H   UNL A   1      36.531  30.851  29.162  1.00  0.00     0.027 H 
ATOM      3  H   UNL A   1      34.842  30.493  29.640  1.00  0.00     0.027 H 
ENDROOT
BRANCH   1   4
ATOM      4  C   UNL A   1      35.453  29.563  27.861  1.00  0.00    -0.036 C 
ATOM      5  H   UNL A   1      36.308  29.620  27.220  1.00  0.00     0.028 H 
ATOM      6  H   UNL A   1      35.428  28.673  28.455  1.00  0.00     0.028 H 
BRANCH   4   7
ATOM      7  C   UNL A   1      34.203  29.529  26.984  1.00  0.00     0.017 C 
ATOM      8  H   UNL A   1      33.442  30.127  27.440  1.00  0.00     0.049 H 
ATOM      9  H   UNL A   1      34.458  29.910  26.018  1.00  0.00     0.049 H 
BRANCH   7  10
ATOM     10  N   UNL A   1      33.708  28.180  26.824  1.00  0.00    -0.356 N 
ATOM     11  O   UNL A   1      34.027  28.055  24.551  1.00  0.00    -0.275 OA
ATOM     12  C   UNL A   1      33.680  27.533  25.607  1.00  0.00     0.225 C 
ATOM     13  H   UNL A   1      33.376  27.703  27.619  1.00  0.00     0.163 HD
BRANCH  12  14
ATOM     14  C   UNL A   1      33.142  26.115  25.685  1.00  0.00     0.067 C 
ATOM     15  H   UNL A   1      32.115  26.154  25.986  1.00  0.00     0.043 H 
ATOM     16  H   UNL A   1      33.741  25.580  26.391  1.00  0.00     0.043 H 
BRANCH  14  17
ATOM     17  C   UNL A   1      33.229  25.385  24.367  1.00  0.00     0.032 A 
ATOM     18  C   UNL A   1      34.170  24.464  23.924  1.00  0.00    -0.040 A 
ATOM     19  N   UNL A   1      32.218  25.426  23.410  1.00  0.00    -0.320 N 
ATOM     20  C   UNL A   1      33.678  23.857  22.751  1.00  0.00    -0.044 A 
ATOM     21  H   UNL A   1      35.075  24.258  24.377  1.00  0.00     0.064 H 
ATOM     22  C   UNL A   1      32.457  24.426  22.488  1.00  0.00     0.009 A 
ATOM     23  H   UNL A   1      34.148  23.125  22.196  1.00  0.00     0.064 H 
ATOM     24  H   UNL A   1      31.819  24.151  21.725  1.00  0.00     0.082 H 
BRANCH  19  25
ATOM     25  C   UNL A   1      31.115  26.312  23.344  1.00  0.00     0.049 A 
ATOM     26  C   UNL A   1      29.908  25.962  23.964  1.00  0.00    -0.034 A 
ATOM     27  C   UNL A   1      31.215  27.497  22.607  1.00  0.00     0.008 A 
ATOM     28  C   UNL A   1      28.813  26.824  23.879  1.00  0.00    -0.014 A 
ATOM     29  H   UNL A   1      29.829  25.072  24.481  1.00  0.00     0.065 H 
ATOM     30  C   UNL A   1      30.111  28.343  22.513  1.00  0.00     0.163 A 
ATOM     31  H   UNL A   1      32.099  27.743  22.136  1.00  0.00     0.069 H 
ATOM     32  C   UNL A   1      28.909  28.002  23.140  1.00  0.00     0.161 A 
ATOM     33  H   UNL A   1      27.932  26.588  24.362  1.00  0.00     0.066 H 
ATOM     34  O   UNL A   1      30.275  29.480  21.764  1.00  0.00    -0.486 OA
ATOM     35  O   UNL A   1      27.780  28.777  23.067  1.00  0.00    -0.486 OA
ATOM     36  C   UNL A   1      29.210  30.411  21.978  1.00  0.00     0.122 C 
ATOM     37  C   UNL A   1      27.863  29.705  21.980  1.00  0.00     0.122 C 
ATOM     38  H   UNL A   1      29.220  31.142  21.196  1.00  0.00     0.074 H 
ATOM     39  H   UNL A   1      29.351  30.879  22.929  1.00  0.00     0.074 H 
ATOM     40  H   UNL A   1      27.742  29.177  21.056  1.00  0.00     0.074 H 
ATOM     41  H   UNL A   1      27.091  30.438  22.093  1.00  0.00     0.074 H 
ENDBRANCH  19  25
ENDBRANCH  14  17
ENDBRANCH  12  14
ENDBRANCH   7  10
ENDBRANCH   4   7
ENDBRANCH   1   4
BRANCH   1  42
ATOM     42  C   UNL A   1      35.041  32.085  28.291  1.00  0.00    -0.052 C 
ATOM     43  H   UNL A   1      34.299  31.893  27.544  1.00  0.00     0.027 H 
ATOM     44  H   UNL A   1      35.913  32.574  27.909  1.00  0.00     0.027 H 
BRANCH  42  45
ATOM     45  C   UNL A   1      34.436  33.043  29.326  1.00  0.00    -0.036 C 
ATOM     46  H   UNL A   1      33.372  33.037  29.209  1.00  0.00     0.028 H 
ATOM     47  H   UNL A   1      34.865  34.007  29.145  1.00  0.00     0.028 H 
BRANCH  45  48
ATOM     48  C   UNL A   1      34.762  32.679  30.775  1.00  0.00     0.018 C 
ATOM     49  H   UNL A   1      35.283  31.745  30.792  1.00  0.00     0.049 H 
ATOM     50  H   UNL A   1      33.846  32.607  31.322  1.00  0.00     0.049 H 
BRANCH  48  51
ATOM     51  N   UNL A   1      35.592  33.698  31.394  1.00  0.00    -0.352 N 
ATOM     52  C   UNL A   1      36.890  33.631  31.830  1.00  0.00     0.251 C 
ATOM     53  H   UNL A   1      35.155  34.571  31.520  1.00  0.00     0.163 HD
ATOM     54  O   UNL A   1      37.285  34.441  32.659  1.00  0.00    -0.269 OA
BRANCH  52  55
ATOM     55  C   UNL A   1      37.823  32.600  31.327  1.00  0.00     0.039 A 
ATOM     56  C   UNL A   1      38.241  32.696  29.992  1.00  0.00    -0.049 A 
ATOM     57  C   UNL A   1      38.195  31.498  32.104  1.00  0.00    -0.049 A 
ATOM     58  C   UNL A   1      39.074  31.720  29.455  1.00  0.00    -0.053 A 
ATOM     59  H   UNL A   1      37.932  33.489  29.409  1.00  0.00     0.063 H 
ATOM     60  C   UNL A   1      39.049  30.532  31.579  1.00  0.00    -0.053 A 
ATOM     61  H   UNL A   1      37.836  31.401  33.066  1.00  0.00     0.063 H 
ATOM     62  C   UNL A   1      39.499  30.655  30.259  1.00  0.00    -0.014 A 
ATOM     63  H   UNL A   1      39.377  31.782  28.471  1.00  0.00     0.063 H 
ATOM     64  H   UNL A   1      39.347  29.732  32.157  1.00  0.00     0.063 H 
BRANCH  62  65
ATOM     65  C   UNL A   1      40.583  29.783  29.754  1.00  0.00     0.031 A 
ATOM     66  C   UNL A   1      41.917  30.569  29.641  1.00  0.00     0.074 A 
ATOM     67  C   UNL A   1      40.239  28.489  29.462  1.00  0.00     0.049 A 
ATOM     68  N   UNL A   1      42.956  30.371  28.888  1.00  0.00    -0.248 NA
ATOM     69  C   UNL A   1      42.097  31.801  30.463  1.00  0.00    -0.034 C 
ATOM     70  C   UNL A   1      38.904  27.895  29.705  1.00  0.00    -0.036 A 
ATOM     71  N   UNL A   1      40.910  27.414  28.910  1.00  0.00    -0.354 N 
ATOM     72  C   UNL A   1      43.959  31.296  29.276  1.00  0.00     0.074 A 
ATOM     73  C   UNL A   1      43.331  32.219  30.167  1.00  0.00    -0.034 C 
ATOM     74  H   UNL A   1      41.422  32.233  31.114  1.00  0.00     0.065 H 
ATOM     75  C   UNL A   1      38.840  26.628  29.237  1.00  0.00    -0.036 A 
ATOM     76  H   UNL A   1      38.123  28.383  30.169  1.00  0.00     0.065 H 
ATOM     77  C   UNL A   1      40.113  26.260  28.651  1.00  0.00     0.049 A 
ATOM     78  H   UNL A   1      41.873  27.442  28.711  1.00  0.00     0.167 HD
ATOM     79  C   UNL A   1      45.279  31.156  28.941  1.00  0.00     0.037 A 
ATOM     80  H   UNL A   1      43.766  33.081  30.530  1.00  0.00     0.065 H 
ATOM     81  H   UNL A   1      38.011  26.015  29.290  1.00  0.00     0.065 H 
ATOM     82  C   UNL A   1      40.445  25.118  27.964  1.00  0.00     0.037 A 
ATOM     83  C   UNL A   1      45.435  30.023  28.098  1.00  0.00     0.049 A 
ATOM     84  C   UNL A   1      41.878  25.261  27.694  1.00  0.00     0.074 A 
ATOM     85  C   UNL A   1      45.115  29.804  26.785  1.00  0.00    -0.036 A 
ATOM     86  N   UNL A   1      45.664  28.821  28.717  1.00  0.00    -0.354 N 
ATOM     87  N   UNL A   1      42.810  25.114  28.587  1.00  0.00    -0.248 NA
ATOM     88  C   UNL A   1      42.303  25.691  26.358  1.00  0.00    -0.034 C 
ATOM     89  C   UNL A   1      44.675  28.466  26.785  1.00  0.00    -0.036 A 
ATOM     90  H   UNL A   1      45.180  30.459  25.990  1.00  0.00     0.065 H 
ATOM     91  C   UNL A   1      44.968  27.871  28.018  1.00  0.00     0.049 A 
ATOM     92  H   UNL A   1      46.223  28.671  29.513  1.00  0.00     0.167 HD
ATOM     93  C   UNL A   1      43.868  25.760  28.000  1.00  0.00     0.074 A 
ATOM     94  C   UNL A   1      43.611  25.782  26.578  1.00  0.00    -0.034 C 
ATOM     95  H   UNL A   1      41.752  25.869  25.503  1.00  0.00     0.065 H 
ATOM     96  H   UNL A   1      44.207  27.995  25.995  1.00  0.00     0.065 H 
ATOM     97  C   UNL A   1      44.567  26.676  28.717  1.00  0.00     0.037 A 
ATOM     98  H   UNL A   1      44.333  25.857  25.844  1.00  0.00     0.065 H 
BRANCH  79  99
ATOM     99  C   UNL A   1      46.552  31.772  29.465  1.00  0.00     0.064 A 
ATOM    100  C   UNL A   1      47.313  32.582  28.579  1.00  0.00     0.173 A 
ATOM    101  C   UNL A   1      47.229  31.301  30.596  1.00  0.00     0.173 A 
ATOM    102  F   UNL A   1      46.744  33.143  27.499  1.00  0.00    -0.203 F 
ATOM    103  C   UNL A   1      48.688  32.754  28.724  1.00  0.00     0.198 A 
ATOM    104  C   UNL A   1      48.600  31.522  30.767  1.00  0.00     0.198 A 
ATOM    105  F   UNL A   1      46.611  30.534  31.503  1.00  0.00    -0.203 F 
ATOM    106  F   UNL A   1      49.388  33.388  27.773  1.00  0.00    -0.200 F 
ATOM    107  C   UNL A   1      49.336  32.203  29.809  1.00  0.00     0.200 A 
ATOM    108  F   UNL A   1      49.228  31.000  31.831  1.00  0.00    -0.200 F 
ATOM    109  F   UNL A   1      50.669  32.293  29.915  1.00  0.00    -0.200 F 
ENDBRANCH  79  99
BRANCH  82 110
ATOM    110  C   UNL A   1      39.785  23.885  27.371  1.00  0.00     0.064 A 
ATOM    111  C   UNL A   1      38.624  23.857  26.591  1.00  0.00     0.173 A 
ATOM    112  C   UNL A   1      40.408  22.606  27.520  1.00  0.00     0.173 A 
ATOM    113  F   UNL A   1      37.851  24.940  26.468  1.00  0.00    -0.203 F 
ATOM    114  C   UNL A   1      38.206  22.689  25.916  1.00  0.00     0.198 A 
ATOM    115  C   UNL A   1      40.029  21.468  26.810  1.00  0.00     0.198 A 
ATOM    116  F   UNL A   1      41.424  22.409  28.370  1.00  0.00    -0.203 F 
ATOM    117  F   UNL A   1      37.090  22.715  25.173  1.00  0.00    -0.200 F 
ATOM    118  C   UNL A   1      38.933  21.513  25.987  1.00  0.00     0.200 A 
ATOM    119  F   UNL A   1      40.753  20.344  26.921  1.00  0.00    -0.200 F 
ATOM    120  F   UNL A   1      38.576  20.431  25.284  1.00  0.00    -0.200 F 
ENDBRANCH  82 110
BRANCH  97 121
ATOM    121  C   UNL A   1      44.465  26.491  30.221  1.00  0.00     0.064 A 
ATOM    122  C   UNL A   1      44.976  25.325  30.814  1.00  0.00     0.173 A 
ATOM    123  C   UNL A   1      43.767  27.358  31.080  1.00  0.00     0.173 A 
ATOM    124  F   UNL A   1      45.675  24.452  30.074  1.00  0.00    -0.203 F 
ATOM    125  C   UNL A   1      44.777  25.038  32.169  1.00  0.00     0.198 A 
ATOM    126  C   UNL A   1      43.571  27.078  32.435  1.00  0.00     0.198 A 
ATOM    127  F   UNL A   1      43.263  28.501  30.628  1.00  0.00    -0.203 F 
ATOM    128  F   UNL A   1      45.278  23.910  32.691  1.00  0.00    -0.200 F 
ATOM    129  C   UNL A   1      44.071  25.912  32.978  1.00  0.00     0.200 A 
ATOM    130  F   UNL A   1      42.899  27.945  33.209  1.00  0.00    -0.200 F 
ATOM    131  F   UNL A   1      43.888  25.641  34.279  1.00  0.00    -0.200 F 
ENDBRANCH  97 121
ENDBRANCH  62  65
ENDBRANCH  52  55
ENDBRANCH  48  51
ENDBRANCH  45  48
ENDBRANCH  42  45
ENDBRANCH   1  42
TORSDOF 15
ENDMDL
