MODEL 1
REMARK VINA RESULT:     -13.1      0.000      0.000
REMARK SMILES NS(=O)(=O)c1ccc(-c2coc(=O)n2-c2ccc(C(=O)NCCCCCCNC(=O)c3ccc(-c4c5nc(c(-c6c(F)c(F)c(F)c(F)c6F)c6ccc([nH]6)c(-c6c(F)c(F)c(F)c(F)c6F)c6nc(c(-c7c(F)c(F)c(F)c(F)c7F)c7ccc4[nH]7)C=C6)C=C5)cc3)cc2)cc1
REMARK SMILES IDX 23 1 22 4 21 7 19 8 20 9 18 11 15 12 16 13 95 14 17 15 94 17
REMARK SMILES IDX 14 21 9 22 10 23 11 24 12 26 13 27 8 28 5 29 6 30 97 31 7 32
REMARK SMILES IDX 96 34 2 38 3 39 4 40 1 41 24 44 25 47 26 50 27 53 28 56
REMARK SMILES IDX 29 57 30 59 31 60 32 61 93 62 33 63 92 65 34 67 35 70 36 71
REMARK SMILES IDX 86 72 37 73 91 74 85 75 87 76 38 77 90 78 84 80 83 82 39 84
REMARK SMILES IDX 71 87 51 88 70 89 52 90 55 91 69 92 88 93 53 94 54 96 68 98
REMARK SMILES IDX 89 99 56 102 40 104 41 105 49 106 42 107 43 108 47 109
REMARK SMILES IDX 50 110 44 111 45 112 48 113 46 114 72 115 73 116 81 117
REMARK SMILES IDX 74 118 75 119 79 120 82 121 76 122 77 123 80 124 78 125
REMARK SMILES IDX 57 126 58 127 66 128 59 129 60 130 64 131 67 132 61 133
REMARK SMILES IDX 62 134 65 135 63 136
REMARK H PARENT 23 2 23 3 22 5 22 6 21 10 16 16 95 18 17 19 94 20 10 25 6 33
REMARK H PARENT 97 35 7 36 96 37 1 42 1 43 24 45 24 46 25 48 25 49 26 51 26 52
REMARK H PARENT 27 54 27 55 28 58 32 64 93 66 33 68 92 69 91 79 85 81 87 83
REMARK H PARENT 90 85 84 86 52 95 55 97 88 100 53 101 89 103
REMARK Flexibility Score: inf
ROOT
ATOM      1  C   UNL A   1      39.532  20.123  25.755  1.00  0.00    -0.036 C 
ATOM      2  H   UNL A   1      39.972  19.739  24.859  1.00  0.00     0.028 H 
ATOM      3  H   UNL A   1      39.117  19.348  26.367  1.00  0.00     0.028 H 
ENDROOT
BRANCH   1   4
ATOM      4  C   UNL A   1      38.382  21.058  25.370  1.00  0.00     0.018 C 
ATOM      5  H   UNL A   1      38.282  21.073  24.304  1.00  0.00     0.049 H 
ATOM      6  H   UNL A   1      37.479  20.702  25.817  1.00  0.00     0.049 H 
BRANCH   4   7
ATOM      7  N   UNL A   1      38.646  22.403  25.845  1.00  0.00    -0.352 N 
ATOM      8  C   UNL A   1      37.932  23.573  25.806  1.00  0.00     0.251 C 
ATOM      9  O   UNL A   1      38.447  24.565  26.323  1.00  0.00    -0.269 OA
ATOM     10  H   UNL A   1      39.520  22.494  26.288  1.00  0.00     0.163 HD
BRANCH   8  11
ATOM     11  C   UNL A   1      36.557  23.687  25.239  1.00  0.00     0.039 A 
ATOM     12  C   UNL A   1      33.874  23.753  24.383  1.00  0.00     0.053 A 
ATOM     13  C   UNL A   1      34.190  24.084  25.700  1.00  0.00    -0.037 A 
ATOM     14  C   UNL A   1      34.905  23.474  23.481  1.00  0.00    -0.037 A 
ATOM     15  C   UNL A   1      35.520  24.017  26.130  1.00  0.00    -0.047 A 
ATOM     16  H   UNL A   1      33.447  24.379  26.353  1.00  0.00     0.065 H 
ATOM     17  C   UNL A   1      36.239  23.504  23.894  1.00  0.00    -0.047 A 
ATOM     18  H   UNL A   1      34.678  23.244  22.500  1.00  0.00     0.065 H 
ATOM     19  H   UNL A   1      35.744  24.212  27.119  1.00  0.00     0.063 H 
ATOM     20  H   UNL A   1      36.994  23.391  23.199  1.00  0.00     0.063 H 
BRANCH  12  21
ATOM     21  N   UNL A   1      32.538  23.680  23.953  1.00  0.00    -0.242 N 
ATOM     22  C   UNL A   1      31.840  22.577  23.552  1.00  0.00     0.095 A 
ATOM     23  C   UNL A   1      30.669  23.024  23.112  1.00  0.00     0.121 A 
ATOM     24  O   UNL A   1      30.515  24.406  23.195  1.00  0.00    -0.415 OA
ATOM     25  H   UNL A   1      29.936  22.400  22.740  1.00  0.00     0.107 H 
ATOM     26  C   UNL A   1      31.728  24.797  23.765  1.00  0.00     0.424 A 
ATOM     27  O   UNL A   1      31.995  25.967  24.005  1.00  0.00    -0.223 OA
BRANCH  22  28
ATOM     28  C   UNL A   1      32.237  21.188  23.772  1.00  0.00     0.002 A 
ATOM     29  C   UNL A   1      32.982  18.531  24.263  1.00  0.00     0.082 A 
ATOM     30  C   UNL A   1      33.054  19.465  25.294  1.00  0.00    -0.041 A 
ATOM     31  C   UNL A   1      32.536  18.906  22.991  1.00  0.00    -0.041 A 
ATOM     32  C   UNL A   1      32.682  20.789  25.045  1.00  0.00    -0.051 A 
ATOM     33  H   UNL A   1      33.378  19.183  26.232  1.00  0.00     0.064 H 
ATOM     34  C   UNL A   1      32.157  20.232  22.751  1.00  0.00    -0.051 A 
ATOM     35  H   UNL A   1      32.485  18.207  22.233  1.00  0.00     0.064 H 
ATOM     36  H   UNL A   1      32.736  21.483  25.807  1.00  0.00     0.063 H 
ATOM     37  H   UNL A   1      31.819  20.508  21.816  1.00  0.00     0.063 H 
BRANCH  29  38
ATOM     38  S   UNL A   1      33.450  16.853  24.573  1.00  0.00     0.238 S 
ATOM     39  O   UNL A   1      33.676  16.186  23.303  1.00  0.00    -0.207 OA
ATOM     40  O   UNL A   1      32.592  16.321  25.590  1.00  0.00    -0.207 OA
BRANCH  38  41
ATOM     41  N   UNL A   1      34.977  17.005  25.258  1.00  0.00    -0.225 NA
ATOM     42  H   UNL A   1      35.543  16.194  25.010  1.00  0.00     0.137 HD
ATOM     43  H   UNL A   1      34.891  17.062  26.273  1.00  0.00     0.137 HD
ENDBRANCH  38  41
ENDBRANCH  29  38
ENDBRANCH  22  28
ENDBRANCH  12  21
ENDBRANCH   8  11
ENDBRANCH   4   7
ENDBRANCH   1   4
BRANCH   1  44
ATOM     44  C   UNL A   1      40.629  20.809  26.580  1.00  0.00    -0.052 C 
ATOM     45  H   UNL A   1      40.158  21.303  27.405  1.00  0.00     0.027 H 
ATOM     46  H   UNL A   1      41.130  21.472  25.907  1.00  0.00     0.027 H 
BRANCH  44  47
ATOM     47  C   UNL A   1      41.717  19.881  27.144  1.00  0.00    -0.052 C 
ATOM     48  H   UNL A   1      41.306  19.374  27.991  1.00  0.00     0.027 H 
ATOM     49  H   UNL A   1      42.546  20.519  27.371  1.00  0.00     0.027 H 
BRANCH  47  50
ATOM     50  C   UNL A   1      42.270  18.820  26.183  1.00  0.00    -0.036 C 
ATOM     51  H   UNL A   1      42.060  19.131  25.181  1.00  0.00     0.028 H 
ATOM     52  H   UNL A   1      41.794  17.896  26.435  1.00  0.00     0.028 H 
BRANCH  50  53
ATOM     53  C   UNL A   1      43.769  18.591  26.308  1.00  0.00     0.018 C 
ATOM     54  H   UNL A   1      43.936  17.644  26.777  1.00  0.00     0.049 H 
ATOM     55  H   UNL A   1      44.178  19.391  26.890  1.00  0.00     0.049 H 
BRANCH  53  56
ATOM     56  N   UNL A   1      44.437  18.596  25.007  1.00  0.00    -0.352 N 
ATOM     57  C   UNL A   1      44.687  19.658  24.166  1.00  0.00     0.251 C 
ATOM     58  H   UNL A   1      44.750  17.719  24.689  1.00  0.00     0.163 HD
ATOM     59  O   UNL A   1      44.934  19.475  22.979  1.00  0.00    -0.269 OA
BRANCH  57  60
ATOM     60  C   UNL A   1      44.635  21.026  24.708  1.00  0.00     0.039 A 
ATOM     61  C   UNL A   1      43.573  21.874  24.393  1.00  0.00    -0.049 A 
ATOM     62  C   UNL A   1      45.642  21.442  25.571  1.00  0.00    -0.049 A 
ATOM     63  C   UNL A   1      43.486  23.111  25.030  1.00  0.00    -0.053 A 
ATOM     64  H   UNL A   1      42.862  21.591  23.700  1.00  0.00     0.063 H 
ATOM     65  C   UNL A   1      45.477  22.594  26.306  1.00  0.00    -0.053 A 
ATOM     66  H   UNL A   1      46.510  20.890  25.661  1.00  0.00     0.063 H 
ATOM     67  C   UNL A   1      44.426  23.460  26.015  1.00  0.00    -0.014 A 
ATOM     68  H   UNL A   1      42.733  23.769  24.778  1.00  0.00     0.063 H 
ATOM     69  H   UNL A   1      46.132  22.817  27.072  1.00  0.00     0.063 H 
BRANCH  67  70
ATOM     70  C   UNL A   1      44.255  24.697  26.783  1.00  0.00     0.031 A 
ATOM     71  C   UNL A   1      45.289  25.752  26.569  1.00  0.00     0.074 A 
ATOM     72  C   UNL A   1      43.165  24.983  27.527  1.00  0.00     0.049 A 
ATOM     73  N   UNL A   1      46.107  26.247  27.441  1.00  0.00    -0.248 NA
ATOM     74  C   UNL A   1      45.483  26.275  25.208  1.00  0.00    -0.034 C 
ATOM     75  C   UNL A   1      41.910  24.235  27.654  1.00  0.00    -0.036 A 
ATOM     76  N   UNL A   1      42.926  26.099  28.275  1.00  0.00    -0.354 N 
ATOM     77  C   UNL A   1      46.827  27.245  26.787  1.00  0.00     0.074 A 
ATOM     78  C   UNL A   1      46.479  27.145  25.392  1.00  0.00    -0.034 C 
ATOM     79  H   UNL A   1      44.980  26.034  24.340  1.00  0.00     0.065 H 
ATOM     80  C   UNL A   1      40.972  25.015  28.234  1.00  0.00    -0.036 A 
ATOM     81  H   UNL A   1      41.765  23.259  27.349  1.00  0.00     0.065 H 
ATOM     82  C   UNL A   1      41.610  26.234  28.689  1.00  0.00     0.049 A 
ATOM     83  H   UNL A   1      43.627  26.750  28.502  1.00  0.00     0.167 HD
ATOM     84  C   UNL A   1      47.523  28.192  27.478  1.00  0.00     0.037 A 
ATOM     85  H   UNL A   1      46.940  27.675  24.636  1.00  0.00     0.065 H 
ATOM     86  H   UNL A   1      39.972  24.782  28.334  1.00  0.00     0.065 H 
ATOM     87  C   UNL A   1      41.069  27.277  29.359  1.00  0.00     0.037 A 
ATOM     88  C   UNL A   1      47.747  27.788  28.841  1.00  0.00     0.049 A 
ATOM     89  C   UNL A   1      42.174  27.995  30.032  1.00  0.00     0.074 A 
ATOM     90  C   UNL A   1      48.412  26.742  29.451  1.00  0.00    -0.036 A 
ATOM     91  N   UNL A   1      46.957  28.335  29.819  1.00  0.00    -0.354 N 
ATOM     92  N   UNL A   1      42.866  27.505  31.023  1.00  0.00    -0.248 NA
ATOM     93  C   UNL A   1      42.785  29.117  29.339  1.00  0.00    -0.034 C 
ATOM     94  C   UNL A   1      47.620  26.414  30.591  1.00  0.00    -0.036 A 
ATOM     95  H   UNL A   1      49.291  26.294  29.147  1.00  0.00     0.065 H 
ATOM     96  C   UNL A   1      46.550  27.309  30.630  1.00  0.00     0.049 A 
ATOM     97  H   UNL A   1      46.724  29.288  29.919  1.00  0.00     0.167 HD
ATOM     98  C   UNL A   1      44.157  27.956  30.804  1.00  0.00     0.074 A 
ATOM     99  C   UNL A   1      44.022  29.036  29.832  1.00  0.00    -0.034 C 
ATOM    100  H   UNL A   1      42.379  29.783  28.662  1.00  0.00     0.065 H 
ATOM    101  H   UNL A   1      47.804  25.653  31.264  1.00  0.00     0.065 H 
ATOM    102  C   UNL A   1      45.235  27.229  31.221  1.00  0.00     0.037 A 
ATOM    103  H   UNL A   1      44.794  29.664  29.558  1.00  0.00     0.065 H 
BRANCH  84 104
ATOM    104  C   UNL A   1      47.716  29.623  27.033  1.00  0.00     0.064 A 
ATOM    105  C   UNL A   1      49.000  30.206  27.115  1.00  0.00     0.173 A 
ATOM    106  C   UNL A   1      46.653  30.527  26.833  1.00  0.00     0.173 A 
ATOM    107  F   UNL A   1      50.086  29.444  27.316  1.00  0.00    -0.203 F 
ATOM    108  C   UNL A   1      49.187  31.591  27.091  1.00  0.00     0.198 A 
ATOM    109  C   UNL A   1      46.850  31.906  26.757  1.00  0.00     0.198 A 
ATOM    110  F   UNL A   1      45.375  30.128  26.816  1.00  0.00    -0.203 F 
ATOM    111  F   UNL A   1      50.407  32.101  27.307  1.00  0.00    -0.200 F 
ATOM    112  C   UNL A   1      48.110  32.440  26.921  1.00  0.00     0.200 A 
ATOM    113  F   UNL A   1      45.792  32.715  26.607  1.00  0.00    -0.200 F 
ATOM    114  F   UNL A   1      48.277  33.769  26.966  1.00  0.00    -0.200 F 
ENDBRANCH  84 104
BRANCH  87 115
ATOM    115  C   UNL A   1      39.700  27.822  29.252  1.00  0.00     0.064 A 
ATOM    116  C   UNL A   1      38.878  27.943  30.382  1.00  0.00     0.173 A 
ATOM    117  C   UNL A   1      39.279  28.495  28.089  1.00  0.00     0.173 A 
ATOM    118  F   UNL A   1      39.231  27.363  31.539  1.00  0.00    -0.203 F 
ATOM    119  C   UNL A   1      37.718  28.723  30.359  1.00  0.00     0.198 A 
ATOM    120  C   UNL A   1      38.119  29.268  28.066  1.00  0.00     0.198 A 
ATOM    121  F   UNL A   1      40.038  28.497  26.983  1.00  0.00    -0.203 F 
ATOM    122  F   UNL A   1      36.993  28.872  31.477  1.00  0.00    -0.200 F 
ATOM    123  C   UNL A   1      37.346  29.395  29.207  1.00  0.00     0.200 A 
ATOM    124  F   UNL A   1      37.790  29.941  26.955  1.00  0.00    -0.200 F 
ATOM    125  F   UNL A   1      36.273  30.197  29.205  1.00  0.00    -0.200 F 
ENDBRANCH  87 115
BRANCH 102 126
ATOM    126  C   UNL A   1      44.987  26.098  32.179  1.00  0.00     0.064 A 
ATOM    127  C   UNL A   1      44.967  26.239  33.577  1.00  0.00     0.173 A 
ATOM    128  C   UNL A   1      44.628  24.849  31.654  1.00  0.00     0.173 A 
ATOM    129  F   UNL A   1      45.196  27.423  34.155  1.00  0.00    -0.203 F 
ATOM    130  C   UNL A   1      44.651  25.165  34.408  1.00  0.00     0.198 A 
ATOM    131  C   UNL A   1      44.275  23.789  32.484  1.00  0.00     0.198 A 
ATOM    132  F   UNL A   1      44.573  24.670  30.324  1.00  0.00    -0.203 F 
ATOM    133  F   UNL A   1      44.657  25.322  35.741  1.00  0.00    -0.200 F 
ATOM    134  C   UNL A   1      44.300  23.943  33.860  1.00  0.00     0.200 A 
ATOM    135  F   UNL A   1      43.889  22.623  31.948  1.00  0.00    -0.200 F 
ATOM    136  F   UNL A   1      43.959  22.920  34.658  1.00  0.00    -0.200 F 
ENDBRANCH 102 126
ENDBRANCH  67  70
ENDBRANCH  57  60
ENDBRANCH  53  56
ENDBRANCH  50  53
ENDBRANCH  47  50
ENDBRANCH  44  47
ENDBRANCH   1  44
TORSDOF 17
ENDMDL
MODEL 2
REMARK VINA RESULT:     -12.9      2.940      8.706
REMARK SMILES NS(=O)(=O)c1ccc(-c2coc(=O)n2-c2ccc(C(=O)NCCCCCCNC(=O)c3ccc(-c4c5nc(c(-c6c(F)c(F)c(F)c(F)c6F)c6ccc([nH]6)c(-c6c(F)c(F)c(F)c(F)c6F)c6nc(c(-c7c(F)c(F)c(F)c(F)c7F)c7ccc4[nH]7)C=C6)C=C5)cc3)cc2)cc1
REMARK SMILES IDX 23 1 22 4 21 7 19 8 20 9 18 11 15 12 16 13 95 14 17 15 94 17
REMARK SMILES IDX 14 21 9 22 10 23 11 24 12 26 13 27 8 28 5 29 6 30 97 31 7 32
REMARK SMILES IDX 96 34 2 38 3 39 4 40 1 41 24 44 25 47 26 50 27 53 28 56
REMARK SMILES IDX 29 57 30 59 31 60 32 61 93 62 33 63 92 65 34 67 35 70 36 71
REMARK SMILES IDX 86 72 37 73 91 74 85 75 87 76 38 77 90 78 84 80 83 82 39 84
REMARK SMILES IDX 71 87 51 88 70 89 52 90 55 91 69 92 88 93 53 94 54 96 68 98
REMARK SMILES IDX 89 99 56 102 40 104 41 105 49 106 42 107 43 108 47 109
REMARK SMILES IDX 50 110 44 111 45 112 48 113 46 114 72 115 73 116 81 117
REMARK SMILES IDX 74 118 75 119 79 120 82 121 76 122 77 123 80 124 78 125
REMARK SMILES IDX 57 126 58 127 66 128 59 129 60 130 64 131 67 132 61 133
REMARK SMILES IDX 62 134 65 135 63 136
REMARK H PARENT 23 2 23 3 22 5 22 6 21 10 16 16 95 18 17 19 94 20 10 25 6 33
REMARK H PARENT 97 35 7 36 96 37 1 42 1 43 24 45 24 46 25 48 25 49 26 51 26 52
REMARK H PARENT 27 54 27 55 28 58 32 64 93 66 33 68 92 69 91 79 85 81 87 83
REMARK H PARENT 90 85 84 86 52 95 55 97 88 100 53 101 89 103
REMARK Flexibility Score: inf
ROOT
ATOM      1  C   UNL A   1      31.817  27.879  27.178  1.00  0.00    -0.036 C 
ATOM      2  H   UNL A   1      31.545  27.329  28.054  1.00  0.00     0.028 H 
ATOM      3  H   UNL A   1      31.311  28.821  27.117  1.00  0.00     0.028 H 
ENDROOT
BRANCH   1   4
ATOM      4  C   UNL A   1      31.406  27.067  25.946  1.00  0.00     0.018 C 
ATOM      5  H   UNL A   1      30.743  27.653  25.343  1.00  0.00     0.049 H 
ATOM      6  H   UNL A   1      32.281  26.813  25.388  1.00  0.00     0.049 H 
BRANCH   4   7
ATOM      7  N   UNL A   1      30.732  25.847  26.350  1.00  0.00    -0.352 N 
ATOM      8  C   UNL A   1      31.162  24.567  26.586  1.00  0.00     0.251 C 
ATOM      9  O   UNL A   1      30.316  23.743  26.935  1.00  0.00    -0.269 OA
ATOM     10  H   UNL A   1      29.763  25.963  26.481  1.00  0.00     0.163 HD
BRANCH   8  11
ATOM     11  C   UNL A   1      32.591  24.145  26.510  1.00  0.00     0.039 A 
ATOM     12  C   UNL A   1      35.243  23.289  26.100  1.00  0.00     0.053 A 
ATOM     13  C   UNL A   1      34.667  24.205  25.221  1.00  0.00    -0.037 A 
ATOM     14  C   UNL A   1      34.524  22.872  27.224  1.00  0.00    -0.037 A 
ATOM     15  C   UNL A   1      33.338  24.601  25.409  1.00  0.00    -0.047 A 
ATOM     16  H   UNL A   1      35.218  24.589  24.437  1.00  0.00     0.065 H 
ATOM     17  C   UNL A   1      33.232  23.348  27.457  1.00  0.00    -0.047 A 
ATOM     18  H   UNL A   1      34.952  22.206  27.887  1.00  0.00     0.065 H 
ATOM     19  H   UNL A   1      32.897  25.238  24.727  1.00  0.00     0.063 H 
ATOM     20  H   UNL A   1      32.748  23.108  28.337  1.00  0.00     0.063 H 
BRANCH  12  21
ATOM     21  N   UNL A   1      36.528  22.768  25.866  1.00  0.00    -0.242 N 
ATOM     22  C   UNL A   1      36.873  21.484  25.551  1.00  0.00     0.095 A 
ATOM     23  C   UNL A   1      38.200  21.449  25.564  1.00  0.00     0.121 A 
ATOM     24  O   UNL A   1      38.804  22.666  25.871  1.00  0.00    -0.415 OA
ATOM     25  H   UNL A   1      38.739  20.591  25.363  1.00  0.00     0.107 H 
ATOM     26  C   UNL A   1      37.698  23.502  26.036  1.00  0.00     0.424 A 
ATOM     27  O   UNL A   1      37.807  24.687  26.323  1.00  0.00    -0.223 OA
BRANCH  22  28
ATOM     28  C   UNL A   1      35.958  20.442  25.090  1.00  0.00     0.002 A 
ATOM     29  C   UNL A   1      34.241  18.396  24.243  1.00  0.00     0.082 A 
ATOM     30  C   UNL A   1      35.569  18.098  24.543  1.00  0.00    -0.041 A 
ATOM     31  C   UNL A   1      33.758  19.703  24.368  1.00  0.00    -0.041 A 
ATOM     32  C   UNL A   1      36.421  19.121  24.964  1.00  0.00    -0.051 A 
ATOM     33  H   UNL A   1      35.919  17.131  24.455  1.00  0.00     0.064 H 
ATOM     34  C   UNL A   1      34.616  20.722  24.799  1.00  0.00    -0.051 A 
ATOM     35  H   UNL A   1      32.773  19.915  24.145  1.00  0.00     0.064 H 
ATOM     36  H   UNL A   1      37.406  18.903  25.185  1.00  0.00     0.063 H 
ATOM     37  H   UNL A   1      34.259  21.684  24.901  1.00  0.00     0.063 H 
BRANCH  29  38
ATOM     38  S   UNL A   1      33.156  17.104  23.711  1.00  0.00     0.238 S 
ATOM     39  O   UNL A   1      33.698  15.828  24.144  1.00  0.00    -0.207 OA
ATOM     40  O   UNL A   1      32.766  17.365  22.356  1.00  0.00    -0.207 OA
BRANCH  38  41
ATOM     41  N   UNL A   1      31.790  17.337  24.662  1.00  0.00    -0.225 NA
ATOM     42  H   UNL A   1      31.442  18.286  24.529  1.00  0.00     0.137 HD
ATOM     43  H   UNL A   1      32.030  17.197  25.643  1.00  0.00     0.137 HD
ENDBRANCH  38  41
ENDBRANCH  29  38
ENDBRANCH  22  28
ENDBRANCH  12  21
ENDBRANCH   8  11
ENDBRANCH   4   7
ENDBRANCH   1   4
BRANCH   1  44
ATOM     44  C   UNL A   1      33.321  28.180  27.239  1.00  0.00    -0.052 C 
ATOM     45  H   UNL A   1      33.832  27.409  26.699  1.00  0.00     0.027 H 
ATOM     46  H   UNL A   1      33.570  28.217  28.278  1.00  0.00     0.027 H 
BRANCH  44  47
ATOM     47  C   UNL A   1      33.754  29.533  26.653  1.00  0.00    -0.052 C 
ATOM     48  H   UNL A   1      33.373  29.594  25.655  1.00  0.00     0.027 H 
ATOM     49  H   UNL A   1      34.823  29.544  26.719  1.00  0.00     0.027 H 
BRANCH  47  50
ATOM     50  C   UNL A   1      33.286  30.783  27.412  1.00  0.00    -0.036 C 
ATOM     51  H   UNL A   1      32.916  30.477  28.368  1.00  0.00     0.028 H 
ATOM     52  H   UNL A   1      32.535  31.248  26.808  1.00  0.00     0.028 H 
BRANCH  50  53
ATOM     53  C   UNL A   1      34.378  31.820  27.631  1.00  0.00     0.018 C 
ATOM     54  H   UNL A   1      34.233  32.625  26.941  1.00  0.00     0.049 H 
ATOM     55  H   UNL A   1      35.323  31.342  27.478  1.00  0.00     0.049 H 
BRANCH  53  56
ATOM     56  N   UNL A   1      34.361  32.357  28.991  1.00  0.00    -0.352 N 
ATOM     57  C   UNL A   1      35.148  32.013  30.068  1.00  0.00     0.251 C 
ATOM     58  H   UNL A   1      33.695  33.061  29.160  1.00  0.00     0.163 HD
ATOM     59  O   UNL A   1      34.802  32.284  31.212  1.00  0.00    -0.269 OA
BRANCH  57  60
ATOM     60  C   UNL A   1      36.409  31.291  29.829  1.00  0.00     0.039 A 
ATOM     61  C   UNL A   1      37.610  31.987  29.684  1.00  0.00    -0.049 A 
ATOM     62  C   UNL A   1      36.387  29.901  29.790  1.00  0.00    -0.049 A 
ATOM     63  C   UNL A   1      38.800  31.267  29.594  1.00  0.00    -0.053 A 
ATOM     64  H   UNL A   1      37.617  33.018  29.645  1.00  0.00     0.063 H 
ATOM     65  C   UNL A   1      37.569  29.198  29.850  1.00  0.00    -0.053 A 
ATOM     66  H   UNL A   1      35.489  29.398  29.716  1.00  0.00     0.063 H 
ATOM     67  C   UNL A   1      38.783  29.866  29.709  1.00  0.00    -0.014 A 
ATOM     68  H   UNL A   1      39.692  31.762  29.443  1.00  0.00     0.063 H 
ATOM     69  H   UNL A   1      37.557  28.177  29.999  1.00  0.00     0.063 H 
BRANCH  67  70
ATOM     70  C   UNL A   1      40.045  29.122  29.756  1.00  0.00     0.031 A 
ATOM     71  C   UNL A   1      40.639  28.918  31.110  1.00  0.00     0.074 A 
ATOM     72  C   UNL A   1      40.596  28.497  28.693  1.00  0.00     0.049 A 
ATOM     73  N   UNL A   1      41.780  29.346  31.546  1.00  0.00    -0.248 NA
ATOM     74  C   UNL A   1      39.842  28.211  32.124  1.00  0.00    -0.034 C 
ATOM     75  C   UNL A   1      40.054  28.316  27.343  1.00  0.00    -0.036 A 
ATOM     76  N   UNL A   1      41.764  27.792  28.644  1.00  0.00    -0.354 N 
ATOM     77  C   UNL A   1      41.921  28.848  32.841  1.00  0.00     0.074 A 
ATOM     78  C   UNL A   1      40.655  28.249  33.182  1.00  0.00    -0.034 C 
ATOM     79  H   UNL A   1      38.902  27.793  32.039  1.00  0.00     0.065 H 
ATOM     80  C   UNL A   1      40.766  27.373  26.689  1.00  0.00    -0.036 A 
ATOM     81  H   UNL A   1      39.250  28.832  26.950  1.00  0.00     0.065 H 
ATOM     82  C   UNL A   1      41.920  27.030  27.497  1.00  0.00     0.049 A 
ATOM     83  H   UNL A   1      42.437  27.823  29.360  1.00  0.00     0.167 HD
ATOM     84  C   UNL A   1      43.133  28.815  33.464  1.00  0.00     0.037 A 
ATOM     85  H   UNL A   1      40.410  27.897  34.121  1.00  0.00     0.065 H 
ATOM     86  H   UNL A   1      40.528  26.965  25.771  1.00  0.00     0.065 H 
ATOM     87  C   UNL A   1      42.924  26.169  27.220  1.00  0.00     0.037 A 
ATOM     88  C   UNL A   1      44.076  29.692  32.823  1.00  0.00     0.049 A 
ATOM     89  C   UNL A   1      44.078  26.544  28.067  1.00  0.00     0.074 A 
ATOM     90  C   UNL A   1      44.143  31.053  32.594  1.00  0.00    -0.036 A 
ATOM     91  N   UNL A   1      45.019  29.138  31.995  1.00  0.00    -0.354 N 
ATOM     92  N   UNL A   1      44.762  27.645  27.923  1.00  0.00    -0.248 NA
ATOM     93  C   UNL A   1      44.233  25.877  29.350  1.00  0.00    -0.034 C 
ATOM     94  C   UNL A   1      44.747  31.183  31.308  1.00  0.00    -0.036 A 
ATOM     95  H   UNL A   1      43.825  31.811  33.218  1.00  0.00     0.065 H 
ATOM     96  C   UNL A   1      45.053  29.898  30.856  1.00  0.00     0.049 A 
ATOM     97  H   UNL A   1      45.569  28.341  32.183  1.00  0.00     0.167 HD
ATOM     98  C   UNL A   1      45.077  28.032  29.215  1.00  0.00     0.074 A 
ATOM     99  C   UNL A   1      44.834  26.851  30.035  1.00  0.00    -0.034 C 
ATOM    100  H   UNL A   1      43.957  24.926  29.644  1.00  0.00     0.065 H 
ATOM    101  H   UNL A   1      44.926  32.065  30.804  1.00  0.00     0.065 H 
ATOM    102  C   UNL A   1      45.238  29.351  29.532  1.00  0.00     0.037 A 
ATOM    103  H   UNL A   1      45.099  26.776  31.030  1.00  0.00     0.065 H 
BRANCH  84 104
ATOM    104  C   UNL A   1      43.576  27.752  34.443  1.00  0.00     0.064 A 
ATOM    105  C   UNL A   1      43.612  26.403  34.030  1.00  0.00     0.173 A 
ATOM    106  C   UNL A   1      43.661  27.962  35.835  1.00  0.00     0.173 A 
ATOM    107  F   UNL A   1      43.527  26.082  32.729  1.00  0.00    -0.203 F 
ATOM    108  C   UNL A   1      43.637  25.348  34.947  1.00  0.00     0.198 A 
ATOM    109  C   UNL A   1      43.738  26.908  36.744  1.00  0.00     0.198 A 
ATOM    110  F   UNL A   1      43.558  29.182  36.376  1.00  0.00    -0.203 F 
ATOM    111  F   UNL A   1      43.535  24.085  34.512  1.00  0.00    -0.200 F 
ATOM    112  C   UNL A   1      43.691  25.602  36.304  1.00  0.00     0.200 A 
ATOM    113  F   UNL A   1      43.774  27.173  38.058  1.00  0.00    -0.200 F 
ATOM    114  F   UNL A   1      43.646  24.596  37.187  1.00  0.00    -0.200 F 
ENDBRANCH  84 104
BRANCH  87 115
ATOM    115  C   UNL A   1      42.863  24.907  26.454  1.00  0.00     0.064 A 
ATOM    116  C   UNL A   1      43.680  24.700  25.333  1.00  0.00     0.173 A 
ATOM    117  C   UNL A   1      42.208  23.775  26.976  1.00  0.00     0.173 A 
ATOM    118  F   UNL A   1      44.368  25.721  24.801  1.00  0.00    -0.203 F 
ATOM    119  C   UNL A   1      43.858  23.426  24.786  1.00  0.00     0.198 A 
ATOM    120  C   UNL A   1      42.382  22.506  26.426  1.00  0.00     0.198 A 
ATOM    121  F   UNL A   1      41.466  23.864  28.091  1.00  0.00    -0.203 F 
ATOM    122  F   UNL A   1      44.700  23.253  23.757  1.00  0.00    -0.200 F 
ATOM    123  C   UNL A   1      43.220  22.328  25.341  1.00  0.00     0.200 A 
ATOM    124  F   UNL A   1      41.787  21.448  26.995  1.00  0.00    -0.200 F 
ATOM    125  F   UNL A   1      43.446  21.098  24.861  1.00  0.00    -0.200 F 
ENDBRANCH  87 115
BRANCH 102 126
ATOM    126  C   UNL A   1      45.366  30.332  28.402  1.00  0.00     0.064 A 
ATOM    127  C   UNL A   1      44.273  30.937  27.756  1.00  0.00     0.173 A 
ATOM    128  C   UNL A   1      46.647  30.776  28.048  1.00  0.00     0.173 A 
ATOM    129  F   UNL A   1      43.015  30.646  28.107  1.00  0.00    -0.203 F 
ATOM    130  C   UNL A   1      44.461  31.901  26.767  1.00  0.00     0.198 A 
ATOM    131  C   UNL A   1      46.831  31.766  27.088  1.00  0.00     0.198 A 
ATOM    132  F   UNL A   1      47.726  30.277  28.672  1.00  0.00    -0.203 F 
ATOM    133  F   UNL A   1      43.401  32.450  26.153  1.00  0.00    -0.200 F 
ATOM    134  C   UNL A   1      45.739  32.320  26.439  1.00  0.00     0.200 A 
ATOM    135  F   UNL A   1      48.067  32.203  26.809  1.00  0.00    -0.200 F 
ATOM    136  F   UNL A   1      45.919  33.275  25.515  1.00  0.00    -0.200 F 
ENDBRANCH 102 126
ENDBRANCH  67  70
ENDBRANCH  57  60
ENDBRANCH  53  56
ENDBRANCH  50  53
ENDBRANCH  47  50
ENDBRANCH  44  47
ENDBRANCH   1  44
TORSDOF 17
ENDMDL
MODEL 3
REMARK VINA RESULT:     -12.4      4.074      6.381
REMARK SMILES NS(=O)(=O)c1ccc(-c2coc(=O)n2-c2ccc(C(=O)NCCCCCCNC(=O)c3ccc(-c4c5nc(c(-c6c(F)c(F)c(F)c(F)c6F)c6ccc([nH]6)c(-c6c(F)c(F)c(F)c(F)c6F)c6nc(c(-c7c(F)c(F)c(F)c(F)c7F)c7ccc4[nH]7)C=C6)C=C5)cc3)cc2)cc1
REMARK SMILES IDX 23 1 22 4 21 7 19 8 20 9 18 11 15 12 16 13 95 14 17 15 94 17
REMARK SMILES IDX 14 21 9 22 10 23 11 24 12 26 13 27 8 28 5 29 6 30 97 31 7 32
REMARK SMILES IDX 96 34 2 38 3 39 4 40 1 41 24 44 25 47 26 50 27 53 28 56
REMARK SMILES IDX 29 57 30 59 31 60 32 61 93 62 33 63 92 65 34 67 35 70 36 71
REMARK SMILES IDX 86 72 37 73 91 74 85 75 87 76 38 77 90 78 84 80 83 82 39 84
REMARK SMILES IDX 71 87 51 88 70 89 52 90 55 91 69 92 88 93 53 94 54 96 68 98
REMARK SMILES IDX 89 99 56 102 40 104 41 105 49 106 42 107 43 108 47 109
REMARK SMILES IDX 50 110 44 111 45 112 48 113 46 114 72 115 73 116 81 117
REMARK SMILES IDX 74 118 75 119 79 120 82 121 76 122 77 123 80 124 78 125
REMARK SMILES IDX 57 126 58 127 66 128 59 129 60 130 64 131 67 132 61 133
REMARK SMILES IDX 62 134 65 135 63 136
REMARK H PARENT 23 2 23 3 22 5 22 6 21 10 16 16 95 18 17 19 94 20 10 25 6 33
REMARK H PARENT 97 35 7 36 96 37 1 42 1 43 24 45 24 46 25 48 25 49 26 51 26 52
REMARK H PARENT 27 54 27 55 28 58 32 64 93 66 33 68 92 69 91 79 85 81 87 83
REMARK H PARENT 90 85 84 86 52 95 55 97 88 100 53 101 89 103
REMARK Flexibility Score: inf
ROOT
ATOM      1  C   UNL A   1      35.912  22.862  24.563  1.00  0.00    -0.036 C 
ATOM      2  H   UNL A   1      36.531  21.991  24.557  1.00  0.00     0.028 H 
ATOM      3  H   UNL A   1      34.982  22.695  25.066  1.00  0.00     0.028 H 
ENDROOT
BRANCH   1   4
ATOM      4  C   UNL A   1      35.580  23.234  23.116  1.00  0.00     0.018 C 
ATOM      5  H   UNL A   1      35.954  24.216  22.909  1.00  0.00     0.049 H 
ATOM      6  H   UNL A   1      36.035  22.523  22.460  1.00  0.00     0.049 H 
BRANCH   4   7
ATOM      7  N   UNL A   1      34.144  23.217  22.908  1.00  0.00    -0.352 N 
ATOM      8  C   UNL A   1      33.128  24.062  23.275  1.00  0.00     0.251 C 
ATOM      9  O   UNL A   1      31.987  23.760  22.923  1.00  0.00    -0.269 OA
ATOM     10  H   UNL A   1      33.834  22.435  22.396  1.00  0.00     0.163 HD
BRANCH   8  11
ATOM     11  C   UNL A   1      33.341  25.344  24.008  1.00  0.00     0.039 A 
ATOM     12  C   UNL A   1      33.483  27.738  25.486  1.00  0.00     0.053 A 
ATOM     13  C   UNL A   1      33.030  26.570  26.099  1.00  0.00    -0.037 A 
ATOM     14  C   UNL A   1      33.941  27.686  24.166  1.00  0.00    -0.037 A 
ATOM     15  C   UNL A   1      32.928  25.392  25.352  1.00  0.00    -0.047 A 
ATOM     16  H   UNL A   1      32.772  26.576  27.099  1.00  0.00     0.065 H 
ATOM     17  C   UNL A   1      33.928  26.482  23.457  1.00  0.00    -0.047 A 
ATOM     18  H   UNL A   1      34.293  28.544  23.712  1.00  0.00     0.065 H 
ATOM     19  H   UNL A   1      32.543  24.542  25.794  1.00  0.00     0.063 H 
ATOM     20  H   UNL A   1      34.356  26.436  22.519  1.00  0.00     0.063 H 
BRANCH  12  21
ATOM     21  N   UNL A   1      33.471  28.967  26.167  1.00  0.00    -0.242 N 
ATOM     22  C   UNL A   1      32.687  30.059  25.925  1.00  0.00     0.095 A 
ATOM     23  C   UNL A   1      33.132  31.016  26.731  1.00  0.00     0.121 A 
ATOM     24  O   UNL A   1      34.200  30.634  27.540  1.00  0.00    -0.415 OA
ATOM     25  H   UNL A   1      32.721  31.963  26.756  1.00  0.00     0.107 H 
ATOM     26  C   UNL A   1      34.378  29.300  27.170  1.00  0.00     0.424 A 
ATOM     27  O   UNL A   1      35.245  28.590  27.664  1.00  0.00    -0.223 OA
BRANCH  22  28
ATOM     28  C   UNL A   1      31.480  30.078  25.100  1.00  0.00     0.002 A 
ATOM     29  C   UNL A   1      29.174  30.185  23.512  1.00  0.00     0.082 A 
ATOM     30  C   UNL A   1      29.529  31.291  24.282  1.00  0.00    -0.041 A 
ATOM     31  C   UNL A   1      29.961  29.029  23.520  1.00  0.00    -0.041 A 
ATOM     32  C   UNL A   1      30.679  31.233  25.072  1.00  0.00    -0.051 A 
ATOM     33  H   UNL A   1      28.949  32.144  24.268  1.00  0.00     0.064 H 
ATOM     34  C   UNL A   1      31.117  28.980  24.309  1.00  0.00    -0.051 A 
ATOM     35  H   UNL A   1      29.690  28.214  22.947  1.00  0.00     0.064 H 
ATOM     36  H   UNL A   1      30.944  32.050  25.645  1.00  0.00     0.063 H 
ATOM     37  H   UNL A   1      31.703  28.132  24.308  1.00  0.00     0.063 H 
BRANCH  29  38
ATOM     38  S   UNL A   1      27.719  30.253  22.508  1.00  0.00     0.238 S 
ATOM     39  O   UNL A   1      28.092  30.026  21.124  1.00  0.00    -0.207 OA
ATOM     40  O   UNL A   1      26.927  31.373  22.928  1.00  0.00    -0.207 OA
BRANCH  38  41
ATOM     41  N   UNL A   1      26.879  28.870  22.961  1.00  0.00    -0.225 NA
ATOM     42  H   UNL A   1      27.332  28.050  22.559  1.00  0.00     0.137 HD
ATOM     43  H   UNL A   1      25.918  28.928  22.622  1.00  0.00     0.137 HD
ENDBRANCH  38  41
ENDBRANCH  29  38
ENDBRANCH  22  28
ENDBRANCH  12  21
ENDBRANCH   8  11
ENDBRANCH   4   7
ENDBRANCH   1   4
BRANCH   1  44
ATOM     44  C   UNL A   1      36.644  23.974  25.329  1.00  0.00    -0.052 C 
ATOM     45  H   UNL A   1      35.914  24.524  25.886  1.00  0.00     0.027 H 
ATOM     46  H   UNL A   1      37.151  24.554  24.588  1.00  0.00     0.027 H 
BRANCH  44  47
ATOM     47  C   UNL A   1      37.729  23.502  26.310  1.00  0.00    -0.052 C 
ATOM     48  H   UNL A   1      37.240  23.165  27.200  1.00  0.00     0.027 H 
ATOM     49  H   UNL A   1      38.371  24.347  26.453  1.00  0.00     0.027 H 
BRANCH  47  50
ATOM     50  C   UNL A   1      38.645  22.373  25.820  1.00  0.00    -0.036 C 
ATOM     51  H   UNL A   1      39.147  22.706  24.936  1.00  0.00     0.028 H 
ATOM     52  H   UNL A   1      38.020  21.523  25.642  1.00  0.00     0.028 H 
BRANCH  50  53
ATOM     53  C   UNL A   1      39.696  21.942  26.833  1.00  0.00     0.018 C 
ATOM     54  H   UNL A   1      39.487  20.938  27.140  1.00  0.00     0.049 H 
ATOM     55  H   UNL A   1      39.653  22.619  27.660  1.00  0.00     0.049 H 
BRANCH  53  56
ATOM     56  N   UNL A   1      41.048  21.993  26.279  1.00  0.00    -0.352 N 
ATOM     57  C   UNL A   1      41.850  23.090  26.053  1.00  0.00     0.251 C 
ATOM     58  H   UNL A   1      41.438  21.124  26.033  1.00  0.00     0.163 HD
ATOM     59  O   UNL A   1      42.797  23.027  25.279  1.00  0.00    -0.269 OA
BRANCH  57  60
ATOM     60  C   UNL A   1      41.542  24.354  26.743  1.00  0.00     0.039 A 
ATOM     61  C   UNL A   1      42.002  24.587  28.039  1.00  0.00    -0.049 A 
ATOM     62  C   UNL A   1      40.818  25.328  26.063  1.00  0.00    -0.049 A 
ATOM     63  C   UNL A   1      41.806  25.844  28.608  1.00  0.00    -0.053 A 
ATOM     64  H   UNL A   1      42.479  23.841  28.569  1.00  0.00     0.063 H 
ATOM     65  C   UNL A   1      40.757  26.608  26.565  1.00  0.00    -0.053 A 
ATOM     66  H   UNL A   1      40.329  25.092  25.185  1.00  0.00     0.063 H 
ATOM     67  C   UNL A   1      41.209  26.870  27.856  1.00  0.00    -0.014 A 
ATOM     68  H   UNL A   1      42.100  26.021  29.581  1.00  0.00     0.063 H 
ATOM     69  H   UNL A   1      40.376  27.373  25.986  1.00  0.00     0.063 H 
BRANCH  67  70
ATOM     70  C   UNL A   1      41.131  28.227  28.403  1.00  0.00     0.031 A 
ATOM     71  C   UNL A   1      42.186  29.181  27.948  1.00  0.00     0.074 A 
ATOM     72  C   UNL A   1      40.102  28.688  29.146  1.00  0.00     0.049 A 
ATOM     73  N   UNL A   1      43.075  29.782  28.671  1.00  0.00    -0.248 NA
ATOM     74  C   UNL A   1      42.310  29.451  26.508  1.00  0.00    -0.034 C 
ATOM     75  C   UNL A   1      38.833  28.032  29.475  1.00  0.00    -0.036 A 
ATOM     76  N   UNL A   1      39.952  29.926  29.700  1.00  0.00    -0.354 N 
ATOM     77  C   UNL A   1      43.787  30.617  27.812  1.00  0.00     0.074 A 
ATOM     78  C   UNL A   1      43.346  30.293  26.479  1.00  0.00    -0.034 C 
ATOM     79  H   UNL A   1      41.744  29.087  25.726  1.00  0.00     0.065 H 
ATOM     80  C   UNL A   1      37.963  28.943  29.962  1.00  0.00    -0.036 A 
ATOM     81  H   UNL A   1      38.634  27.025  29.355  1.00  0.00     0.065 H 
ATOM     82  C   UNL A   1      38.671  30.191  30.159  1.00  0.00     0.049 A 
ATOM     83  H   UNL A   1      40.688  30.574  29.768  1.00  0.00     0.167 HD
ATOM     84  C   UNL A   1      44.558  31.636  28.285  1.00  0.00     0.037 A 
ATOM     85  H   UNL A   1      43.775  30.663  25.616  1.00  0.00     0.065 H 
ATOM     86  H   UNL A   1      36.963  28.777  30.159  1.00  0.00     0.065 H 
ATOM     87  C   UNL A   1      38.211  31.358  30.665  1.00  0.00     0.037 A 
ATOM     88  C   UNL A   1      44.856  31.464  29.682  1.00  0.00     0.049 A 
ATOM     89  C   UNL A   1      39.382  32.130  31.137  1.00  0.00     0.074 A 
ATOM     90  C   UNL A   1      45.521  30.510  30.427  1.00  0.00    -0.036 A 
ATOM     91  N   UNL A   1      44.150  32.208  30.593  1.00  0.00    -0.354 N 
ATOM     92  N   UNL A   1      40.119  31.788  32.157  1.00  0.00    -0.248 NA
ATOM     93  C   UNL A   1      39.986  33.086  30.224  1.00  0.00    -0.034 C 
ATOM     94  C   UNL A   1      44.794  30.421  31.651  1.00  0.00    -0.036 A 
ATOM     95  H   UNL A   1      46.363  29.977  30.156  1.00  0.00     0.065 H 
ATOM     96  C   UNL A   1      43.761  31.358  31.594  1.00  0.00     0.049 A 
ATOM     97  H   UNL A   1      43.958  33.174  30.538  1.00  0.00     0.167 HD
ATOM     98  C   UNL A   1      41.408  32.135  31.789  1.00  0.00     0.074 A 
ATOM     99  C   UNL A   1      41.249  33.035  30.651  1.00  0.00    -0.034 C 
ATOM    100  H   UNL A   1      39.561  33.643  29.465  1.00  0.00     0.065 H 
ATOM    101  H   UNL A   1      44.994  29.781  32.435  1.00  0.00     0.065 H 
ATOM    102  C   UNL A   1      42.484  31.442  32.265  1.00  0.00     0.037 A 
ATOM    103  H   UNL A   1      42.023  33.570  30.228  1.00  0.00     0.065 H 
BRANCH  84 104
ATOM    104  C   UNL A   1      44.773  32.959  27.586  1.00  0.00     0.064 A 
ATOM    105  C   UNL A   1      46.003  33.208  26.939  1.00  0.00     0.173 A 
ATOM    106  C   UNL A   1      43.957  34.090  27.791  1.00  0.00     0.173 A 
ATOM    107  F   UNL A   1      46.866  32.208  26.701  1.00  0.00    -0.203 F 
ATOM    108  C   UNL A   1      46.419  34.501  26.611  1.00  0.00     0.198 A 
ATOM    109  C   UNL A   1      44.353  35.374  27.415  1.00  0.00     0.198 A 
ATOM    110  F   UNL A   1      42.801  34.019  28.462  1.00  0.00    -0.203 F 
ATOM    111  F   UNL A   1      47.649  34.702  26.121  1.00  0.00    -0.200 F 
ATOM    112  C   UNL A   1      45.596  35.584  26.858  1.00  0.00     0.200 A 
ATOM    113  F   UNL A   1      43.549  36.414  27.677  1.00  0.00    -0.200 F 
ATOM    114  F   UNL A   1      46.018  36.831  26.608  1.00  0.00    -0.200 F 
ENDBRANCH  84 104
BRANCH  87 115
ATOM    115  C   UNL A   1      36.859  31.939  30.543  1.00  0.00     0.064 A 
ATOM    116  C   UNL A   1      36.004  32.025  31.652  1.00  0.00     0.173 A 
ATOM    117  C   UNL A   1      36.489  32.677  29.402  1.00  0.00     0.173 A 
ATOM    118  F   UNL A   1      36.307  31.382  32.789  1.00  0.00    -0.203 F 
ATOM    119  C   UNL A   1      34.862  32.831  31.632  1.00  0.00     0.198 A 
ATOM    120  C   UNL A   1      35.346  33.475  29.381  1.00  0.00     0.198 A 
ATOM    121  F   UNL A   1      37.283  32.714  28.321  1.00  0.00    -0.203 F 
ATOM    122  F   UNL A   1      34.105  32.943  32.732  1.00  0.00    -0.200 F 
ATOM    123  C   UNL A   1      34.541  33.565  30.502  1.00  0.00     0.200 A 
ATOM    124  F   UNL A   1      35.068  34.209  28.294  1.00  0.00    -0.200 F 
ATOM    125  F   UNL A   1      33.486  34.391  30.507  1.00  0.00    -0.200 F 
ENDBRANCH  87 115
BRANCH 102 126
ATOM    126  C   UNL A   1      42.259  30.506  33.418  1.00  0.00     0.064 A 
ATOM    127  C   UNL A   1      42.334  30.888  34.769  1.00  0.00     0.173 A 
ATOM    128  C   UNL A   1      41.824  29.203  33.142  1.00  0.00     0.173 A 
ATOM    129  F   UNL A   1      42.641  32.143  35.116  1.00  0.00    -0.203 F 
ATOM    130  C   UNL A   1      42.035  29.990  35.792  1.00  0.00     0.198 A 
ATOM    131  C   UNL A   1      41.489  28.320  34.164  1.00  0.00     0.198 A 
ATOM    132  F   UNL A   1      41.678  28.799  31.870  1.00  0.00    -0.203 F 
ATOM    133  F   UNL A   1      42.132  30.374  37.075  1.00  0.00    -0.200 F 
ATOM    134  C   UNL A   1      41.607  28.708  35.489  1.00  0.00     0.200 A 
ATOM    135  F   UNL A   1      41.028  27.097  33.865  1.00  0.00    -0.200 F 
ATOM    136  F   UNL A   1      41.282  27.856  36.472  1.00  0.00    -0.200 F 
ENDBRANCH 102 126
ENDBRANCH  67  70
ENDBRANCH  57  60
ENDBRANCH  53  56
ENDBRANCH  50  53
ENDBRANCH  47  50
ENDBRANCH  44  47
ENDBRANCH   1  44
TORSDOF 17
ENDMDL
MODEL 4
REMARK VINA RESULT:     -12.3      5.335     10.878
REMARK SMILES NS(=O)(=O)c1ccc(-c2coc(=O)n2-c2ccc(C(=O)NCCCCCCNC(=O)c3ccc(-c4c5nc(c(-c6c(F)c(F)c(F)c(F)c6F)c6ccc([nH]6)c(-c6c(F)c(F)c(F)c(F)c6F)c6nc(c(-c7c(F)c(F)c(F)c(F)c7F)c7ccc4[nH]7)C=C6)C=C5)cc3)cc2)cc1
REMARK SMILES IDX 23 1 22 4 21 7 19 8 20 9 18 11 15 12 16 13 95 14 17 15 94 17
REMARK SMILES IDX 14 21 9 22 10 23 11 24 12 26 13 27 8 28 5 29 6 30 97 31 7 32
REMARK SMILES IDX 96 34 2 38 3 39 4 40 1 41 24 44 25 47 26 50 27 53 28 56
REMARK SMILES IDX 29 57 30 59 31 60 32 61 93 62 33 63 92 65 34 67 35 70 36 71
REMARK SMILES IDX 86 72 37 73 91 74 85 75 87 76 38 77 90 78 84 80 83 82 39 84
REMARK SMILES IDX 71 87 51 88 70 89 52 90 55 91 69 92 88 93 53 94 54 96 68 98
REMARK SMILES IDX 89 99 56 102 40 104 41 105 49 106 42 107 43 108 47 109
REMARK SMILES IDX 50 110 44 111 45 112 48 113 46 114 72 115 73 116 81 117
REMARK SMILES IDX 74 118 75 119 79 120 82 121 76 122 77 123 80 124 78 125
REMARK SMILES IDX 57 126 58 127 66 128 59 129 60 130 64 131 67 132 61 133
REMARK SMILES IDX 62 134 65 135 63 136
REMARK H PARENT 23 2 23 3 22 5 22 6 21 10 16 16 95 18 17 19 94 20 10 25 6 33
REMARK H PARENT 97 35 7 36 96 37 1 42 1 43 24 45 24 46 25 48 25 49 26 51 26 52
REMARK H PARENT 27 54 27 55 28 58 32 64 93 66 33 68 92 69 91 79 85 81 87 83
REMARK H PARENT 90 85 84 86 52 95 55 97 88 100 53 101 89 103
REMARK Flexibility Score: inf
ROOT
ATOM      1  C   UNL A   1      32.568  32.978  27.349  1.00  0.00    -0.036 C 
ATOM      2  H   UNL A   1      31.714  33.187  27.958  1.00  0.00     0.028 H 
ATOM      3  H   UNL A   1      32.549  33.521  26.426  1.00  0.00     0.028 H 
ENDROOT
BRANCH   1   4
ATOM      4  C   UNL A   1      32.561  31.488  26.996  1.00  0.00     0.018 C 
ATOM      5  H   UNL A   1      31.661  31.042  27.364  1.00  0.00     0.049 H 
ATOM      6  H   UNL A   1      32.615  31.382  25.934  1.00  0.00     0.049 H 
BRANCH   4   7
ATOM      7  N   UNL A   1      33.704  30.824  27.596  1.00  0.00    -0.352 N 
ATOM      8  C   UNL A   1      34.137  29.523  27.610  1.00  0.00     0.251 C 
ATOM      9  O   UNL A   1      35.180  29.283  28.219  1.00  0.00    -0.269 OA
ATOM     10  H   UNL A   1      34.291  31.436  28.097  1.00  0.00     0.163 HD
BRANCH   8  11
ATOM     11  C   UNL A   1      33.456  28.414  26.881  1.00  0.00     0.039 A 
ATOM     12  C   UNL A   1      32.223  26.459  25.272  1.00  0.00     0.053 A 
ATOM     13  C   UNL A   1      33.501  26.914  24.952  1.00  0.00    -0.037 A 
ATOM     14  C   UNL A   1      31.603  26.918  26.438  1.00  0.00    -0.037 A 
ATOM     15  C   UNL A   1      34.095  27.911  25.734  1.00  0.00    -0.047 A 
ATOM     16  H   UNL A   1      34.006  26.518  24.144  1.00  0.00     0.065 H 
ATOM     17  C   UNL A   1      32.245  27.841  27.267  1.00  0.00    -0.047 A 
ATOM     18  H   UNL A   1      30.663  26.571  26.688  1.00  0.00     0.065 H 
ATOM     19  H   UNL A   1      35.019  28.283  25.465  1.00  0.00     0.063 H 
ATOM     20  H   UNL A   1      31.820  28.099  28.172  1.00  0.00     0.063 H 
BRANCH  12  21
ATOM     21  N   UNL A   1      31.542  25.558  24.434  1.00  0.00    -0.242 N 
ATOM     22  C   UNL A   1      30.443  25.794  23.658  1.00  0.00     0.095 A 
ATOM     23  C   UNL A   1      30.086  24.615  23.161  1.00  0.00     0.121 A 
ATOM     24  O   UNL A   1      30.902  23.556  23.554  1.00  0.00    -0.415 OA
ATOM     25  H   UNL A   1      29.273  24.494  22.536  1.00  0.00     0.107 H 
ATOM     26  C   UNL A   1      31.846  24.202  24.354  1.00  0.00     0.424 A 
ATOM     27  O   UNL A   1      32.760  23.603  24.906  1.00  0.00    -0.223 OA
BRANCH  22  28
ATOM     28  C   UNL A   1      29.918  27.109  23.297  1.00  0.00     0.002 A 
ATOM     29  C   UNL A   1      28.862  29.625  22.657  1.00  0.00     0.082 A 
ATOM     30  C   UNL A   1      28.033  28.654  23.215  1.00  0.00    -0.041 A 
ATOM     31  C   UNL A   1      30.215  29.356  22.421  1.00  0.00    -0.041 A 
ATOM     32  C   UNL A   1      28.563  27.402  23.532  1.00  0.00    -0.051 A 
ATOM     33  H   UNL A   1      27.037  28.859  23.393  1.00  0.00     0.064 H 
ATOM     34  C   UNL A   1      30.741  28.101  22.749  1.00  0.00    -0.051 A 
ATOM     35  H   UNL A   1      30.822  30.081  22.008  1.00  0.00     0.064 H 
ATOM     36  H   UNL A   1      27.950  26.680  23.945  1.00  0.00     0.063 H 
ATOM     37  H   UNL A   1      31.741  27.905  22.585  1.00  0.00     0.063 H 
BRANCH  29  38
ATOM     38  S   UNL A   1      28.197  31.213  22.254  1.00  0.00     0.238 S 
ATOM     39  O   UNL A   1      27.288  31.624  23.311  1.00  0.00    -0.207 OA
ATOM     40  O   UNL A   1      27.832  31.217  20.868  1.00  0.00    -0.207 OA
BRANCH  38  41
ATOM     41  N   UNL A   1      29.524  32.233  22.409  1.00  0.00    -0.225 NA
ATOM     42  H   UNL A   1      30.375  31.675  22.481  1.00  0.00     0.137 HD
ATOM     43  H   UNL A   1      29.420  32.804  23.247  1.00  0.00     0.137 HD
ENDBRANCH  38  41
ENDBRANCH  29  38
ENDBRANCH  22  28
ENDBRANCH  12  21
ENDBRANCH   8  11
ENDBRANCH   4   7
ENDBRANCH   1   4
BRANCH   1  44
ATOM     44  C   UNL A   1      33.826  33.423  28.107  1.00  0.00    -0.052 C 
ATOM     45  H   UNL A   1      34.636  32.797  27.793  1.00  0.00     0.027 H 
ATOM     46  H   UNL A   1      33.588  33.335  29.145  1.00  0.00     0.027 H 
BRANCH  44  47
ATOM     47  C   UNL A   1      34.249  34.886  27.895  1.00  0.00    -0.052 C 
ATOM     48  H   UNL A   1      33.941  35.175  26.912  1.00  0.00     0.027 H 
ATOM     49  H   UNL A   1      35.309  34.901  28.047  1.00  0.00     0.027 H 
BRANCH  47  50
ATOM     50  C   UNL A   1      33.679  35.909  28.886  1.00  0.00    -0.036 C 
ATOM     51  H   UNL A   1      33.048  36.584  28.347  1.00  0.00     0.028 H 
ATOM     52  H   UNL A   1      34.514  36.399  29.340  1.00  0.00     0.028 H 
BRANCH  50  53
ATOM     53  C   UNL A   1      32.864  35.292  30.014  1.00  0.00     0.018 C 
ATOM     54  H   UNL A   1      33.272  34.330  30.247  1.00  0.00     0.049 H 
ATOM     55  H   UNL A   1      31.849  35.214  29.683  1.00  0.00     0.049 H 
BRANCH  53  56
ATOM     56  N   UNL A   1      32.883  36.116  31.221  1.00  0.00    -0.352 N 
ATOM     57  C   UNL A   1      33.554  35.903  32.405  1.00  0.00     0.251 C 
ATOM     58  H   UNL A   1      32.339  36.936  31.183  1.00  0.00     0.163 HD
ATOM     59  O   UNL A   1      33.212  36.475  33.433  1.00  0.00    -0.269 OA
BRANCH  57  60
ATOM     60  C   UNL A   1      34.682  34.957  32.426  1.00  0.00     0.039 A 
ATOM     61  C   UNL A   1      34.579  33.714  31.800  1.00  0.00    -0.049 A 
ATOM     62  C   UNL A   1      35.866  35.342  33.046  1.00  0.00    -0.049 A 
ATOM     63  C   UNL A   1      35.709  32.903  31.723  1.00  0.00    -0.053 A 
ATOM     64  H   UNL A   1      33.681  33.401  31.400  1.00  0.00     0.063 H 
ATOM     65  C   UNL A   1      37.013  34.609  32.840  1.00  0.00    -0.053 A 
ATOM     66  H   UNL A   1      35.886  36.174  33.656  1.00  0.00     0.063 H 
ATOM     67  C   UNL A   1      36.941  33.365  32.218  1.00  0.00    -0.014 A 
ATOM     68  H   UNL A   1      35.642  31.963  31.303  1.00  0.00     0.063 H 
ATOM     69  H   UNL A   1      37.926  34.980  33.147  1.00  0.00     0.063 H 
BRANCH  67  70
ATOM     70  C   UNL A   1      38.156  32.572  32.012  1.00  0.00     0.031 A 
ATOM     71  C   UNL A   1      38.981  32.305  33.227  1.00  0.00     0.074 A 
ATOM     72  C   UNL A   1      38.474  31.959  30.851  1.00  0.00     0.049 A 
ATOM     73  N   UNL A   1      40.201  32.675  33.452  1.00  0.00    -0.248 NA
ATOM     74  C   UNL A   1      38.356  31.597  34.354  1.00  0.00    -0.034 C 
ATOM     75  C   UNL A   1      37.684  31.840  29.621  1.00  0.00    -0.036 A 
ATOM     76  N   UNL A   1      39.580  31.213  30.569  1.00  0.00    -0.354 N 
ATOM     77  C   UNL A   1      40.557  32.133  34.686  1.00  0.00     0.074 A 
ATOM     78  C   UNL A   1      39.352  31.573  35.243  1.00  0.00    -0.034 C 
ATOM     79  H   UNL A   1      37.400  31.218  34.436  1.00  0.00     0.065 H 
ATOM     80  C   UNL A   1      38.221  30.891  28.825  1.00  0.00    -0.036 A 
ATOM     81  H   UNL A   1      36.844  32.398  29.397  1.00  0.00     0.065 H 
ATOM     82  C   UNL A   1      39.488  30.481  29.396  1.00  0.00     0.049 A 
ATOM     83  H   UNL A   1      40.376  31.196  31.148  1.00  0.00     0.167 HD
ATOM     84  C   UNL A   1      41.861  32.034  35.072  1.00  0.00     0.037 A 
ATOM     85  H   UNL A   1      39.270  31.202  36.204  1.00  0.00     0.065 H 
ATOM     86  H   UNL A   1      37.800  30.521  27.959  1.00  0.00     0.065 H 
ATOM     87  C   UNL A   1      40.387  29.590  28.917  1.00  0.00     0.037 A 
ATOM     88  C   UNL A   1      42.707  32.894  34.286  1.00  0.00     0.049 A 
ATOM     89  C   UNL A   1      41.693  29.896  29.543  1.00  0.00     0.074 A 
ATOM     90  C   UNL A   1      42.788  34.258  34.081  1.00  0.00    -0.036 A 
ATOM     91  N   UNL A   1      43.455  32.330  33.285  1.00  0.00    -0.354 N 
ATOM     92  N   UNL A   1      42.384  30.973  29.299  1.00  0.00    -0.248 NA
ATOM     93  C   UNL A   1      42.053  29.184  30.759  1.00  0.00    -0.034 C 
ATOM     94  C   UNL A   1      43.149  34.404  32.708  1.00  0.00    -0.036 A 
ATOM     95  H   UNL A   1      42.624  35.008  34.771  1.00  0.00     0.065 H 
ATOM     96  C   UNL A   1      43.310  33.123  32.177  1.00  0.00     0.049 A 
ATOM     97  H   UNL A   1      43.995  31.508  33.349  1.00  0.00     0.167 HD
ATOM     98  C   UNL A   1      42.950  31.309  30.518  1.00  0.00     0.074 A 
ATOM     99  C   UNL A   1      42.812  30.112  31.342  1.00  0.00    -0.034 C 
ATOM    100  H   UNL A   1      41.795  28.236  31.077  1.00  0.00     0.065 H 
ATOM    101  H   UNL A   1      43.269  35.294  32.200  1.00  0.00     0.065 H 
ATOM    102  C   UNL A   1      43.223  32.609  30.830  1.00  0.00     0.037 A 
ATOM    103  H   UNL A   1      43.253  29.998  32.269  1.00  0.00     0.065 H 
BRANCH  84 104
ATOM    104  C   UNL A   1      42.432  30.926  35.927  1.00  0.00     0.064 A 
ATOM    105  C   UNL A   1      43.288  31.253  37.000  1.00  0.00     0.173 A 
ATOM    106  C   UNL A   1      42.425  29.568  35.548  1.00  0.00     0.173 A 
ATOM    107  F   UNL A   1      43.385  32.517  37.440  1.00  0.00    -0.203 F 
ATOM    108  C   UNL A   1      44.139  30.308  37.583  1.00  0.00     0.198 A 
ATOM    109  C   UNL A   1      43.237  28.618  36.166  1.00  0.00     0.198 A 
ATOM    110  F   UNL A   1      41.724  29.128  34.496  1.00  0.00    -0.203 F 
ATOM    111  F   UNL A   1      45.029  30.693  38.506  1.00  0.00    -0.200 F 
ATOM    112  C   UNL A   1      44.119  28.993  37.158  1.00  0.00     0.200 A 
ATOM    113  F   UNL A   1      43.216  27.350  35.731  1.00  0.00    -0.200 F 
ATOM    114  F   UNL A   1      44.979  28.100  37.666  1.00  0.00    -0.200 F 
ENDBRANCH  84 104
BRANCH  87 115
ATOM    115  C   UNL A   1      40.131  28.356  28.147  1.00  0.00     0.064 A 
ATOM    116  C   UNL A   1      40.750  28.133  26.909  1.00  0.00     0.173 A 
ATOM    117  C   UNL A   1      39.495  27.250  28.744  1.00  0.00     0.173 A 
ATOM    118  F   UNL A   1      41.409  29.126  26.295  1.00  0.00    -0.203 F 
ATOM    119  C   UNL A   1      40.763  26.866  26.318  1.00  0.00     0.198 A 
ATOM    120  C   UNL A   1      39.504  25.988  28.151  1.00  0.00     0.198 A 
ATOM    121  F   UNL A   1      38.941  27.351  29.962  1.00  0.00    -0.203 F 
ATOM    122  F   UNL A   1      41.423  26.673  25.167  1.00  0.00    -0.200 F 
ATOM    123  C   UNL A   1      40.152  25.792  26.945  1.00  0.00     0.200 A 
ATOM    124  F   UNL A   1      38.940  24.951  28.786  1.00  0.00    -0.200 F 
ATOM    125  F   UNL A   1      40.224  24.565  26.413  1.00  0.00    -0.200 F 
ENDBRANCH  87 115
BRANCH 102 126
ATOM    126  C   UNL A   1      43.182  33.620  29.719  1.00  0.00     0.064 A 
ATOM    127  C   UNL A   1      44.241  33.849  28.823  1.00  0.00     0.173 A 
ATOM    128  C   UNL A   1      41.975  34.287  29.472  1.00  0.00     0.173 A 
ATOM    129  F   UNL A   1      45.392  33.175  28.927  1.00  0.00    -0.203 F 
ATOM    130  C   UNL A   1      44.110  34.744  27.763  1.00  0.00     0.198 A 
ATOM    131  C   UNL A   1      41.834  35.151  28.390  1.00  0.00     0.198 A 
ATOM    132  F   UNL A   1      40.911  34.064  30.259  1.00  0.00    -0.203 F 
ATOM    133  F   UNL A   1      45.142  34.959  26.932  1.00  0.00    -0.200 F 
ATOM    134  C   UNL A   1      42.905  35.389  27.543  1.00  0.00     0.200 A 
ATOM    135  F   UNL A   1      40.651  35.735  28.153  1.00  0.00    -0.200 F 
ATOM    136  F   UNL A   1      42.766  36.221  26.500  1.00  0.00    -0.200 F 
ENDBRANCH 102 126
ENDBRANCH  67  70
ENDBRANCH  57  60
ENDBRANCH  53  56
ENDBRANCH  50  53
ENDBRANCH  47  50
ENDBRANCH  44  47
ENDBRANCH   1  44
TORSDOF 17
ENDMDL
MODEL 5
REMARK VINA RESULT:     -12.2      1.527      3.321
REMARK SMILES NS(=O)(=O)c1ccc(-c2coc(=O)n2-c2ccc(C(=O)NCCCCCCNC(=O)c3ccc(-c4c5nc(c(-c6c(F)c(F)c(F)c(F)c6F)c6ccc([nH]6)c(-c6c(F)c(F)c(F)c(F)c6F)c6nc(c(-c7c(F)c(F)c(F)c(F)c7F)c7ccc4[nH]7)C=C6)C=C5)cc3)cc2)cc1
REMARK SMILES IDX 23 1 22 4 21 7 19 8 20 9 18 11 15 12 16 13 95 14 17 15 94 17
REMARK SMILES IDX 14 21 9 22 10 23 11 24 12 26 13 27 8 28 5 29 6 30 97 31 7 32
REMARK SMILES IDX 96 34 2 38 3 39 4 40 1 41 24 44 25 47 26 50 27 53 28 56
REMARK SMILES IDX 29 57 30 59 31 60 32 61 93 62 33 63 92 65 34 67 35 70 36 71
REMARK SMILES IDX 86 72 37 73 91 74 85 75 87 76 38 77 90 78 84 80 83 82 39 84
REMARK SMILES IDX 71 87 51 88 70 89 52 90 55 91 69 92 88 93 53 94 54 96 68 98
REMARK SMILES IDX 89 99 56 102 40 104 41 105 49 106 42 107 43 108 47 109
REMARK SMILES IDX 50 110 44 111 45 112 48 113 46 114 72 115 73 116 81 117
REMARK SMILES IDX 74 118 75 119 79 120 82 121 76 122 77 123 80 124 78 125
REMARK SMILES IDX 57 126 58 127 66 128 59 129 60 130 64 131 67 132 61 133
REMARK SMILES IDX 62 134 65 135 63 136
REMARK H PARENT 23 2 23 3 22 5 22 6 21 10 16 16 95 18 17 19 94 20 10 25 6 33
REMARK H PARENT 97 35 7 36 96 37 1 42 1 43 24 45 24 46 25 48 25 49 26 51 26 52
REMARK H PARENT 27 54 27 55 28 58 32 64 93 66 33 68 92 69 91 79 85 81 87 83
REMARK H PARENT 90 85 84 86 52 95 55 97 88 100 53 101 89 103
REMARK Flexibility Score: inf
ROOT
ATOM      1  C   UNL A   1      41.107  21.258  27.624  1.00  0.00    -0.036 C 
ATOM      2  H   UNL A   1      40.606  21.362  28.564  1.00  0.00     0.028 H 
ATOM      3  H   UNL A   1      41.905  21.963  27.510  1.00  0.00     0.028 H 
ENDROOT
BRANCH   1   4
ATOM      4  C   UNL A   1      40.101  21.531  26.503  1.00  0.00     0.018 C 
ATOM      5  H   UNL A   1      40.577  21.374  25.557  1.00  0.00     0.049 H 
ATOM      6  H   UNL A   1      39.271  20.867  26.611  1.00  0.00     0.049 H 
BRANCH   4   7
ATOM      7  N   UNL A   1      39.625  22.900  26.576  1.00  0.00    -0.352 N 
ATOM      8  C   UNL A   1      38.438  23.503  26.251  1.00  0.00     0.251 C 
ATOM      9  O   UNL A   1      38.347  24.715  26.450  1.00  0.00    -0.269 OA
ATOM     10  H   UNL A   1      40.295  23.526  26.935  1.00  0.00     0.163 HD
BRANCH   8  11
ATOM     11  C   UNL A   1      37.245  22.766  25.741  1.00  0.00     0.039 A 
ATOM     12  C   UNL A   1      35.027  21.201  24.989  1.00  0.00     0.053 A 
ATOM     13  C   UNL A   1      35.145  21.650  26.304  1.00  0.00    -0.037 A 
ATOM     14  C   UNL A   1      35.970  21.606  24.039  1.00  0.00    -0.037 A 
ATOM     15  C   UNL A   1      36.266  22.398  26.681  1.00  0.00    -0.047 A 
ATOM     16  H   UNL A   1      34.410  21.432  26.994  1.00  0.00     0.065 H 
ATOM     17  C   UNL A   1      37.034  22.434  24.403  1.00  0.00    -0.047 A 
ATOM     18  H   UNL A   1      35.878  21.290  23.060  1.00  0.00     0.065 H 
ATOM     19  H   UNL A   1      36.377  22.683  27.666  1.00  0.00     0.063 H 
ATOM     20  H   UNL A   1      37.668  22.803  23.677  1.00  0.00     0.063 H 
BRANCH  12  21
ATOM     21  N   UNL A   1      33.986  20.337  24.607  1.00  0.00    -0.242 N 
ATOM     22  C   UNL A   1      32.662  20.632  24.443  1.00  0.00     0.095 A 
ATOM     23  C   UNL A   1      32.055  19.473  24.215  1.00  0.00     0.121 A 
ATOM     24  O   UNL A   1      32.906  18.371  24.207  1.00  0.00    -0.415 OA
ATOM     25  H   UNL A   1      31.037  19.397  24.058  1.00  0.00     0.107 H 
ATOM     26  C   UNL A   1      34.148  18.965  24.437  1.00  0.00     0.424 A 
ATOM     27  O   UNL A   1      35.184  18.317  24.507  1.00  0.00    -0.223 OA
BRANCH  22  28
ATOM     28  C   UNL A   1      32.094  21.974  24.332  1.00  0.00     0.002 A 
ATOM     29  C   UNL A   1      31.018  24.557  24.189  1.00  0.00     0.082 A 
ATOM     30  C   UNL A   1      30.991  23.869  25.401  1.00  0.00    -0.041 A 
ATOM     31  C   UNL A   1      31.582  23.974  23.050  1.00  0.00    -0.041 A 
ATOM     32  C   UNL A   1      31.528  22.581  25.467  1.00  0.00    -0.051 A 
ATOM     33  H   UNL A   1      30.579  24.305  26.240  1.00  0.00     0.064 H 
ATOM     34  C   UNL A   1      32.125  22.686  23.126  1.00  0.00    -0.051 A 
ATOM     35  H   UNL A   1      31.598  24.491  22.157  1.00  0.00     0.064 H 
ATOM     36  H   UNL A   1      31.508  22.068  26.363  1.00  0.00     0.063 H 
ATOM     37  H   UNL A   1      32.551  22.258  22.289  1.00  0.00     0.063 H 
BRANCH  29  38
ATOM     38  S   UNL A   1      30.340  26.189  24.100  1.00  0.00     0.238 S 
ATOM     39  O   UNL A   1      30.646  26.754  22.797  1.00  0.00    -0.207 OA
ATOM     40  O   UNL A   1      30.624  26.869  25.330  1.00  0.00    -0.207 OA
BRANCH  38  41
ATOM     41  N   UNL A   1      28.683  25.912  24.070  1.00  0.00    -0.225 NA
ATOM     42  H   UNL A   1      28.189  26.804  24.055  1.00  0.00     0.137 HD
ATOM     43  H   UNL A   1      28.410  25.386  24.901  1.00  0.00     0.137 HD
ENDBRANCH  38  41
ENDBRANCH  29  38
ENDBRANCH  22  28
ENDBRANCH  12  21
ENDBRANCH   8  11
ENDBRANCH   4   7
ENDBRANCH   1   4
BRANCH   1  44
ATOM     44  C   UNL A   1      41.732  19.857  27.559  1.00  0.00    -0.052 C 
ATOM     45  H   UNL A   1      41.116  19.196  28.134  1.00  0.00     0.027 H 
ATOM     46  H   UNL A   1      42.726  19.962  27.939  1.00  0.00     0.027 H 
BRANCH  44  47
ATOM     47  C   UNL A   1      41.881  19.259  26.151  1.00  0.00    -0.052 C 
ATOM     48  H   UNL A   1      42.157  20.052  25.487  1.00  0.00     0.027 H 
ATOM     49  H   UNL A   1      40.935  18.809  25.931  1.00  0.00     0.027 H 
BRANCH  47  50
ATOM     50  C   UNL A   1      42.914  18.136  25.995  1.00  0.00    -0.036 C 
ATOM     51  H   UNL A   1      42.706  17.611  25.086  1.00  0.00     0.028 H 
ATOM     52  H   UNL A   1      42.826  17.512  26.860  1.00  0.00     0.028 H 
BRANCH  50  53
ATOM     53  C   UNL A   1      44.356  18.621  25.947  1.00  0.00     0.018 C 
ATOM     54  H   UNL A   1      45.002  17.811  26.214  1.00  0.00     0.049 H 
ATOM     55  H   UNL A   1      44.452  19.437  26.633  1.00  0.00     0.049 H 
BRANCH  53  56
ATOM     56  N   UNL A   1      44.731  19.103  24.619  1.00  0.00    -0.352 N 
ATOM     57  C   UNL A   1      44.611  20.370  24.091  1.00  0.00     0.251 C 
ATOM     58  H   UNL A   1      45.121  18.428  24.018  1.00  0.00     0.163 HD
ATOM     59  O   UNL A   1      44.637  20.552  22.880  1.00  0.00    -0.269 OA
BRANCH  57  60
ATOM     60  C   UNL A   1      44.430  21.510  25.006  1.00  0.00     0.039 A 
ATOM     61  C   UNL A   1      45.381  21.791  25.987  1.00  0.00    -0.049 A 
ATOM     62  C   UNL A   1      43.314  22.324  24.847  1.00  0.00    -0.049 A 
ATOM     63  C   UNL A   1      45.245  22.953  26.745  1.00  0.00    -0.053 A 
ATOM     64  H   UNL A   1      46.173  21.149  26.151  1.00  0.00     0.063 H 
ATOM     65  C   UNL A   1      43.261  23.540  25.489  1.00  0.00    -0.053 A 
ATOM     66  H   UNL A   1      42.529  22.018  24.250  1.00  0.00     0.063 H 
ATOM     67  C   UNL A   1      44.197  23.849  26.473  1.00  0.00    -0.014 A 
ATOM     68  H   UNL A   1      45.914  23.155  27.504  1.00  0.00     0.063 H 
ATOM     69  H   UNL A   1      42.527  24.224  25.243  1.00  0.00     0.063 H 
BRANCH  67  70
ATOM     70  C   UNL A   1      44.135  25.135  27.173  1.00  0.00     0.031 A 
ATOM     71  C   UNL A   1      45.255  26.085  26.902  1.00  0.00     0.074 A 
ATOM     72  C   UNL A   1      43.077  25.554  27.900  1.00  0.00     0.049 A 
ATOM     73  N   UNL A   1      46.116  26.554  27.747  1.00  0.00    -0.248 NA
ATOM     74  C   UNL A   1      45.487  26.515  25.515  1.00  0.00    -0.034 C 
ATOM     75  C   UNL A   1      41.763  24.924  28.067  1.00  0.00    -0.036 A 
ATOM     76  N   UNL A   1      42.937  26.724  28.586  1.00  0.00    -0.354 N 
ATOM     77  C   UNL A   1      46.916  27.450  27.040  1.00  0.00     0.074 A 
ATOM     78  C   UNL A   1      46.555  27.305  25.653  1.00  0.00    -0.034 C 
ATOM     79  H   UNL A   1      44.962  26.272  24.661  1.00  0.00     0.065 H 
ATOM     80  C   UNL A   1      40.898  25.812  28.603  1.00  0.00    -0.036 A 
ATOM     81  H   UNL A   1      41.534  23.949  27.815  1.00  0.00     0.065 H 
ATOM     82  C   UNL A   1      41.640  26.994  28.992  1.00  0.00     0.049 A 
ATOM     83  H   UNL A   1      43.693  27.325  28.778  1.00  0.00     0.167 HD
ATOM     84  C   UNL A   1      47.693  28.370  27.679  1.00  0.00     0.037 A 
ATOM     85  H   UNL A   1      47.056  27.752  24.869  1.00  0.00     0.065 H 
ATOM     86  H   UNL A   1      39.882  25.671  28.715  1.00  0.00     0.065 H 
ATOM     87  C   UNL A   1      41.193  28.114  29.604  1.00  0.00     0.037 A 
ATOM     88  C   UNL A   1      47.888  28.022  29.062  1.00  0.00     0.049 A 
ATOM     89  C   UNL A   1      42.358  28.770  30.238  1.00  0.00     0.074 A 
ATOM     90  C   UNL A   1      48.463  26.957  29.728  1.00  0.00    -0.036 A 
ATOM     91  N   UNL A   1      47.151  28.687  30.009  1.00  0.00    -0.354 N 
ATOM     92  N   UNL A   1      43.010  28.277  31.254  1.00  0.00    -0.248 NA
ATOM     93  C   UNL A   1      43.060  29.797  29.485  1.00  0.00    -0.034 C 
ATOM     94  C   UNL A   1      47.651  26.761  30.884  1.00  0.00    -0.036 A 
ATOM     95  H   UNL A   1      49.300  26.420  29.449  1.00  0.00     0.065 H 
ATOM     96  C   UNL A   1      46.662  27.745  30.874  1.00  0.00     0.049 A 
ATOM     97  H   UNL A   1      47.002  29.660  30.057  1.00  0.00     0.167 HD
ATOM     98  C   UNL A   1      44.334  28.604  31.012  1.00  0.00     0.074 A 
ATOM     99  C   UNL A   1      44.288  29.637  29.982  1.00  0.00    -0.034 C 
ATOM    100  H   UNL A   1      42.710  30.458  28.773  1.00  0.00     0.065 H 
ATOM    101  H   UNL A   1      47.772  26.025  31.597  1.00  0.00     0.065 H 
ATOM    102  C   UNL A   1      45.347  27.810  31.468  1.00  0.00     0.037 A 
ATOM    103  H   UNL A   1      45.109  30.181  29.676  1.00  0.00     0.065 H 
BRANCH  84 104
ATOM    104  C   UNL A   1      48.007  29.753  27.158  1.00  0.00     0.064 A 
ATOM    105  C   UNL A   1      49.343  30.210  27.167  1.00  0.00     0.173 A 
ATOM    106  C   UNL A   1      47.028  30.747  26.949  1.00  0.00     0.173 A 
ATOM    107  F   UNL A   1      50.358  29.355  27.369  1.00  0.00    -0.203 F 
ATOM    108  C   UNL A   1      49.662  31.567  27.068  1.00  0.00     0.198 A 
ATOM    109  C   UNL A   1      47.355  32.095  26.798  1.00  0.00     0.198 A 
ATOM    110  F   UNL A   1      45.719  30.475  26.995  1.00  0.00    -0.203 F 
ATOM    111  F   UNL A   1      50.933  31.965  27.216  1.00  0.00    -0.200 F 
ATOM    112  C   UNL A   1      48.666  32.509  26.893  1.00  0.00     0.200 A 
ATOM    113  F   UNL A   1      46.375  32.996  26.644  1.00  0.00    -0.200 F 
ATOM    114  F   UNL A   1      48.962  33.816  26.866  1.00  0.00    -0.200 F 
ENDBRANCH  84 104
BRANCH  87 115
ATOM    115  C   UNL A   1      39.875  28.768  29.467  1.00  0.00     0.064 A 
ATOM    116  C   UNL A   1      39.407  29.200  28.218  1.00  0.00     0.173 A 
ATOM    117  C   UNL A   1      38.934  28.724  30.514  1.00  0.00     0.173 A 
ATOM    118  F   UNL A   1      40.233  29.233  27.162  1.00  0.00    -0.203 F 
ATOM    119  C   UNL A   1      38.065  29.537  28.019  1.00  0.00     0.198 A 
ATOM    120  C   UNL A   1      37.597  29.065  30.315  1.00  0.00     0.198 A 
ATOM    121  F   UNL A   1      39.273  28.254  31.724  1.00  0.00    -0.203 F 
ATOM    122  F   UNL A   1      37.638  29.880  26.795  1.00  0.00    -0.200 F 
ATOM    123  C   UNL A   1      37.159  29.457  29.063  1.00  0.00     0.200 A 
ATOM    124  F   UNL A   1      36.724  28.948  31.326  1.00  0.00    -0.200 F 
ATOM    125  F   UNL A   1      35.860  29.711  28.855  1.00  0.00    -0.200 F 
ENDBRANCH  87 115
BRANCH 102 126
ATOM    126  C   UNL A   1      45.007  26.757  32.485  1.00  0.00     0.064 A 
ATOM    127  C   UNL A   1      44.617  25.446  32.162  1.00  0.00     0.173 A 
ATOM    128  C   UNL A   1      45.212  27.051  33.839  1.00  0.00     0.173 A 
ATOM    129  F   UNL A   1      44.500  25.054  30.888  1.00  0.00    -0.203 F 
ATOM    130  C   UNL A   1      44.394  24.492  33.153  1.00  0.00     0.198 A 
ATOM    131  C   UNL A   1      45.026  26.087  34.826  1.00  0.00     0.198 A 
ATOM    132  F   UNL A   1      45.641  28.270  34.205  1.00  0.00    -0.203 F 
ATOM    133  F   UNL A   1      44.004  23.252  32.819  1.00  0.00    -0.200 F 
ATOM    134  C   UNL A   1      44.604  24.812  34.484  1.00  0.00     0.200 A 
ATOM    135  F   UNL A   1      45.279  26.386  36.107  1.00  0.00    -0.200 F 
ATOM    136  F   UNL A   1      44.427  23.884  35.436  1.00  0.00    -0.200 F 
ENDBRANCH 102 126
ENDBRANCH  67  70
ENDBRANCH  57  60
ENDBRANCH  53  56
ENDBRANCH  50  53
ENDBRANCH  47  50
ENDBRANCH  44  47
ENDBRANCH   1  44
TORSDOF 17
ENDMDL
MODEL 6
REMARK VINA RESULT:     -12.1      2.244      3.823
REMARK SMILES NS(=O)(=O)c1ccc(-c2coc(=O)n2-c2ccc(C(=O)NCCCCCCNC(=O)c3ccc(-c4c5nc(c(-c6c(F)c(F)c(F)c(F)c6F)c6ccc([nH]6)c(-c6c(F)c(F)c(F)c(F)c6F)c6nc(c(-c7c(F)c(F)c(F)c(F)c7F)c7ccc4[nH]7)C=C6)C=C5)cc3)cc2)cc1
REMARK SMILES IDX 23 1 22 4 21 7 19 8 20 9 18 11 15 12 16 13 95 14 17 15 94 17
REMARK SMILES IDX 14 21 9 22 10 23 11 24 12 26 13 27 8 28 5 29 6 30 97 31 7 32
REMARK SMILES IDX 96 34 2 38 3 39 4 40 1 41 24 44 25 47 26 50 27 53 28 56
REMARK SMILES IDX 29 57 30 59 31 60 32 61 93 62 33 63 92 65 34 67 35 70 36 71
REMARK SMILES IDX 86 72 37 73 91 74 85 75 87 76 38 77 90 78 84 80 83 82 39 84
REMARK SMILES IDX 71 87 51 88 70 89 52 90 55 91 69 92 88 93 53 94 54 96 68 98
REMARK SMILES IDX 89 99 56 102 40 104 41 105 49 106 42 107 43 108 47 109
REMARK SMILES IDX 50 110 44 111 45 112 48 113 46 114 72 115 73 116 81 117
REMARK SMILES IDX 74 118 75 119 79 120 82 121 76 122 77 123 80 124 78 125
REMARK SMILES IDX 57 126 58 127 66 128 59 129 60 130 64 131 67 132 61 133
REMARK SMILES IDX 62 134 65 135 63 136
REMARK H PARENT 23 2 23 3 22 5 22 6 21 10 16 16 95 18 17 19 94 20 10 25 6 33
REMARK H PARENT 97 35 7 36 96 37 1 42 1 43 24 45 24 46 25 48 25 49 26 51 26 52
REMARK H PARENT 27 54 27 55 28 58 32 64 93 66 33 68 92 69 91 79 85 81 87 83
REMARK H PARENT 90 85 84 86 52 95 55 97 88 100 53 101 89 103
REMARK Flexibility Score: inf
ROOT
ATOM      1  C   UNL A   1      38.779  21.309  25.729  1.00  0.00    -0.036 C 
ATOM      2  H   UNL A   1      39.113  21.156  24.725  1.00  0.00     0.028 H 
ATOM      3  H   UNL A   1      38.503  20.393  26.209  1.00  0.00     0.028 H 
ENDROOT
BRANCH   1   4
ATOM      4  C   UNL A   1      37.530  22.195  25.697  1.00  0.00     0.018 C 
ATOM      5  H   UNL A   1      37.695  23.060  26.305  1.00  0.00     0.049 H 
ATOM      6  H   UNL A   1      37.336  22.487  24.687  1.00  0.00     0.049 H 
BRANCH   4   7
ATOM      7  N   UNL A   1      36.383  21.465  26.206  1.00  0.00    -0.352 N 
ATOM      8  C   UNL A   1      35.058  21.428  25.854  1.00  0.00     0.251 C 
ATOM      9  O   UNL A   1      34.325  20.675  26.496  1.00  0.00    -0.269 OA
ATOM     10  H   UNL A   1      36.602  20.873  26.962  1.00  0.00     0.163 HD
BRANCH   8  11
ATOM     11  C   UNL A   1      34.483  22.190  24.708  1.00  0.00     0.039 A 
ATOM     12  C   UNL A   1      33.486  23.857  22.668  1.00  0.00     0.053 A 
ATOM     13  C   UNL A   1      34.805  24.001  23.099  1.00  0.00    -0.037 A 
ATOM     14  C   UNL A   1      32.701  22.828  23.196  1.00  0.00    -0.037 A 
ATOM     15  C   UNL A   1      35.285  23.194  24.136  1.00  0.00    -0.047 A 
ATOM     16  H   UNL A   1      35.423  24.698  22.654  1.00  0.00     0.065 H 
ATOM     17  C   UNL A   1      33.220  21.963  24.163  1.00  0.00    -0.047 A 
ATOM     18  H   UNL A   1      31.729  22.706  22.869  1.00  0.00     0.065 H 
ATOM     19  H   UNL A   1      36.244  23.338  24.489  1.00  0.00     0.063 H 
ATOM     20  H   UNL A   1      32.664  21.151  24.474  1.00  0.00     0.063 H 
BRANCH  12  21
ATOM     21  N   UNL A   1      32.931  24.738  21.723  1.00  0.00    -0.242 N 
ATOM     22  C   UNL A   1      32.240  25.894  21.952  1.00  0.00     0.095 A 
ATOM     23  C   UNL A   1      31.802  26.299  20.766  1.00  0.00     0.121 A 
ATOM     24  O   UNL A   1      32.167  25.471  19.706  1.00  0.00    -0.415 OA
ATOM     25  H   UNL A   1      31.239  27.155  20.640  1.00  0.00     0.107 H 
ATOM     26  C   UNL A   1      32.916  24.488  20.354  1.00  0.00     0.424 A 
ATOM     27  O   UNL A   1      33.426  23.549  19.756  1.00  0.00    -0.223 OA
BRANCH  22  28
ATOM     28  C   UNL A   1      32.191  26.623  23.217  1.00  0.00     0.002 A 
ATOM     29  C   UNL A   1      32.048  27.975  25.668  1.00  0.00     0.082 A 
ATOM     30  C   UNL A   1      30.941  27.262  25.212  1.00  0.00    -0.041 A 
ATOM     31  C   UNL A   1      33.228  28.016  24.918  1.00  0.00    -0.041 A 
ATOM     32  C   UNL A   1      31.016  26.590  23.990  1.00  0.00    -0.051 A 
ATOM     33  H   UNL A   1      30.075  27.229  25.771  1.00  0.00     0.064 H 
ATOM     34  C   UNL A   1      33.299  27.333  23.697  1.00  0.00    -0.051 A 
ATOM     35  H   UNL A   1      34.043  28.546  25.263  1.00  0.00     0.064 H 
ATOM     36  H   UNL A   1      30.197  26.062  23.649  1.00  0.00     0.063 H 
ATOM     37  H   UNL A   1      34.172  27.354  23.148  1.00  0.00     0.063 H 
BRANCH  29  38
ATOM     38  S   UNL A   1      31.958  28.827  27.215  1.00  0.00     0.238 S 
ATOM     39  O   UNL A   1      31.224  28.006  28.162  1.00  0.00    -0.207 OA
ATOM     40  O   UNL A   1      31.636  30.201  26.962  1.00  0.00    -0.207 OA
BRANCH  38  41
ATOM     41  N   UNL A   1      33.548  28.795  27.760  1.00  0.00    -0.225 NA
ATOM     42  H   UNL A   1      33.714  27.929  28.273  1.00  0.00     0.137 HD
ATOM     43  H   UNL A   1      33.713  29.592  28.375  1.00  0.00     0.137 HD
ENDBRANCH  38  41
ENDBRANCH  29  38
ENDBRANCH  22  28
ENDBRANCH  12  21
ENDBRANCH   8  11
ENDBRANCH   4   7
ENDBRANCH   1   4
BRANCH   1  44
ATOM     44  C   UNL A   1      39.936  21.911  26.539  1.00  0.00    -0.052 C 
ATOM     45  H   UNL A   1      39.513  22.521  27.311  1.00  0.00     0.027 H 
ATOM     46  H   UNL A   1      40.533  22.453  25.837  1.00  0.00     0.027 H 
BRANCH  44  47
ATOM     47  C   UNL A   1      40.882  20.898  27.203  1.00  0.00    -0.052 C 
ATOM     48  H   UNL A   1      40.337  20.404  27.980  1.00  0.00     0.027 H 
ATOM     49  H   UNL A   1      41.718  21.471  27.546  1.00  0.00     0.027 H 
BRANCH  47  50
ATOM     50  C   UNL A   1      41.474  19.819  26.286  1.00  0.00    -0.036 C 
ATOM     51  H   UNL A   1      41.557  20.225  25.300  1.00  0.00     0.028 H 
ATOM     52  H   UNL A   1      40.814  18.978  26.331  1.00  0.00     0.028 H 
BRANCH  50  53
ATOM     53  C   UNL A   1      42.847  19.325  26.717  1.00  0.00     0.018 C 
ATOM     54  H   UNL A   1      42.742  18.358  27.163  1.00  0.00     0.049 H 
ATOM     55  H   UNL A   1      43.249  20.032  27.412  1.00  0.00     0.049 H 
BRANCH  53  56
ATOM     56  N   UNL A   1      43.774  19.224  25.591  1.00  0.00    -0.352 N 
ATOM     57  C   UNL A   1      44.275  20.226  24.789  1.00  0.00     0.251 C 
ATOM     58  H   UNL A   1      44.081  18.314  25.375  1.00  0.00     0.163 HD
ATOM     59  O   UNL A   1      44.753  19.972  23.690  1.00  0.00    -0.269 OA
BRANCH  57  60
ATOM     60  C   UNL A   1      44.210  21.619  25.262  1.00  0.00     0.039 A 
ATOM     61  C   UNL A   1      43.246  22.495  24.763  1.00  0.00    -0.049 A 
ATOM     62  C   UNL A   1      45.103  22.033  26.245  1.00  0.00    -0.049 A 
ATOM     63  C   UNL A   1      43.128  23.762  25.331  1.00  0.00    -0.053 A 
ATOM     64  H   UNL A   1      42.629  22.209  23.986  1.00  0.00     0.063 H 
ATOM     65  C   UNL A   1      44.889  23.224  26.902  1.00  0.00    -0.053 A 
ATOM     66  H   UNL A   1      45.921  21.451  26.482  1.00  0.00     0.063 H 
ATOM     67  C   UNL A   1      43.933  24.118  26.427  1.00  0.00    -0.014 A 
ATOM     68  H   UNL A   1      42.451  24.439  24.946  1.00  0.00     0.063 H 
ATOM     69  H   UNL A   1      45.437  23.455  27.746  1.00  0.00     0.063 H 
BRANCH  67  70
ATOM     70  C   UNL A   1      43.712  25.395  27.112  1.00  0.00     0.031 A 
ATOM     71  C   UNL A   1      44.681  26.486  26.796  1.00  0.00     0.074 A 
ATOM     72  C   UNL A   1      42.626  25.675  27.864  1.00  0.00     0.049 A 
ATOM     73  N   UNL A   1      45.491  27.084  27.609  1.00  0.00    -0.248 NA
ATOM     74  C   UNL A   1      44.813  26.921  25.398  1.00  0.00    -0.034 C 
ATOM     75  C   UNL A   1      41.418  24.872  28.079  1.00  0.00    -0.036 A 
ATOM     76  N   UNL A   1      42.344  26.826  28.540  1.00  0.00    -0.354 N 
ATOM     77  C   UNL A   1      46.139  28.070  26.867  1.00  0.00     0.074 A 
ATOM     78  C   UNL A   1      45.764  27.853  25.493  1.00  0.00    -0.034 C 
ATOM     79  H   UNL A   1      44.303  26.593  24.563  1.00  0.00     0.065 H 
ATOM     80  C   UNL A   1      40.453  25.639  28.629  1.00  0.00    -0.036 A 
ATOM     81  H   UNL A   1      41.320  23.870  27.846  1.00  0.00     0.065 H 
ATOM     82  C   UNL A   1      41.034  26.920  28.980  1.00  0.00     0.049 A 
ATOM     83  H   UNL A   1      43.014  27.528  28.702  1.00  0.00     0.167 HD
ATOM     84  C   UNL A   1      46.799  29.100  27.471  1.00  0.00     0.037 A 
ATOM     85  H   UNL A   1      46.176  28.353  24.689  1.00  0.00     0.065 H 
ATOM     86  H   UNL A   1      39.470  25.362  28.773  1.00  0.00     0.065 H 
ATOM     87  C   UNL A   1      40.452  27.977  29.591  1.00  0.00     0.037 A 
ATOM     88  C   UNL A   1      47.078  28.805  28.852  1.00  0.00     0.049 A 
ATOM     89  C   UNL A   1      41.532  28.799  30.182  1.00  0.00     0.074 A 
ATOM     90  C   UNL A   1      47.814  27.842  29.514  1.00  0.00    -0.036 A 
ATOM     91  N   UNL A   1      46.282  29.377  29.812  1.00  0.00    -0.354 N 
ATOM     92  N   UNL A   1      42.274  28.418  31.184  1.00  0.00    -0.248 NA
ATOM     93  C   UNL A   1      42.063  29.900  29.395  1.00  0.00    -0.034 C 
ATOM     94  C   UNL A   1      47.069  27.554  30.696  1.00  0.00    -0.036 A 
ATOM     95  H   UNL A   1      48.709  27.421  29.217  1.00  0.00     0.065 H 
ATOM     96  C   UNL A   1      45.952  28.391  30.703  1.00  0.00     0.049 A 
ATOM     97  H   UNL A   1      46.000  30.321  29.852  1.00  0.00     0.167 HD
ATOM     98  C   UNL A   1      43.532  28.921  30.899  1.00  0.00     0.074 A 
ATOM     99  C   UNL A   1      43.315  29.920  29.858  1.00  0.00    -0.034 C 
ATOM    100  H   UNL A   1      41.605  30.494  28.686  1.00  0.00     0.065 H 
ATOM    101  H   UNL A   1      47.311  26.854  31.414  1.00  0.00     0.065 H 
ATOM    102  C   UNL A   1      44.658  28.283  31.335  1.00  0.00     0.037 A 
ATOM    103  H   UNL A   1      44.044  30.568  29.520  1.00  0.00     0.065 H 
BRANCH  84 104
ATOM    104  C   UNL A   1      46.902  30.504  26.923  1.00  0.00     0.064 A 
ATOM    105  C   UNL A   1      48.145  31.172  26.961  1.00  0.00     0.173 A 
ATOM    106  C   UNL A   1      45.784  31.321  26.659  1.00  0.00     0.173 A 
ATOM    107  F   UNL A   1      49.277  30.497  27.216  1.00  0.00    -0.203 F 
ATOM    108  C   UNL A   1      48.245  32.560  26.836  1.00  0.00     0.198 A 
ATOM    109  C   UNL A   1      45.893  32.701  26.482  1.00  0.00     0.198 A 
ATOM    110  F   UNL A   1      44.534  30.841  26.672  1.00  0.00    -0.203 F 
ATOM    111  F   UNL A   1      49.428  33.162  27.012  1.00  0.00    -0.200 F 
ATOM    112  C   UNL A   1      47.116  33.325  26.606  1.00  0.00     0.200 A 
ATOM    113  F   UNL A   1      44.786  33.427  26.275  1.00  0.00    -0.200 F 
ATOM    114  F   UNL A   1      47.198  34.661  26.554  1.00  0.00    -0.200 F 
ENDBRANCH  84 104
BRANCH  87 115
ATOM    115  C   UNL A   1      39.053  28.440  29.485  1.00  0.00     0.064 A 
ATOM    116  C   UNL A   1      38.262  28.621  30.629  1.00  0.00     0.173 A 
ATOM    117  C   UNL A   1      38.561  28.982  28.283  1.00  0.00     0.173 A 
ATOM    118  F   UNL A   1      38.681  28.167  31.819  1.00  0.00    -0.203 F 
ATOM    119  C   UNL A   1      37.061  29.335  30.578  1.00  0.00     0.198 A 
ATOM    120  C   UNL A   1      37.360  29.689  28.233  1.00  0.00     0.198 A 
ATOM    121  F   UNL A   1      39.284  28.922  27.154  1.00  0.00    -0.203 F 
ATOM    122  F   UNL A   1      36.364  29.547  31.703  1.00  0.00    -0.200 F 
ATOM    123  C   UNL A   1      36.617  29.879  29.384  1.00  0.00     0.200 A 
ATOM    124  F   UNL A   1      36.961  30.241  27.078  1.00  0.00    -0.200 F 
ATOM    125  F   UNL A   1      35.503  30.622  29.350  1.00  0.00    -0.200 F 
ENDBRANCH  87 115
BRANCH 102 126
ATOM    126  C   UNL A   1      44.497  27.211  32.375  1.00  0.00     0.064 A 
ATOM    127  C   UNL A   1      44.315  25.848  32.080  1.00  0.00     0.173 A 
ATOM    128  C   UNL A   1      44.664  27.560  33.721  1.00  0.00     0.173 A 
ATOM    129  F   UNL A   1      44.250  25.417  30.815  1.00  0.00    -0.203 F 
ATOM    130  C   UNL A   1      44.252  24.891  33.091  1.00  0.00     0.198 A 
ATOM    131  C   UNL A   1      44.639  26.598  34.727  1.00  0.00     0.198 A 
ATOM    132  F   UNL A   1      44.898  28.838  34.060  1.00  0.00    -0.203 F 
ATOM    133  F   UNL A   1      44.059  23.599  32.784  1.00  0.00    -0.200 F 
ATOM    134  C   UNL A   1      44.421  25.266  34.414  1.00  0.00     0.200 A 
ATOM    135  F   UNL A   1      44.852  26.959  36.000  1.00  0.00    -0.200 F 
ATOM    136  F   UNL A   1      44.399  24.341  35.384  1.00  0.00    -0.200 F 
ENDBRANCH 102 126
ENDBRANCH  67  70
ENDBRANCH  57  60
ENDBRANCH  53  56
ENDBRANCH  50  53
ENDBRANCH  47  50
ENDBRANCH  44  47
ENDBRANCH   1  44
TORSDOF 17
ENDMDL
MODEL 7
REMARK VINA RESULT:     -12.1      3.613      5.897
REMARK SMILES NS(=O)(=O)c1ccc(-c2coc(=O)n2-c2ccc(C(=O)NCCCCCCNC(=O)c3ccc(-c4c5nc(c(-c6c(F)c(F)c(F)c(F)c6F)c6ccc([nH]6)c(-c6c(F)c(F)c(F)c(F)c6F)c6nc(c(-c7c(F)c(F)c(F)c(F)c7F)c7ccc4[nH]7)C=C6)C=C5)cc3)cc2)cc1
REMARK SMILES IDX 23 1 22 4 21 7 19 8 20 9 18 11 15 12 16 13 95 14 17 15 94 17
REMARK SMILES IDX 14 21 9 22 10 23 11 24 12 26 13 27 8 28 5 29 6 30 97 31 7 32
REMARK SMILES IDX 96 34 2 38 3 39 4 40 1 41 24 44 25 47 26 50 27 53 28 56
REMARK SMILES IDX 29 57 30 59 31 60 32 61 93 62 33 63 92 65 34 67 35 70 36 71
REMARK SMILES IDX 86 72 37 73 91 74 85 75 87 76 38 77 90 78 84 80 83 82 39 84
REMARK SMILES IDX 71 87 51 88 70 89 52 90 55 91 69 92 88 93 53 94 54 96 68 98
REMARK SMILES IDX 89 99 56 102 40 104 41 105 49 106 42 107 43 108 47 109
REMARK SMILES IDX 50 110 44 111 45 112 48 113 46 114 72 115 73 116 81 117
REMARK SMILES IDX 74 118 75 119 79 120 82 121 76 122 77 123 80 124 78 125
REMARK SMILES IDX 57 126 58 127 66 128 59 129 60 130 64 131 67 132 61 133
REMARK SMILES IDX 62 134 65 135 63 136
REMARK H PARENT 23 2 23 3 22 5 22 6 21 10 16 16 95 18 17 19 94 20 10 25 6 33
REMARK H PARENT 97 35 7 36 96 37 1 42 1 43 24 45 24 46 25 48 25 49 26 51 26 52
REMARK H PARENT 27 54 27 55 28 58 32 64 93 66 33 68 92 69 91 79 85 81 87 83
REMARK H PARENT 90 85 84 86 52 95 55 97 88 100 53 101 89 103
REMARK Flexibility Score: inf
ROOT
ATOM      1  C   UNL A   1      35.281  21.788  26.918  1.00  0.00    -0.036 C 
ATOM      2  H   UNL A   1      35.409  21.236  26.011  1.00  0.00     0.028 H 
ATOM      3  H   UNL A   1      36.055  21.585  27.629  1.00  0.00     0.028 H 
ENDROOT
BRANCH   1   4
ATOM      4  C   UNL A   1      33.957  21.367  27.562  1.00  0.00     0.018 C 
ATOM      5  H   UNL A   1      34.152  20.939  28.524  1.00  0.00     0.049 H 
ATOM      6  H   UNL A   1      33.330  22.226  27.663  1.00  0.00     0.049 H 
BRANCH   4   7
ATOM      7  N   UNL A   1      33.283  20.386  26.731  1.00  0.00    -0.352 N 
ATOM      8  C   UNL A   1      32.790  20.414  25.452  1.00  0.00     0.251 C 
ATOM      9  O   UNL A   1      32.269  19.382  25.025  1.00  0.00    -0.269 OA
ATOM     10  H   UNL A   1      33.153  19.519  27.180  1.00  0.00     0.163 HD
BRANCH   8  11
ATOM     11  C   UNL A   1      32.910  21.590  24.542  1.00  0.00     0.039 A 
ATOM     12  C   UNL A   1      32.886  23.746  22.729  1.00  0.00     0.053 A 
ATOM     13  C   UNL A   1      31.797  23.539  23.574  1.00  0.00    -0.037 A 
ATOM     14  C   UNL A   1      34.014  22.929  22.853  1.00  0.00    -0.037 A 
ATOM     15  C   UNL A   1      31.798  22.447  24.449  1.00  0.00    -0.047 A 
ATOM     16  H   UNL A   1      30.994  24.188  23.555  1.00  0.00     0.065 H 
ATOM     17  C   UNL A   1      34.046  21.900  23.797  1.00  0.00    -0.047 A 
ATOM     18  H   UNL A   1      34.830  23.088  22.240  1.00  0.00     0.065 H 
ATOM     19  H   UNL A   1      30.968  22.266  25.036  1.00  0.00     0.063 H 
ATOM     20  H   UNL A   1      34.918  21.367  23.944  1.00  0.00     0.063 H 
BRANCH  12  21
ATOM     21  N   UNL A   1      32.862  24.751  21.747  1.00  0.00    -0.242 N 
ATOM     22  C   UNL A   1      32.562  26.075  21.900  1.00  0.00     0.095 A 
ATOM     23  C   UNL A   1      32.538  26.589  20.677  1.00  0.00     0.121 A 
ATOM     24  O   UNL A   1      32.818  25.674  19.664  1.00  0.00    -0.415 OA
ATOM     25  H   UNL A   1      32.330  27.583  20.492  1.00  0.00     0.107 H 
ATOM     26  C   UNL A   1      33.048  24.504  20.389  1.00  0.00     0.424 A 
ATOM     27  O   UNL A   1      33.329  23.441  19.850  1.00  0.00    -0.223 OA
BRANCH  22  28
ATOM     28  C   UNL A   1      32.497  26.794  23.171  1.00  0.00     0.002 A 
ATOM     29  C   UNL A   1      32.438  28.198  25.595  1.00  0.00     0.082 A 
ATOM     30  C   UNL A   1      33.662  27.790  25.068  1.00  0.00    -0.041 A 
ATOM     31  C   UNL A   1      31.244  27.919  24.923  1.00  0.00    -0.041 A 
ATOM     32  C   UNL A   1      33.687  27.090  23.860  1.00  0.00    -0.051 A 
ATOM     33  H   UNL A   1      34.541  28.004  25.564  1.00  0.00     0.064 H 
ATOM     34  C   UNL A   1      31.276  27.224  23.708  1.00  0.00    -0.051 A 
ATOM     35  H   UNL A   1      30.342  28.226  25.320  1.00  0.00     0.064 H 
ATOM     36  H   UNL A   1      34.592  26.785  23.468  1.00  0.00     0.063 H 
ATOM     37  H   UNL A   1      30.398  27.026  23.206  1.00  0.00     0.063 H 
BRANCH  29  38
ATOM     38  S   UNL A   1      32.401  29.087  27.124  1.00  0.00     0.238 S 
ATOM     39  O   UNL A   1      31.705  30.345  26.920  1.00  0.00    -0.207 OA
ATOM     40  O   UNL A   1      33.697  29.003  27.732  1.00  0.00    -0.207 OA
BRANCH  38  41
ATOM     41  N   UNL A   1      31.361  28.169  28.073  1.00  0.00    -0.225 NA
ATOM     42  H   UNL A   1      30.513  27.961  27.545  1.00  0.00     0.137 HD
ATOM     43  H   UNL A   1      31.117  28.690  28.915  1.00  0.00     0.137 HD
ENDBRANCH  38  41
ENDBRANCH  29  38
ENDBRANCH  22  28
ENDBRANCH  12  21
ENDBRANCH   8  11
ENDBRANCH   4   7
ENDBRANCH   1   4
BRANCH   1  44
ATOM     44  C   UNL A   1      35.353  23.286  26.590  1.00  0.00    -0.052 C 
ATOM     45  H   UNL A   1      35.468  23.819  27.511  1.00  0.00     0.027 H 
ATOM     46  H   UNL A   1      34.448  23.514  26.068  1.00  0.00     0.027 H 
BRANCH  44  47
ATOM     47  C   UNL A   1      36.497  23.708  25.654  1.00  0.00    -0.052 C 
ATOM     48  H   UNL A   1      36.822  24.682  25.954  1.00  0.00     0.027 H 
ATOM     49  H   UNL A   1      36.087  23.665  24.666  1.00  0.00     0.027 H 
BRANCH  47  50
ATOM     50  C   UNL A   1      37.726  22.790  25.627  1.00  0.00    -0.036 C 
ATOM     51  H   UNL A   1      38.206  22.897  24.676  1.00  0.00     0.028 H 
ATOM     52  H   UNL A   1      37.374  21.795  25.800  1.00  0.00     0.028 H 
BRANCH  50  53
ATOM     53  C   UNL A   1      38.749  23.090  26.713  1.00  0.00     0.018 C 
ATOM     54  H   UNL A   1      38.403  22.673  27.636  1.00  0.00     0.049 H 
ATOM     55  H   UNL A   1      38.854  24.153  26.783  1.00  0.00     0.049 H 
BRANCH  53  56
ATOM     56  N   UNL A   1      40.062  22.527  26.405  1.00  0.00    -0.352 N 
ATOM     57  C   UNL A   1      41.261  23.179  26.214  1.00  0.00     0.251 C 
ATOM     58  H   UNL A   1      40.094  21.547  26.321  1.00  0.00     0.163 HD
ATOM     59  O   UNL A   1      42.188  22.632  25.629  1.00  0.00    -0.269 OA
BRANCH  57  60
ATOM     60  C   UNL A   1      41.409  24.559  26.706  1.00  0.00     0.039 A 
ATOM     61  C   UNL A   1      40.991  25.640  25.928  1.00  0.00    -0.049 A 
ATOM     62  C   UNL A   1      41.936  24.763  27.977  1.00  0.00    -0.049 A 
ATOM     63  C   UNL A   1      41.022  26.919  26.479  1.00  0.00    -0.053 A 
ATOM     64  H   UNL A   1      40.664  25.494  24.960  1.00  0.00     0.063 H 
ATOM     65  C   UNL A   1      41.827  26.001  28.569  1.00  0.00    -0.053 A 
ATOM     66  H   UNL A   1      42.406  23.990  28.474  1.00  0.00     0.063 H 
ATOM     67  C   UNL A   1      41.412  27.097  27.818  1.00  0.00    -0.014 A 
ATOM     68  H   UNL A   1      40.758  27.735  25.905  1.00  0.00     0.063 H 
ATOM     69  H   UNL A   1      42.052  26.117  29.570  1.00  0.00     0.063 H 
BRANCH  67  70
ATOM     70  C   UNL A   1      41.310  28.421  28.438  1.00  0.00     0.031 A 
ATOM     71  C   UNL A   1      42.400  29.387  28.110  1.00  0.00     0.074 A 
ATOM     72  C   UNL A   1      40.239  28.850  29.140  1.00  0.00     0.049 A 
ATOM     73  N   UNL A   1      43.246  29.933  28.924  1.00  0.00    -0.248 NA
ATOM     74  C   UNL A   1      42.621  29.740  26.700  1.00  0.00    -0.034 C 
ATOM     75  C   UNL A   1      38.945  28.191  29.346  1.00  0.00    -0.036 A 
ATOM     76  N   UNL A   1      40.063  30.055  29.755  1.00  0.00    -0.354 N 
ATOM     77  C   UNL A   1      44.019  30.808  28.164  1.00  0.00     0.074 A 
ATOM     78  C   UNL A   1      43.663  30.569  26.788  1.00  0.00    -0.034 C 
ATOM     79  H   UNL A   1      42.104  29.429  25.862  1.00  0.00     0.065 H 
ATOM     80  C   UNL A   1      38.053  29.082  29.829  1.00  0.00    -0.036 A 
ATOM     81  H   UNL A   1      38.746  27.196  29.154  1.00  0.00     0.065 H 
ATOM     82  C   UNL A   1      38.757  30.309  30.145  1.00  0.00     0.049 A 
ATOM     83  H   UNL A   1      40.799  30.689  29.909  1.00  0.00     0.167 HD
ATOM     84  C   UNL A   1      44.767  31.788  28.746  1.00  0.00     0.037 A 
ATOM     85  H   UNL A   1      44.151  30.984  25.978  1.00  0.00     0.065 H 
ATOM     86  H   UNL A   1      37.041  28.918  29.950  1.00  0.00     0.065 H 
ATOM     87  C   UNL A   1      38.275  31.449  30.689  1.00  0.00     0.037 A 
ATOM     88  C   UNL A   1      44.971  31.531  30.147  1.00  0.00     0.049 A 
ATOM     89  C   UNL A   1      39.420  32.178  31.281  1.00  0.00     0.074 A 
ATOM     90  C   UNL A   1      45.578  30.526  30.875  1.00  0.00    -0.036 A 
ATOM     91  N   UNL A   1      44.213  32.229  31.052  1.00  0.00    -0.354 N 
ATOM     92  N   UNL A   1      40.085  31.767  32.324  1.00  0.00    -0.248 NA
ATOM     93  C   UNL A   1      40.090  33.178  30.467  1.00  0.00    -0.034 C 
ATOM     94  C   UNL A   1      44.771  30.375  32.042  1.00  0.00    -0.036 A 
ATOM     95  H   UNL A   1      46.431  29.999  30.628  1.00  0.00     0.065 H 
ATOM     96  C   UNL A   1      43.752  31.326  31.974  1.00  0.00     0.049 A 
ATOM     97  H   UNL A   1      44.034  33.198  31.042  1.00  0.00     0.167 HD
ATOM     98  C   UNL A   1      41.399  32.119  32.062  1.00  0.00     0.074 A 
ATOM     99  C   UNL A   1      41.321  33.086  30.972  1.00  0.00    -0.034 C 
ATOM    100  H   UNL A   1      39.720  33.784  29.716  1.00  0.00     0.065 H 
ATOM    101  H   UNL A   1      44.914  29.687  32.797  1.00  0.00     0.065 H 
ATOM    102  C   UNL A   1      42.435  31.386  32.564  1.00  0.00     0.037 A 
ATOM    103  H   UNL A   1      42.126  33.636  30.632  1.00  0.00     0.065 H 
BRANCH  84 104
ATOM    104  C   UNL A   1      45.038  33.147  28.142  1.00  0.00     0.064 A 
ATOM    105  C   UNL A   1      46.372  33.555  27.928  1.00  0.00     0.173 A 
ATOM    106  C   UNL A   1      44.071  34.170  28.060  1.00  0.00     0.173 A 
ATOM    107  F   UNL A   1      47.378  32.669  27.993  1.00  0.00    -0.203 F 
ATOM    108  C   UNL A   1      46.715  34.897  27.741  1.00  0.00     0.198 A 
ATOM    109  C   UNL A   1      44.412  35.501  27.820  1.00  0.00     0.198 A 
ATOM    110  F   UNL A   1      42.777  33.947  28.319  1.00  0.00    -0.203 F 
ATOM    111  F   UNL A   1      48.005  35.252  27.676  1.00  0.00    -0.200 F 
ATOM    112  C   UNL A   1      45.735  35.870  27.696  1.00  0.00     0.200 A 
ATOM    113  F   UNL A   1      43.449  36.433  27.797  1.00  0.00    -0.200 F 
ATOM    114  F   UNL A   1      46.064  37.164  27.586  1.00  0.00    -0.200 F 
ENDBRANCH  84 104
BRANCH  87 115
ATOM    115  C   UNL A   1      36.938  32.053  30.514  1.00  0.00     0.064 A 
ATOM    116  C   UNL A   1      35.984  32.008  31.541  1.00  0.00     0.173 A 
ATOM    117  C   UNL A   1      36.676  32.930  29.444  1.00  0.00     0.173 A 
ATOM    118  F   UNL A   1      36.180  31.226  32.612  1.00  0.00    -0.203 F 
ATOM    119  C   UNL A   1      34.846  32.820  31.514  1.00  0.00     0.198 A 
ATOM    120  C   UNL A   1      35.538  33.735  29.417  1.00  0.00     0.198 A 
ATOM    121  F   UNL A   1      37.567  33.094  28.455  1.00  0.00    -0.203 F 
ATOM    122  F   UNL A   1      33.989  32.801  32.545  1.00  0.00    -0.200 F 
ATOM    123  C   UNL A   1      34.631  33.692  30.460  1.00  0.00     0.200 A 
ATOM    124  F   UNL A   1      35.361  34.601  28.408  1.00  0.00    -0.200 F 
ATOM    125  F   UNL A   1      33.578  34.521  30.469  1.00  0.00    -0.200 F 
ENDBRANCH  87 115
BRANCH 102 126
ATOM    126  C   UNL A   1      42.127  30.386  33.643  1.00  0.00     0.064 A 
ATOM    127  C   UNL A   1      41.709  29.067  33.398  1.00  0.00     0.173 A 
ATOM    128  C   UNL A   1      42.393  30.740  34.972  1.00  0.00     0.173 A 
ATOM    129  F   UNL A   1      41.533  28.618  32.150  1.00  0.00    -0.203 F 
ATOM    130  C   UNL A   1      41.517  28.163  34.442  1.00  0.00     0.198 A 
ATOM    131  C   UNL A   1      42.238  29.825  36.009  1.00  0.00     0.198 A 
ATOM    132  F   UNL A   1      42.851  31.969  35.261  1.00  0.00    -0.203 F 
ATOM    133  F   UNL A   1      41.099  26.914  34.183  1.00  0.00    -0.200 F 
ATOM    134  C   UNL A   1      41.788  28.542  35.747  1.00  0.00     0.200 A 
ATOM    135  F   UNL A   1      42.548  30.181  37.264  1.00  0.00    -0.200 F 
ATOM    136  F   UNL A   1      41.641  27.662  36.748  1.00  0.00    -0.200 F 
ENDBRANCH 102 126
ENDBRANCH  67  70
ENDBRANCH  57  60
ENDBRANCH  53  56
ENDBRANCH  50  53
ENDBRANCH  47  50
ENDBRANCH  44  47
ENDBRANCH   1  44
TORSDOF 17
ENDMDL
MODEL 8
REMARK VINA RESULT:     -12.1      2.889      8.566
REMARK SMILES NS(=O)(=O)c1ccc(-c2coc(=O)n2-c2ccc(C(=O)NCCCCCCNC(=O)c3ccc(-c4c5nc(c(-c6c(F)c(F)c(F)c(F)c6F)c6ccc([nH]6)c(-c6c(F)c(F)c(F)c(F)c6F)c6nc(c(-c7c(F)c(F)c(F)c(F)c7F)c7ccc4[nH]7)C=C6)C=C5)cc3)cc2)cc1
REMARK SMILES IDX 23 1 22 4 21 7 19 8 20 9 18 11 15 12 16 13 95 14 17 15 94 17
REMARK SMILES IDX 14 21 9 22 10 23 11 24 12 26 13 27 8 28 5 29 6 30 97 31 7 32
REMARK SMILES IDX 96 34 2 38 3 39 4 40 1 41 24 44 25 47 26 50 27 53 28 56
REMARK SMILES IDX 29 57 30 59 31 60 32 61 93 62 33 63 92 65 34 67 35 70 36 71
REMARK SMILES IDX 86 72 37 73 91 74 85 75 87 76 38 77 90 78 84 80 83 82 39 84
REMARK SMILES IDX 71 87 51 88 70 89 52 90 55 91 69 92 88 93 53 94 54 96 68 98
REMARK SMILES IDX 89 99 56 102 40 104 41 105 49 106 42 107 43 108 47 109
REMARK SMILES IDX 50 110 44 111 45 112 48 113 46 114 72 115 73 116 81 117
REMARK SMILES IDX 74 118 75 119 79 120 82 121 76 122 77 123 80 124 78 125
REMARK SMILES IDX 57 126 58 127 66 128 59 129 60 130 64 131 67 132 61 133
REMARK SMILES IDX 62 134 65 135 63 136
REMARK H PARENT 23 2 23 3 22 5 22 6 21 10 16 16 95 18 17 19 94 20 10 25 6 33
REMARK H PARENT 97 35 7 36 96 37 1 42 1 43 24 45 24 46 25 48 25 49 26 51 26 52
REMARK H PARENT 27 54 27 55 28 58 32 64 93 66 33 68 92 69 91 79 85 81 87 83
REMARK H PARENT 90 85 84 86 52 95 55 97 88 100 53 101 89 103
REMARK Flexibility Score: inf
ROOT
ATOM      1  C   UNL A   1      32.371  28.317  25.601  1.00  0.00    -0.036 C 
ATOM      2  H   UNL A   1      31.410  28.415  25.143  1.00  0.00     0.028 H 
ATOM      3  H   UNL A   1      33.040  27.720  25.016  1.00  0.00     0.028 H 
ENDROOT
BRANCH   1   4
ATOM      4  C   UNL A   1      32.198  27.610  26.948  1.00  0.00     0.018 C 
ATOM      5  H   UNL A   1      33.141  27.212  27.262  1.00  0.00     0.049 H 
ATOM      6  H   UNL A   1      31.839  28.314  27.668  1.00  0.00     0.049 H 
BRANCH   4   7
ATOM      7  N   UNL A   1      31.238  26.527  26.829  1.00  0.00    -0.352 N 
ATOM      8  C   UNL A   1      31.351  25.201  26.503  1.00  0.00     0.251 C 
ATOM      9  O   UNL A   1      30.318  24.530  26.501  1.00  0.00    -0.269 OA
ATOM     10  H   UNL A   1      30.313  26.804  27.022  1.00  0.00     0.163 HD
BRANCH   8  11
ATOM     11  C   UNL A   1      32.650  24.523  26.220  1.00  0.00     0.039 A 
ATOM     12  C   UNL A   1      35.171  23.297  25.949  1.00  0.00     0.053 A 
ATOM     13  C   UNL A   1      34.345  22.953  27.018  1.00  0.00    -0.037 A 
ATOM     14  C   UNL A   1      34.702  24.185  24.977  1.00  0.00    -0.037 A 
ATOM     15  C   UNL A   1      33.108  23.590  27.168  1.00  0.00    -0.047 A 
ATOM     16  H   UNL A   1      34.644  22.233  27.694  1.00  0.00     0.065 H 
ATOM     17  C   UNL A   1      33.425  24.743  25.082  1.00  0.00    -0.047 A 
ATOM     18  H   UNL A   1      35.303  24.431  24.174  1.00  0.00     0.065 H 
ATOM     19  H   UNL A   1      32.521  23.372  27.989  1.00  0.00     0.063 H 
ATOM     20  H   UNL A   1      33.053  25.321  24.312  1.00  0.00     0.063 H 
BRANCH  12  21
ATOM     21  N   UNL A   1      36.473  22.777  25.842  1.00  0.00    -0.242 N 
ATOM     22  C   UNL A   1      36.850  21.479  25.645  1.00  0.00     0.095 A 
ATOM     23  C   UNL A   1      38.173  21.462  25.751  1.00  0.00     0.121 A 
ATOM     24  O   UNL A   1      38.745  22.706  26.009  1.00  0.00    -0.415 OA
ATOM     25  H   UNL A   1      38.732  20.599  25.651  1.00  0.00     0.107 H 
ATOM     26  C   UNL A   1      37.623  23.537  26.037  1.00  0.00     0.424 A 
ATOM     27  O   UNL A   1      37.702  24.741  26.244  1.00  0.00    -0.223 OA
BRANCH  22  28
ATOM     28  C   UNL A   1      35.977  20.394  25.200  1.00  0.00     0.002 A 
ATOM     29  C   UNL A   1      34.263  18.363  24.313  1.00  0.00     0.082 A 
ATOM     30  C   UNL A   1      33.763  19.650  24.501  1.00  0.00    -0.041 A 
ATOM     31  C   UNL A   1      35.611  18.080  24.556  1.00  0.00    -0.041 A 
ATOM     32  C   UNL A   1      34.620  20.659  24.943  1.00  0.00    -0.051 A 
ATOM     33  H   UNL A   1      32.769  19.855  24.314  1.00  0.00     0.064 H 
ATOM     34  C   UNL A   1      36.467  19.098  24.992  1.00  0.00    -0.051 A 
ATOM     35  H   UNL A   1      35.974  17.124  24.414  1.00  0.00     0.064 H 
ATOM     36  H   UNL A   1      34.252  21.613  25.084  1.00  0.00     0.063 H 
ATOM     37  H   UNL A   1      37.464  18.893  25.163  1.00  0.00     0.063 H 
BRANCH  29  38
ATOM     38  S   UNL A   1      33.182  17.081  23.751  1.00  0.00     0.238 S 
ATOM     39  O   UNL A   1      33.681  15.802  24.227  1.00  0.00    -0.207 OA
ATOM     40  O   UNL A   1      32.857  17.327  22.377  1.00  0.00    -0.207 OA
BRANCH  38  41
ATOM     41  N   UNL A   1      31.778  17.351  24.636  1.00  0.00    -0.225 NA
ATOM     42  H   UNL A   1      30.967  17.251  24.026  1.00  0.00     0.137 HD
ATOM     43  H   UNL A   1      31.797  18.294  25.025  1.00  0.00     0.137 HD
ENDBRANCH  38  41
ENDBRANCH  29  38
ENDBRANCH  22  28
ENDBRANCH  12  21
ENDBRANCH   8  11
ENDBRANCH   4   7
ENDBRANCH   1   4
BRANCH   1  44
ATOM     44  C   UNL A   1      32.999  29.713  25.719  1.00  0.00    -0.052 C 
ATOM     45  H   UNL A   1      32.316  30.417  25.289  1.00  0.00     0.027 H 
ATOM     46  H   UNL A   1      33.938  29.655  25.210  1.00  0.00     0.027 H 
BRANCH  44  47
ATOM     47  C   UNL A   1      33.322  30.180  27.147  1.00  0.00    -0.052 C 
ATOM     48  H   UNL A   1      32.709  29.618  27.821  1.00  0.00     0.027 H 
ATOM     49  H   UNL A   1      33.133  31.233  27.153  1.00  0.00     0.027 H 
BRANCH  47  50
ATOM     50  C   UNL A   1      34.780  30.024  27.600  1.00  0.00    -0.036 C 
ATOM     51  H   UNL A   1      35.272  29.353  26.926  1.00  0.00     0.028 H 
ATOM     52  H   UNL A   1      34.756  29.656  28.604  1.00  0.00     0.028 H 
BRANCH  50  53
ATOM     53  C   UNL A   1      35.563  31.329  27.629  1.00  0.00     0.018 C 
ATOM     54  H   UNL A   1      35.331  31.890  26.748  1.00  0.00     0.049 H 
ATOM     55  H   UNL A   1      36.605  31.088  27.674  1.00  0.00     0.049 H 
BRANCH  53  56
ATOM     56  N   UNL A   1      35.238  32.140  28.801  1.00  0.00    -0.352 N 
ATOM     57  C   UNL A   1      35.635  31.969  30.110  1.00  0.00     0.251 C 
ATOM     58  H   UNL A   1      34.653  32.913  28.633  1.00  0.00     0.163 HD
ATOM     59  O   UNL A   1      35.022  32.501  31.027  1.00  0.00    -0.269 OA
BRANCH  57  60
ATOM     60  C   UNL A   1      36.802  31.117  30.396  1.00  0.00     0.039 A 
ATOM     61  C   UNL A   1      36.636  29.769  30.712  1.00  0.00    -0.049 A 
ATOM     62  C   UNL A   1      38.074  31.673  30.306  1.00  0.00    -0.049 A 
ATOM     63  C   UNL A   1      37.766  28.964  30.844  1.00  0.00    -0.053 A 
ATOM     64  H   UNL A   1      35.693  29.373  30.846  1.00  0.00     0.063 H 
ATOM     65  C   UNL A   1      39.177  30.850  30.289  1.00  0.00    -0.053 A 
ATOM     66  H   UNL A   1      38.190  32.697  30.251  1.00  0.00     0.063 H 
ATOM     67  C   UNL A   1      39.042  29.499  30.600  1.00  0.00    -0.014 A 
ATOM     68  H   UNL A   1      37.665  27.974  31.120  1.00  0.00     0.063 H 
ATOM     69  H   UNL A   1      40.105  31.233  30.047  1.00  0.00     0.063 H 
BRANCH  67  70
ATOM     70  C   UNL A   1      40.216  28.622  30.601  1.00  0.00     0.031 A 
ATOM     71  C   UNL A   1      40.830  28.345  31.934  1.00  0.00     0.074 A 
ATOM     72  C   UNL A   1      40.661  27.948  29.518  1.00  0.00     0.049 A 
ATOM     73  N   UNL A   1      42.024  28.643  32.332  1.00  0.00    -0.248 NA
ATOM     74  C   UNL A   1      39.995  27.721  32.971  1.00  0.00    -0.034 C 
ATOM     75  C   UNL A   1      40.057  27.837  28.186  1.00  0.00    -0.036 A 
ATOM     76  N   UNL A   1      41.742  27.121  29.427  1.00  0.00    -0.354 N 
ATOM     77  C   UNL A   1      42.153  28.123  33.619  1.00  0.00     0.074 A 
ATOM     78  C   UNL A   1      40.842  27.663  34.001  1.00  0.00    -0.034 C 
ATOM     79  H   UNL A   1      39.013  27.408  32.917  1.00  0.00     0.065 H 
ATOM     80  C   UNL A   1      40.640  26.827  27.506  1.00  0.00    -0.036 A 
ATOM     81  H   UNL A   1      39.301  28.440  27.823  1.00  0.00     0.065 H 
ATOM     82  C   UNL A   1      41.775  26.355  28.272  1.00  0.00     0.049 A 
ATOM     83  H   UNL A   1      42.438  27.073  30.120  1.00  0.00     0.167 HD
ATOM     84  C   UNL A   1      43.375  27.954  34.201  1.00  0.00     0.037 A 
ATOM     85  H   UNL A   1      40.592  27.333  34.947  1.00  0.00     0.065 H 
ATOM     86  H   UNL A   1      40.328  26.454  26.595  1.00  0.00     0.065 H 
ATOM     87  C   UNL A   1      42.670  25.391  27.958  1.00  0.00     0.037 A 
ATOM     88  C   UNL A   1      44.386  28.727  33.531  1.00  0.00     0.049 A 
ATOM     89  C   UNL A   1      43.886  25.633  28.767  1.00  0.00     0.074 A 
ATOM     90  C   UNL A   1      44.593  30.075  33.305  1.00  0.00    -0.036 A 
ATOM     91  N   UNL A   1      45.235  28.080  32.669  1.00  0.00    -0.354 N 
ATOM     92  N   UNL A   1      44.680  26.654  28.603  1.00  0.00    -0.248 NA
ATOM     93  C   UNL A   1      44.010  24.943  30.041  1.00  0.00    -0.034 C 
ATOM     94  C   UNL A   1      45.165  30.148  32.000  1.00  0.00    -0.036 A 
ATOM     95  H   UNL A   1      44.380  30.858  33.942  1.00  0.00     0.065 H 
ATOM     96  C   UNL A   1      45.313  28.841  31.533  1.00  0.00     0.049 A 
ATOM     97  H   UNL A   1      45.700  27.227  32.836  1.00  0.00     0.167 HD
ATOM     98  C   UNL A   1      45.079  26.995  29.885  1.00  0.00     0.074 A 
ATOM     99  C   UNL A   1      44.737  25.841  30.709  1.00  0.00    -0.034 C 
ATOM    100  H   UNL A   1      43.642  24.026  30.341  1.00  0.00     0.065 H 
ATOM    101  H   UNL A   1      45.421  31.009  31.493  1.00  0.00     0.065 H 
ATOM    102  C   UNL A   1      45.393  28.286  30.202  1.00  0.00     0.037 A 
ATOM    103  H   UNL A   1      45.024  25.731  31.694  1.00  0.00     0.065 H 
BRANCH  84 104
ATOM    104  C   UNL A   1      43.732  26.842  35.160  1.00  0.00     0.064 A 
ATOM    105  C   UNL A   1      44.295  27.166  36.414  1.00  0.00     0.173 A 
ATOM    106  C   UNL A   1      43.837  25.488  34.780  1.00  0.00     0.173 A 
ATOM    107  F   UNL A   1      44.265  28.426  36.874  1.00  0.00    -0.203 F 
ATOM    108  C   UNL A   1      44.988  26.223  37.180  1.00  0.00     0.198 A 
ATOM    109  C   UNL A   1      44.484  24.540  35.572  1.00  0.00     0.198 A 
ATOM    110  F   UNL A   1      43.421  25.053  33.585  1.00  0.00    -0.203 F 
ATOM    111  F   UNL A   1      45.619  26.607  38.297  1.00  0.00    -0.200 F 
ATOM    112  C   UNL A   1      45.090  24.913  36.753  1.00  0.00     0.200 A 
ATOM    113  F   UNL A   1      44.586  23.277  35.134  1.00  0.00    -0.200 F 
ATOM    114  F   UNL A   1      45.810  24.024  37.449  1.00  0.00    -0.200 F 
ENDBRANCH  84 104
BRANCH  87 115
ATOM    115  C   UNL A   1      42.447  24.149  27.190  1.00  0.00     0.064 A 
ATOM    116  C   UNL A   1      42.961  23.996  25.895  1.00  0.00     0.173 A 
ATOM    117  C   UNL A   1      41.968  22.985  27.822  1.00  0.00     0.173 A 
ATOM    118  F   UNL A   1      43.471  25.051  25.242  1.00  0.00    -0.203 F 
ATOM    119  C   UNL A   1      43.024  22.743  25.279  1.00  0.00     0.198 A 
ATOM    120  C   UNL A   1      42.026  21.737  27.204  1.00  0.00     0.198 A 
ATOM    121  F   UNL A   1      41.526  23.023  29.089  1.00  0.00    -0.203 F 
ATOM    122  F   UNL A   1      43.584  22.623  24.067  1.00  0.00    -0.200 F 
ATOM    123  C   UNL A   1      42.569  21.613  25.938  1.00  0.00     0.200 A 
ATOM    124  F   UNL A   1      41.615  20.647  27.868  1.00  0.00    -0.200 F 
ATOM    125  F   UNL A   1      42.693  20.403  25.376  1.00  0.00    -0.200 F 
ENDBRANCH  87 115
BRANCH 102 126
ATOM    126  C   UNL A   1      45.589  29.256  29.071  1.00  0.00     0.064 A 
ATOM    127  C   UNL A   1      46.805  29.435  28.389  1.00  0.00     0.173 A 
ATOM    128  C   UNL A   1      44.468  29.934  28.575  1.00  0.00     0.173 A 
ATOM    129  F   UNL A   1      47.899  28.746  28.734  1.00  0.00    -0.203 F 
ATOM    130  C   UNL A   1      46.901  30.294  27.295  1.00  0.00     0.198 A 
ATOM    131  C   UNL A   1      44.558  30.761  27.459  1.00  0.00     0.198 A 
ATOM    132  F   UNL A   1      43.268  29.757  29.150  1.00  0.00    -0.203 F 
ATOM    133  F   UNL A   1      48.078  30.462  26.672  1.00  0.00    -0.200 F 
ATOM    134  C   UNL A   1      45.776  30.951  26.827  1.00  0.00     0.200 A 
ATOM    135  F   UNL A   1      43.456  31.356  26.980  1.00  0.00    -0.200 F 
ATOM    136  F   UNL A   1      45.859  31.747  25.751  1.00  0.00    -0.200 F 
ENDBRANCH 102 126
ENDBRANCH  67  70
ENDBRANCH  57  60
ENDBRANCH  53  56
ENDBRANCH  50  53
ENDBRANCH  47  50
ENDBRANCH  44  47
ENDBRANCH   1  44
TORSDOF 17
ENDMDL
MODEL 9
REMARK VINA RESULT:     -12.1      4.308      8.355
REMARK SMILES NS(=O)(=O)c1ccc(-c2coc(=O)n2-c2ccc(C(=O)NCCCCCCNC(=O)c3ccc(-c4c5nc(c(-c6c(F)c(F)c(F)c(F)c6F)c6ccc([nH]6)c(-c6c(F)c(F)c(F)c(F)c6F)c6nc(c(-c7c(F)c(F)c(F)c(F)c7F)c7ccc4[nH]7)C=C6)C=C5)cc3)cc2)cc1
REMARK SMILES IDX 23 1 22 4 21 7 19 8 20 9 18 11 15 12 16 13 95 14 17 15 94 17
REMARK SMILES IDX 14 21 9 22 10 23 11 24 12 26 13 27 8 28 5 29 6 30 97 31 7 32
REMARK SMILES IDX 96 34 2 38 3 39 4 40 1 41 24 44 25 47 26 50 27 53 28 56
REMARK SMILES IDX 29 57 30 59 31 60 32 61 93 62 33 63 92 65 34 67 35 70 36 71
REMARK SMILES IDX 86 72 37 73 91 74 85 75 87 76 38 77 90 78 84 80 83 82 39 84
REMARK SMILES IDX 71 87 51 88 70 89 52 90 55 91 69 92 88 93 53 94 54 96 68 98
REMARK SMILES IDX 89 99 56 102 40 104 41 105 49 106 42 107 43 108 47 109
REMARK SMILES IDX 50 110 44 111 45 112 48 113 46 114 72 115 73 116 81 117
REMARK SMILES IDX 74 118 75 119 79 120 82 121 76 122 77 123 80 124 78 125
REMARK SMILES IDX 57 126 58 127 66 128 59 129 60 130 64 131 67 132 61 133
REMARK SMILES IDX 62 134 65 135 63 136
REMARK H PARENT 23 2 23 3 22 5 22 6 21 10 16 16 95 18 17 19 94 20 10 25 6 33
REMARK H PARENT 97 35 7 36 96 37 1 42 1 43 24 45 24 46 25 48 25 49 26 51 26 52
REMARK H PARENT 27 54 27 55 28 58 32 64 93 66 33 68 92 69 91 79 85 81 87 83
REMARK H PARENT 90 85 84 86 52 95 55 97 88 100 53 101 89 103
REMARK Flexibility Score: inf
ROOT
ATOM      1  C   UNL A   1      44.453  18.710  25.673  1.00  0.00    -0.036 C 
ATOM      2  H   UNL A   1      45.229  18.198  26.201  1.00  0.00     0.028 H 
ATOM      3  H   UNL A   1      44.274  18.289  24.705  1.00  0.00     0.028 H 
ENDROOT
BRANCH   1   4
ATOM      4  C   UNL A   1      44.888  20.163  25.458  1.00  0.00     0.018 C 
ATOM      5  H   UNL A   1      44.449  20.778  26.216  1.00  0.00     0.049 H 
ATOM      6  H   UNL A   1      45.954  20.219  25.512  1.00  0.00     0.049 H 
BRANCH   4   7
ATOM      7  N   UNL A   1      44.456  20.630  24.153  1.00  0.00    -0.352 N 
ATOM      8  C   UNL A   1      44.463  21.857  23.542  1.00  0.00     0.251 C 
ATOM      9  O   UNL A   1      44.023  21.918  22.393  1.00  0.00    -0.269 OA
ATOM     10  H   UNL A   1      44.080  19.915  23.589  1.00  0.00     0.163 HD
BRANCH   8  11
ATOM     11  C   UNL A   1      45.030  23.089  24.163  1.00  0.00     0.039 A 
ATOM     12  C   UNL A   1      45.931  25.560  25.171  1.00  0.00     0.053 A 
ATOM     13  C   UNL A   1      44.564  25.298  25.100  1.00  0.00    -0.037 A 
ATOM     14  C   UNL A   1      46.841  24.559  24.819  1.00  0.00    -0.037 A 
ATOM     15  C   UNL A   1      44.120  24.082  24.567  1.00  0.00    -0.047 A 
ATOM     16  H   UNL A   1      43.883  25.995  25.440  1.00  0.00     0.065 H 
ATOM     17  C   UNL A   1      46.389  23.312  24.379  1.00  0.00    -0.047 A 
ATOM     18  H   UNL A   1      47.855  24.742  24.885  1.00  0.00     0.065 H 
ATOM     19  H   UNL A   1      43.107  23.912  24.467  1.00  0.00     0.063 H 
ATOM     20  H   UNL A   1      47.067  22.551  24.214  1.00  0.00     0.063 H 
BRANCH  12  21
ATOM     21  N   UNL A   1      46.409  26.819  25.575  1.00  0.00    -0.242 N 
ATOM     22  C   UNL A   1      46.299  27.409  26.802  1.00  0.00     0.095 A 
ATOM     23  C   UNL A   1      46.777  28.640  26.661  1.00  0.00     0.121 A 
ATOM     24  O   UNL A   1      47.226  28.937  25.376  1.00  0.00    -0.415 OA
ATOM     25  H   UNL A   1      46.812  29.319  27.437  1.00  0.00     0.107 H 
ATOM     26  C   UNL A   1      46.999  27.734  24.706  1.00  0.00     0.424 A 
ATOM     27  O   UNL A   1      47.264  27.580  23.521  1.00  0.00    -0.223 OA
BRANCH  22  28
ATOM     28  C   UNL A   1      45.929  26.734  28.045  1.00  0.00     0.002 A 
ATOM     29  C   UNL A   1      45.279  25.465  30.457  1.00  0.00     0.082 A 
ATOM     30  C   UNL A   1      46.615  25.713  30.151  1.00  0.00    -0.041 A 
ATOM     31  C   UNL A   1      44.262  25.850  29.576  1.00  0.00    -0.041 A 
ATOM     32  C   UNL A   1      46.935  26.345  28.947  1.00  0.00    -0.051 A 
ATOM     33  H   UNL A   1      47.361  25.434  30.806  1.00  0.00     0.064 H 
ATOM     34  C   UNL A   1      44.589  26.490  28.375  1.00  0.00    -0.051 A 
ATOM     35  H   UNL A   1      43.275  25.663  29.811  1.00  0.00     0.064 H 
ATOM     36  H   UNL A   1      47.925  26.529  28.717  1.00  0.00     0.063 H 
ATOM     37  H   UNL A   1      43.841  26.783  27.729  1.00  0.00     0.063 H 
BRANCH  29  38
ATOM     38  S   UNL A   1      44.868  24.666  31.981  1.00  0.00     0.238 S 
ATOM     39  O   UNL A   1      46.052  24.619  32.821  1.00  0.00    -0.207 OA
ATOM     40  O   UNL A   1      44.073  23.509  31.690  1.00  0.00    -0.207 OA
BRANCH  38  41
ATOM     41  N   UNL A   1      43.851  25.776  32.731  1.00  0.00    -0.225 NA
ATOM     42  H   UNL A   1      43.383  25.329  33.518  1.00  0.00     0.137 HD
ATOM     43  H   UNL A   1      43.155  26.105  32.062  1.00  0.00     0.137 HD
ENDBRANCH  38  41
ENDBRANCH  29  38
ENDBRANCH  22  28
ENDBRANCH  12  21
ENDBRANCH   8  11
ENDBRANCH   4   7
ENDBRANCH   1   4
BRANCH   1  44
ATOM     44  C   UNL A   1      43.150  18.573  26.472  1.00  0.00    -0.052 C 
ATOM     45  H   UNL A   1      43.376  18.754  27.503  1.00  0.00     0.027 H 
ATOM     46  H   UNL A   1      42.788  17.586  26.274  1.00  0.00     0.027 H 
BRANCH  44  47
ATOM     47  C   UNL A   1      42.015  19.527  26.063  1.00  0.00    -0.052 C 
ATOM     48  H   UNL A   1      41.149  18.933  25.857  1.00  0.00     0.027 H 
ATOM     49  H   UNL A   1      42.389  20.069  25.220  1.00  0.00     0.027 H 
BRANCH  47  50
ATOM     50  C   UNL A   1      41.619  20.593  27.093  1.00  0.00    -0.036 C 
ATOM     51  H   UNL A   1      42.362  20.610  27.863  1.00  0.00     0.028 H 
ATOM     52  H   UNL A   1      40.651  20.324  27.461  1.00  0.00     0.028 H 
BRANCH  50  53
ATOM     53  C   UNL A   1      41.497  21.996  26.517  1.00  0.00     0.018 C 
ATOM     54  H   UNL A   1      42.240  22.124  25.758  1.00  0.00     0.049 H 
ATOM     55  H   UNL A   1      41.634  22.694  27.317  1.00  0.00     0.049 H 
BRANCH  53  56
ATOM     56  N   UNL A   1      40.180  22.238  25.931  1.00  0.00    -0.352 N 
ATOM     57  C   UNL A   1      39.292  23.260  26.186  1.00  0.00     0.251 C 
ATOM     58  H   UNL A   1      39.886  21.578  25.262  1.00  0.00     0.163 HD
ATOM     59  O   UNL A   1      38.107  23.152  25.892  1.00  0.00    -0.269 OA
BRANCH  57  60
ATOM     60  C   UNL A   1      39.783  24.485  26.839  1.00  0.00     0.039 A 
ATOM     61  C   UNL A   1      40.523  25.425  26.122  1.00  0.00    -0.049 A 
ATOM     62  C   UNL A   1      39.461  24.706  28.174  1.00  0.00    -0.049 A 
ATOM     63  C   UNL A   1      40.854  26.632  26.734  1.00  0.00    -0.053 A 
ATOM     64  H   UNL A   1      40.820  25.231  25.153  1.00  0.00     0.063 H 
ATOM     65  C   UNL A   1      39.659  25.951  28.726  1.00  0.00    -0.053 A 
ATOM     66  H   UNL A   1      39.074  23.940  28.748  1.00  0.00     0.063 H 
ATOM     67  C   UNL A   1      40.393  26.910  28.033  1.00  0.00    -0.014 A 
ATOM     68  H   UNL A   1      41.438  27.321  26.235  1.00  0.00     0.063 H 
ATOM     69  H   UNL A   1      39.264  26.175  29.653  1.00  0.00     0.063 H 
BRANCH  67  70
ATOM     70  C   UNL A   1      40.622  28.232  28.622  1.00  0.00     0.031 A 
ATOM     71  C   UNL A   1      41.849  28.952  28.167  1.00  0.00     0.074 A 
ATOM     72  C   UNL A   1      39.732  28.878  29.407  1.00  0.00     0.049 A 
ATOM     73  N   UNL A   1      42.861  29.320  28.884  1.00  0.00    -0.248 NA
ATOM     74  C   UNL A   1      41.999  29.239  26.733  1.00  0.00    -0.034 C 
ATOM     75  C   UNL A   1      38.358  28.500  29.750  1.00  0.00    -0.036 A 
ATOM     76  N   UNL A   1      39.864  30.099  30.001  1.00  0.00    -0.354 N 
ATOM     77  C   UNL A   1      43.719  30.012  28.030  1.00  0.00     0.074 A 
ATOM     78  C   UNL A   1      43.192  29.838  26.701  1.00  0.00    -0.034 C 
ATOM     79  H   UNL A   1      41.352  29.033  25.956  1.00  0.00     0.065 H 
ATOM     80  C   UNL A   1      37.715  29.559  30.287  1.00  0.00    -0.036 A 
ATOM     81  H   UNL A   1      37.944  27.565  29.605  1.00  0.00     0.065 H 
ATOM     82  C   UNL A   1      38.681  30.618  30.502  1.00  0.00     0.049 A 
ATOM     83  H   UNL A   1      40.725  30.570  30.068  1.00  0.00     0.167 HD
ATOM     84  C   UNL A   1      44.703  30.824  28.512  1.00  0.00     0.037 A 
ATOM     85  H   UNL A   1      43.674  30.137  25.838  1.00  0.00     0.065 H 
ATOM     86  H   UNL A   1      36.708  29.606  30.506  1.00  0.00     0.065 H 
ATOM     87  C   UNL A   1      38.495  31.838  31.055  1.00  0.00     0.037 A 
ATOM     88  C   UNL A   1      44.984  30.543  29.896  1.00  0.00     0.049 A 
ATOM     89  C   UNL A   1      39.815  32.322  31.518  1.00  0.00     0.074 A 
ATOM     90  C   UNL A   1      45.442  29.442  30.593  1.00  0.00    -0.036 A 
ATOM     91  N   UNL A   1      44.474  31.389  30.847  1.00  0.00    -0.354 N 
ATOM     92  N   UNL A   1      40.480  31.794  32.507  1.00  0.00    -0.248 NA
ATOM     93  C   UNL A   1      40.592  33.157  30.617  1.00  0.00    -0.034 C 
ATOM     94  C   UNL A   1      44.737  29.470  31.833  1.00  0.00    -0.036 A 
ATOM     95  H   UNL A   1      46.143  28.750  30.284  1.00  0.00     0.065 H 
ATOM     96  C   UNL A   1      43.930  30.608  31.832  1.00  0.00     0.049 A 
ATOM     97  H   UNL A   1      44.495  32.375  30.826  1.00  0.00     0.167 HD
ATOM     98  C   UNL A   1      41.806  31.867  32.114  1.00  0.00     0.074 A 
ATOM     99  C   UNL A   1      41.823  32.820  31.009  1.00  0.00    -0.034 C 
ATOM    100  H   UNL A   1      40.283  33.819  29.887  1.00  0.00     0.065 H 
ATOM    101  H   UNL A   1      44.810  28.774  32.592  1.00  0.00     0.065 H 
ATOM    102  C   UNL A   1      42.716  30.942  32.539  1.00  0.00     0.037 A 
ATOM    103  H   UNL A   1      42.686  33.190  30.581  1.00  0.00     0.065 H 
BRANCH  84 104
ATOM    104  C   UNL A   1      45.184  32.093  27.847  1.00  0.00     0.064 A 
ATOM    105  C   UNL A   1      46.568  32.281  27.637  1.00  0.00     0.173 A 
ATOM    106  C   UNL A   1      44.386  33.246  27.699  1.00  0.00     0.173 A 
ATOM    107  F   UNL A   1      47.426  31.257  27.762  1.00  0.00    -0.203 F 
ATOM    108  C   UNL A   1      47.114  33.544  27.390  1.00  0.00     0.198 A 
ATOM    109  C   UNL A   1      44.930  34.495  27.401  1.00  0.00     0.198 A 
ATOM    110  F   UNL A   1      43.071  33.236  27.947  1.00  0.00    -0.203 F 
ATOM    111  F   UNL A   1      48.444  33.694  27.330  1.00  0.00    -0.200 F 
ATOM    112  C   UNL A   1      46.294  34.652  27.281  1.00  0.00     0.200 A 
ATOM    113  F   UNL A   1      44.121  35.561  27.315  1.00  0.00    -0.200 F 
ATOM    114  F   UNL A   1      46.819  35.873  27.113  1.00  0.00    -0.200 F 
ENDBRANCH  84 104
BRANCH  87 115
ATOM    115  C   UNL A   1      37.298  32.701  30.987  1.00  0.00     0.064 A 
ATOM    116  C   UNL A   1      36.996  33.432  29.829  1.00  0.00     0.173 A 
ATOM    117  C   UNL A   1      36.280  32.602  31.955  1.00  0.00     0.173 A 
ATOM    118  F   UNL A   1      37.900  33.539  28.844  1.00  0.00    -0.203 F 
ATOM    119  C   UNL A   1      35.735  34.002  29.635  1.00  0.00     0.198 A 
ATOM    120  C   UNL A   1      35.024  33.176  31.763  1.00  0.00     0.198 A 
ATOM    121  F   UNL A   1      36.452  31.861  33.061  1.00  0.00    -0.203 F 
ATOM    122  F   UNL A   1      35.460  34.636  28.486  1.00  0.00    -0.200 F 
ATOM    123  C   UNL A   1      34.746  33.864  30.595  1.00  0.00     0.200 A 
ATOM    124  F   UNL A   1      34.065  33.003  32.684  1.00  0.00    -0.200 F 
ATOM    125  F   UNL A   1      33.517  34.350  30.378  1.00  0.00    -0.200 F 
ENDBRANCH  87 115
BRANCH 102 126
ATOM    126  C   UNL A   1      42.317  30.037  33.670  1.00  0.00     0.064 A 
ATOM    127  C   UNL A   1      41.771  28.753  33.497  1.00  0.00     0.173 A 
ATOM    128  C   UNL A   1      42.622  30.434  34.979  1.00  0.00     0.173 A 
ATOM    129  F   UNL A   1      41.546  28.257  32.274  1.00  0.00    -0.203 F 
ATOM    130  C   UNL A   1      41.497  27.930  34.588  1.00  0.00     0.198 A 
ATOM    131  C   UNL A   1      42.383  29.595  36.064  1.00  0.00     0.198 A 
ATOM    132  F   UNL A   1      43.199  31.626  35.202  1.00  0.00    -0.203 F 
ATOM    133  F   UNL A   1      40.958  26.716  34.396  1.00  0.00    -0.200 F 
ATOM    134  C   UNL A   1      41.809  28.349  35.870  1.00  0.00     0.200 A 
ATOM    135  F   UNL A   1      42.732  29.985  37.297  1.00  0.00    -0.200 F 
ATOM    136  F   UNL A   1      41.581  27.543  36.917  1.00  0.00    -0.200 F 
ENDBRANCH 102 126
ENDBRANCH  67  70
ENDBRANCH  57  60
ENDBRANCH  53  56
ENDBRANCH  50  53
ENDBRANCH  47  50
ENDBRANCH  44  47
ENDBRANCH   1  44
TORSDOF 17
ENDMDL
MODEL 10
REMARK VINA RESULT:     -12.1      4.902      9.246
REMARK SMILES NS(=O)(=O)c1ccc(-c2coc(=O)n2-c2ccc(C(=O)NCCCCCCNC(=O)c3ccc(-c4c5nc(c(-c6c(F)c(F)c(F)c(F)c6F)c6ccc([nH]6)c(-c6c(F)c(F)c(F)c(F)c6F)c6nc(c(-c7c(F)c(F)c(F)c(F)c7F)c7ccc4[nH]7)C=C6)C=C5)cc3)cc2)cc1
REMARK SMILES IDX 23 1 22 4 21 7 19 8 20 9 18 11 15 12 16 13 95 14 17 15 94 17
REMARK SMILES IDX 14 21 9 22 10 23 11 24 12 26 13 27 8 28 5 29 6 30 97 31 7 32
REMARK SMILES IDX 96 34 2 38 3 39 4 40 1 41 24 44 25 47 26 50 27 53 28 56
REMARK SMILES IDX 29 57 30 59 31 60 32 61 93 62 33 63 92 65 34 67 35 70 36 71
REMARK SMILES IDX 86 72 37 73 91 74 85 75 87 76 38 77 90 78 84 80 83 82 39 84
REMARK SMILES IDX 71 87 51 88 70 89 52 90 55 91 69 92 88 93 53 94 54 96 68 98
REMARK SMILES IDX 89 99 56 102 40 104 41 105 49 106 42 107 43 108 47 109
REMARK SMILES IDX 50 110 44 111 45 112 48 113 46 114 72 115 73 116 81 117
REMARK SMILES IDX 74 118 75 119 79 120 82 121 76 122 77 123 80 124 78 125
REMARK SMILES IDX 57 126 58 127 66 128 59 129 60 130 64 131 67 132 61 133
REMARK SMILES IDX 62 134 65 135 63 136
REMARK H PARENT 23 2 23 3 22 5 22 6 21 10 16 16 95 18 17 19 94 20 10 25 6 33
REMARK H PARENT 97 35 7 36 96 37 1 42 1 43 24 45 24 46 25 48 25 49 26 51 26 52
REMARK H PARENT 27 54 27 55 28 58 32 64 93 66 33 68 92 69 91 79 85 81 87 83
REMARK H PARENT 90 85 84 86 52 95 55 97 88 100 53 101 89 103
REMARK Flexibility Score: inf
ROOT
ATOM      1  C   UNL A   1      45.611  27.236  26.451  1.00  0.00    -0.036 C 
ATOM      2  H   UNL A   1      46.559  27.649  26.177  1.00  0.00     0.028 H 
ATOM      3  H   UNL A   1      44.806  27.922  26.282  1.00  0.00     0.028 H 
ENDROOT
BRANCH   1   4
ATOM      4  C   UNL A   1      45.630  26.924  27.949  1.00  0.00     0.018 C 
ATOM      5  H   UNL A   1      46.577  27.213  28.358  1.00  0.00     0.049 H 
ATOM      6  H   UNL A   1      44.843  27.465  28.428  1.00  0.00     0.049 H 
BRANCH   4   7
ATOM      7  N   UNL A   1      45.429  25.503  28.170  1.00  0.00    -0.352 N 
ATOM      8  C   UNL A   1      45.302  24.734  29.298  1.00  0.00     0.251 C 
ATOM      9  O   UNL A   1      45.126  23.525  29.139  1.00  0.00    -0.269 OA
ATOM     10  H   UNL A   1      45.373  24.984  27.335  1.00  0.00     0.163 HD
BRANCH   8  11
ATOM     11  C   UNL A   1      45.298  25.287  30.683  1.00  0.00     0.039 A 
ATOM     12  C   UNL A   1      45.468  26.131  33.365  1.00  0.00     0.053 A 
ATOM     13  C   UNL A   1      46.634  25.900  32.636  1.00  0.00    -0.037 A 
ATOM     14  C   UNL A   1      44.228  26.022  32.729  1.00  0.00    -0.037 A 
ATOM     15  C   UNL A   1      46.544  25.447  31.315  1.00  0.00    -0.047 A 
ATOM     16  H   UNL A   1      47.557  26.062  33.068  1.00  0.00     0.065 H 
ATOM     17  C   UNL A   1      44.151  25.664  31.380  1.00  0.00    -0.047 A 
ATOM     18  H   UNL A   1      43.362  26.208  33.259  1.00  0.00     0.065 H 
ATOM     19  H   UNL A   1      47.408  25.227  30.795  1.00  0.00     0.063 H 
ATOM     20  H   UNL A   1      43.239  25.681  30.897  1.00  0.00     0.063 H 
BRANCH  12  21
ATOM     21  N   UNL A   1      45.519  26.456  34.732  1.00  0.00    -0.242 N 
ATOM     22  C   UNL A   1      45.406  25.616  35.804  1.00  0.00     0.095 A 
ATOM     23  C   UNL A   1      45.379  26.396  36.878  1.00  0.00     0.121 A 
ATOM     24  O   UNL A   1      45.476  27.758  36.601  1.00  0.00    -0.415 OA
ATOM     25  H   UNL A   1      45.292  26.024  37.837  1.00  0.00     0.107 H 
ATOM     26  C   UNL A   1      45.591  27.761  35.210  1.00  0.00     0.424 A 
ATOM     27  O   UNL A   1      45.698  28.794  34.562  1.00  0.00    -0.223 OA
BRANCH  22  28
ATOM     28  C   UNL A   1      45.511  24.159  35.762  1.00  0.00     0.002 A 
ATOM     29  C   UNL A   1      45.745  21.367  35.746  1.00  0.00     0.082 A 
ATOM     30  C   UNL A   1      46.693  22.131  36.423  1.00  0.00    -0.041 A 
ATOM     31  C   UNL A   1      44.678  21.980  35.082  1.00  0.00    -0.041 A 
ATOM     32  C   UNL A   1      46.573  23.523  36.429  1.00  0.00    -0.051 A 
ATOM     33  H   UNL A   1      47.476  21.674  36.917  1.00  0.00     0.064 H 
ATOM     34  C   UNL A   1      44.558  23.375  35.098  1.00  0.00    -0.051 A 
ATOM     35  H   UNL A   1      43.979  21.406  34.583  1.00  0.00     0.064 H 
ATOM     36  H   UNL A   1      47.274  24.091  36.929  1.00  0.00     0.063 H 
ATOM     37  H   UNL A   1      43.766  23.828  34.617  1.00  0.00     0.063 H 
BRANCH  29  38
ATOM     38  S   UNL A   1      45.892  19.604  35.737  1.00  0.00     0.238 S 
ATOM     39  O   UNL A   1      44.722  19.038  35.090  1.00  0.00    -0.207 OA
ATOM     40  O   UNL A   1      46.352  19.178  37.026  1.00  0.00    -0.207 OA
BRANCH  38  41
ATOM     41  N   UNL A   1      47.153  19.332  34.659  1.00  0.00    -0.225 NA
ATOM     42  H   UNL A   1      46.901  18.574  34.025  1.00  0.00     0.137 HD
ATOM     43  H   UNL A   1      47.995  19.078  35.177  1.00  0.00     0.137 HD
ENDBRANCH  38  41
ENDBRANCH  29  38
ENDBRANCH  22  28
ENDBRANCH  12  21
ENDBRANCH   8  11
ENDBRANCH   4   7
ENDBRANCH   1   4
BRANCH   1  44
ATOM     44  C   UNL A   1      45.345  26.006  25.572  1.00  0.00    -0.052 C 
ATOM     45  H   UNL A   1      45.835  25.168  26.023  1.00  0.00     0.027 H 
ATOM     46  H   UNL A   1      45.716  26.255  24.601  1.00  0.00     0.027 H 
BRANCH  44  47
ATOM     47  C   UNL A   1      43.865  25.637  25.374  1.00  0.00    -0.052 C 
ATOM     48  H   UNL A   1      43.408  26.418  24.804  1.00  0.00     0.027 H 
ATOM     49  H   UNL A   1      43.467  25.518  26.360  1.00  0.00     0.027 H 
BRANCH  47  50
ATOM     50  C   UNL A   1      43.586  24.308  24.658  1.00  0.00    -0.036 C 
ATOM     51  H   UNL A   1      44.367  24.139  23.947  1.00  0.00     0.028 H 
ATOM     52  H   UNL A   1      42.624  24.400  24.199  1.00  0.00     0.028 H 
BRANCH  50  53
ATOM     53  C   UNL A   1      43.517  23.106  25.588  1.00  0.00     0.018 C 
ATOM     54  H   UNL A   1      43.663  23.439  26.594  1.00  0.00     0.049 H 
ATOM     55  H   UNL A   1      44.280  22.416  25.292  1.00  0.00     0.049 H 
BRANCH  53  56
ATOM     56  N   UNL A   1      42.231  22.417  25.502  1.00  0.00    -0.352 N 
ATOM     57  C   UNL A   1      41.085  22.626  26.239  1.00  0.00     0.251 C 
ATOM     58  H   UNL A   1      42.176  21.704  24.826  1.00  0.00     0.163 HD
ATOM     59  O   UNL A   1      40.215  21.766  26.306  1.00  0.00    -0.269 OA
BRANCH  57  60
ATOM     60  C   UNL A   1      40.927  23.897  26.967  1.00  0.00     0.039 A 
ATOM     61  C   UNL A   1      41.700  24.169  28.097  1.00  0.00    -0.049 A 
ATOM     62  C   UNL A   1      40.023  24.836  26.484  1.00  0.00    -0.049 A 
ATOM     63  C   UNL A   1      41.620  25.433  28.679  1.00  0.00    -0.053 A 
ATOM     64  H   UNL A   1      42.320  23.447  28.495  1.00  0.00     0.063 H 
ATOM     65  C   UNL A   1      40.055  26.124  26.967  1.00  0.00    -0.053 A 
ATOM     66  H   UNL A   1      39.331  24.569  25.766  1.00  0.00     0.063 H 
ATOM     67  C   UNL A   1      40.817  26.426  28.093  1.00  0.00    -0.014 A 
ATOM     68  H   UNL A   1      42.150  25.638  29.540  1.00  0.00     0.063 H 
ATOM     69  H   UNL A   1      39.514  26.867  26.496  1.00  0.00     0.063 H 
BRANCH  67  70
ATOM     70  C   UNL A   1      40.842  27.793  28.622  1.00  0.00     0.031 A 
ATOM     71  C   UNL A   1      41.936  28.674  28.116  1.00  0.00     0.074 A 
ATOM     72  C   UNL A   1      39.871  28.326  29.394  1.00  0.00     0.049 A 
ATOM     73  N   UNL A   1      42.886  29.227  28.799  1.00  0.00    -0.248 NA
ATOM     74  C   UNL A   1      42.025  28.917  26.669  1.00  0.00    -0.034 C 
ATOM     75  C   UNL A   1      38.576  27.753  29.777  1.00  0.00    -0.036 A 
ATOM     76  N   UNL A   1      39.816  29.577  29.934  1.00  0.00    -0.354 N 
ATOM     77  C   UNL A   1      43.616  30.006  27.903  1.00  0.00     0.074 A 
ATOM     78  C   UNL A   1      43.109  29.693  26.591  1.00  0.00    -0.034 C 
ATOM     79  H   UNL A   1      41.410  28.579  25.912  1.00  0.00     0.065 H 
ATOM     80  C   UNL A   1      37.781  28.722  30.279  1.00  0.00    -0.036 A 
ATOM     81  H   UNL A   1      38.312  26.759  29.678  1.00  0.00     0.065 H 
ATOM     82  C   UNL A   1      38.571  29.927  30.433  1.00  0.00     0.049 A 
ATOM     83  H   UNL A   1      40.593  30.180  29.967  1.00  0.00     0.167 HD
ATOM     84  C   UNL A   1      44.465  30.982  28.334  1.00  0.00     0.037 A 
ATOM     85  H   UNL A   1      43.529  30.025  25.708  1.00  0.00     0.065 H 
ATOM     86  H   UNL A   1      36.781  28.621  30.514  1.00  0.00     0.065 H 
ATOM     87  C   UNL A   1      38.202  31.126  30.938  1.00  0.00     0.037 A 
ATOM     88  C   UNL A   1      44.801  30.810  29.722  1.00  0.00     0.049 A 
ATOM     89  C   UNL A   1      39.434  31.830  31.357  1.00  0.00     0.074 A 
ATOM     90  C   UNL A   1      45.434  29.825  30.458  1.00  0.00    -0.036 A 
ATOM     91  N   UNL A   1      44.175  31.607  30.646  1.00  0.00    -0.354 N 
ATOM     92  N   UNL A   1      40.184  31.456  32.355  1.00  0.00    -0.248 NA
ATOM     93  C   UNL A   1      40.062  32.736  30.409  1.00  0.00    -0.034 C 
ATOM     94  C   UNL A   1      44.746  29.797  31.707  1.00  0.00    -0.036 A 
ATOM     95  H   UNL A   1      46.231  29.238  30.166  1.00  0.00     0.065 H 
ATOM     96  C   UNL A   1      43.771  30.795  31.672  1.00  0.00     0.049 A 
ATOM     97  H   UNL A   1      44.041  32.582  30.583  1.00  0.00     0.167 HD
ATOM     98  C   UNL A   1      41.479  31.718  31.937  1.00  0.00     0.074 A 
ATOM     99  C   UNL A   1      41.334  32.612  30.793  1.00  0.00    -0.034 C 
ATOM    100  H   UNL A   1      39.645  33.308  29.657  1.00  0.00     0.065 H 
ATOM    101  H   UNL A   1      44.934  29.156  32.493  1.00  0.00     0.065 H 
ATOM    102  C   UNL A   1      42.527  30.966  32.385  1.00  0.00     0.037 A 
ATOM    103  H   UNL A   1      42.124  33.093  30.335  1.00  0.00     0.065 H 
BRANCH  84 104
ATOM    104  C   UNL A   1      44.735  32.279  27.608  1.00  0.00     0.064 A 
ATOM    105  C   UNL A   1      45.941  32.432  26.890  1.00  0.00     0.173 A 
ATOM    106  C   UNL A   1      44.017  33.469  27.846  1.00  0.00     0.173 A 
ATOM    107  F   UNL A   1      46.714  31.370  26.615  1.00  0.00    -0.203 F 
ATOM    108  C   UNL A   1      46.431  33.690  26.523  1.00  0.00     0.198 A 
ATOM    109  C   UNL A   1      44.483  34.717  27.432  1.00  0.00     0.198 A 
ATOM    110  F   UNL A   1      42.900  33.489  28.582  1.00  0.00    -0.203 F 
ATOM    111  F   UNL A   1      47.643  33.795  25.962  1.00  0.00    -0.200 F 
ATOM    112  C   UNL A   1      45.705  34.832  26.803  1.00  0.00     0.200 A 
ATOM    113  F   UNL A   1      43.773  35.815  27.727  1.00  0.00    -0.200 F 
ATOM    114  F   UNL A   1      46.202  36.042  26.515  1.00  0.00    -0.200 F 
ENDBRANCH  84 104
BRANCH  87 115
ATOM    115  C   UNL A   1      36.884  31.788  30.854  1.00  0.00     0.064 A 
ATOM    116  C   UNL A   1      36.070  31.928  31.988  1.00  0.00     0.173 A 
ATOM    117  C   UNL A   1      36.525  32.544  29.721  1.00  0.00     0.173 A 
ATOM    118  F   UNL A   1      36.369  31.270  33.118  1.00  0.00    -0.203 F 
ATOM    119  C   UNL A   1      34.979  32.802  31.999  1.00  0.00     0.198 A 
ATOM    120  C   UNL A   1      35.433  33.410  29.732  1.00  0.00     0.198 A 
ATOM    121  F   UNL A   1      37.286  32.530  28.617  1.00  0.00    -0.203 F 
ATOM    122  F   UNL A   1      34.265  32.962  33.121  1.00  0.00    -0.200 F 
ATOM    123  C   UNL A   1      34.669  33.551  30.876  1.00  0.00     0.200 A 
ATOM    124  F   UNL A   1      35.167  34.157  28.651  1.00  0.00    -0.200 F 
ATOM    125  F   UNL A   1      33.667  34.440  30.909  1.00  0.00    -0.200 F 
ENDBRANCH  87 115
BRANCH 102 126
ATOM    126  C   UNL A   1      42.286  30.061  33.560  1.00  0.00     0.064 A 
ATOM    127  C   UNL A   1      41.851  28.728  33.451  1.00  0.00     0.173 A 
ATOM    128  C   UNL A   1      42.635  30.520  34.836  1.00  0.00     0.173 A 
ATOM    129  F   UNL A   1      41.596  28.179  32.258  1.00  0.00    -0.203 F 
ATOM    130  C   UNL A   1      41.725  27.915  34.576  1.00  0.00     0.198 A 
ATOM    131  C   UNL A   1      42.545  29.695  35.953  1.00  0.00     0.198 A 
ATOM    132  F   UNL A   1      43.112  31.766  34.994  1.00  0.00    -0.203 F 
ATOM    133  F   UNL A   1      41.290  26.651  34.448  1.00  0.00    -0.200 F 
ATOM    134  C   UNL A   1      42.078  28.397  35.825  1.00  0.00     0.200 A 
ATOM    135  F   UNL A   1      42.934  30.150  37.152  1.00  0.00    -0.200 F 
ATOM    136  F   UNL A   1      41.993  27.603  36.903  1.00  0.00    -0.200 F 
ENDBRANCH 102 126
ENDBRANCH  67  70
ENDBRANCH  57  60
ENDBRANCH  53  56
ENDBRANCH  50  53
ENDBRANCH  47  50
ENDBRANCH  44  47
ENDBRANCH   1  44
TORSDOF 17
ENDMDL
