MODEL 1
REMARK VINA RESULT:     -11.4      0.000      0.000
REMARK SMILES Cc1cc(C)c2c(OCCCC(=O)NCCCCCCNC(=O)c3ccc(-c4c5nc(c(-c6c(F)c(F)c(F)c(F)c6F)c6ccc([nH]6)c(-c6c(F)c(F)c(F)c(F)c6F)c6nc(c(-c7c(F)c(F)c(F)c(F)c7F)c7ccc4[nH]7)C=C6)C=C5)cc3)nsc2n1
REMARK SMILES IDX 16 1 15 4 14 7 12 8 13 9 11 11 10 14 9 17 8 20 7 21 2 22
REMARK SMILES IDX 3 23 90 24 4 25 89 27 6 28 88 29 87 30 1 31 5 35 17 39 18 42
REMARK SMILES IDX 19 45 20 48 21 51 22 52 23 54 24 55 25 56 86 57 26 58 85 60
REMARK SMILES IDX 27 62 28 65 29 66 79 67 30 68 84 69 78 70 80 71 31 72 83 73
REMARK SMILES IDX 77 75 76 77 32 79 64 82 44 83 63 84 45 85 48 86 62 87 81 88
REMARK SMILES IDX 46 89 47 91 61 93 82 94 49 97 33 99 34 100 42 101 35 102
REMARK SMILES IDX 36 103 40 104 43 105 37 106 38 107 41 108 39 109 65 110
REMARK SMILES IDX 66 111 74 112 67 113 68 114 72 115 75 116 69 117 70 118
REMARK SMILES IDX 73 119 71 120 50 121 51 122 59 123 52 124 53 125 57 126
REMARK SMILES IDX 60 127 54 128 55 129 58 130 56 131
REMARK H PARENT 16 2 16 3 15 5 15 6 14 10 11 12 11 13 10 15 10 16 9 18 9 19
REMARK H PARENT 3 26 1 32 1 33 1 34 5 36 5 37 5 38 17 40 17 41 18 43 18 44
REMARK H PARENT 19 46 19 47 20 49 20 50 21 53 25 59 86 61 26 63 85 64 84 74
REMARK H PARENT 78 76 80 78 83 80 77 81 45 90 48 92 81 95 46 96 82 98
REMARK Flexibility Score: inf
ROOT
ATOM      1  C   UNL A   1      39.835  22.153  26.110  1.00  0.00    -0.036 C 
ATOM      2  H   UNL A   1      40.620  22.752  25.698  1.00  0.00     0.028 H 
ATOM      3  H   UNL A   1      39.524  21.339  25.490  1.00  0.00     0.028 H 
ENDROOT
BRANCH   1   4
ATOM      4  C   UNL A   1      38.566  23.068  26.264  1.00  0.00     0.017 C 
ATOM      5  H   UNL A   1      37.978  22.684  27.072  1.00  0.00     0.049 H 
ATOM      6  H   UNL A   1      38.934  24.059  26.435  1.00  0.00     0.049 H 
BRANCH   4   7
ATOM      7  N   UNL A   1      37.654  23.158  25.005  1.00  0.00    -0.356 N 
ATOM      8  C   UNL A   1      36.485  23.505  24.369  1.00  0.00     0.220 C 
ATOM      9  O   UNL A   1      36.625  23.284  23.142  1.00  0.00    -0.275 OA
ATOM     10  H   UNL A   1      38.199  22.759  24.289  1.00  0.00     0.163 HD
BRANCH   8  11
ATOM     11  C   UNL A   1      35.077  24.285  24.737  1.00  0.00     0.030 C 
ATOM     12  H   UNL A   1      34.443  23.471  25.019  1.00  0.00     0.037 H 
ATOM     13  H   UNL A   1      35.582  25.077  25.251  1.00  0.00     0.037 H 
BRANCH  11  14
ATOM     14  C   UNL A   1      34.023  25.295  24.030  1.00  0.00    -0.010 C 
ATOM     15  H   UNL A   1      33.371  25.565  24.834  1.00  0.00     0.031 H 
ATOM     16  H   UNL A   1      34.764  25.863  23.508  1.00  0.00     0.031 H 
BRANCH  14  17
ATOM     17  C   UNL A   1      33.026  25.174  22.786  1.00  0.00     0.090 C 
ATOM     18  H   UNL A   1      33.428  25.824  22.037  1.00  0.00     0.071 H 
ATOM     19  H   UNL A   1      33.003  24.111  22.668  1.00  0.00     0.071 H 
BRANCH  17  20
ATOM     20  O   UNL A   1      31.616  25.452  22.811  1.00  0.00    -0.477 OA
BRANCH  20  21
ATOM     21  C   UNL A   1      31.093  26.664  23.132  1.00  0.00     0.235 A 
ATOM     22  C   UNL A   1      31.890  29.048  26.278  1.00  0.00     0.039 A 
ATOM     23  C   UNL A   1      31.586  27.730  26.611  1.00  0.00    -0.037 A 
ATOM     24  N   UNL A   1      31.526  29.603  25.103  1.00  0.00    -0.240 NA
ATOM     25  C   UNL A   1      30.986  26.859  25.679  1.00  0.00    -0.034 A 
ATOM     26  H   UNL A   1      31.806  27.384  27.558  1.00  0.00     0.064 H 
ATOM     27  C   UNL A   1      31.132  28.688  24.193  1.00  0.00     0.147 A 
ATOM     28  C   UNL A   1      31.027  27.322  24.381  1.00  0.00     0.078 A 
ATOM     29  S   UNL A   1      30.636  29.002  22.595  1.00  0.00    -0.012 S 
ATOM     30  N   UNL A   1      30.732  27.406  22.083  1.00  0.00    -0.153 NA
BRANCH  22  31
ATOM     31  C   UNL A   1      32.737  29.867  27.219  1.00  0.00    -0.022 C 
ATOM     32  H   UNL A   1      32.150  30.666  27.623  1.00  0.00     0.030 H 
ATOM     33  H   UNL A   1      33.572  30.272  26.688  1.00  0.00     0.030 H 
ATOM     34  H   UNL A   1      33.087  29.244  28.015  1.00  0.00     0.030 H 
ENDBRANCH  22  31
BRANCH  25  35
ATOM     35  C   UNL A   1      30.382  25.519  25.863  1.00  0.00    -0.039 C 
ATOM     36  H   UNL A   1      30.606  25.158  26.845  1.00  0.00     0.028 H 
ATOM     37  H   UNL A   1      30.781  24.845  25.135  1.00  0.00     0.028 H 
ATOM     38  H   UNL A   1      29.320  25.587  25.742  1.00  0.00     0.028 H 
ENDBRANCH  25  35
ENDBRANCH  20  21
ENDBRANCH  17  20
ENDBRANCH  14  17
ENDBRANCH  11  14
ENDBRANCH   8  11
ENDBRANCH   4   7
ENDBRANCH   1   4
BRANCH   1  39
ATOM     39  C   UNL A   1      40.371  21.503  27.396  1.00  0.00    -0.052 C 
ATOM     40  H   UNL A   1      39.838  20.585  27.534  1.00  0.00     0.027 H 
ATOM     41  H   UNL A   1      40.222  22.246  28.151  1.00  0.00     0.027 H 
BRANCH  39  42
ATOM     42  C   UNL A   1      41.876  21.176  27.472  1.00  0.00    -0.052 C 
ATOM     43  H   UNL A   1      42.176  21.315  28.490  1.00  0.00     0.027 H 
ATOM     44  H   UNL A   1      42.314  21.831  26.747  1.00  0.00     0.027 H 
BRANCH  42  45
ATOM     45  C   UNL A   1      42.367  19.778  27.044  1.00  0.00    -0.036 C 
ATOM     46  H   UNL A   1      41.684  19.057  27.442  1.00  0.00     0.028 H 
ATOM     47  H   UNL A   1      43.364  19.698  27.423  1.00  0.00     0.028 H 
BRANCH  45  48
ATOM     48  C   UNL A   1      42.483  19.529  25.543  1.00  0.00     0.018 C 
ATOM     49  H   UNL A   1      42.012  20.340  25.029  1.00  0.00     0.049 H 
ATOM     50  H   UNL A   1      42.010  18.589  25.346  1.00  0.00     0.049 H 
BRANCH  48  51
ATOM     51  N   UNL A   1      43.858  19.420  25.069  1.00  0.00    -0.352 N 
ATOM     52  C   UNL A   1      44.772  20.414  24.765  1.00  0.00     0.251 C 
ATOM     53  H   UNL A   1      44.186  18.499  24.948  1.00  0.00     0.163 HD
ATOM     54  O   UNL A   1      45.747  20.163  24.086  1.00  0.00    -0.269 OA
BRANCH  52  55
ATOM     55  C   UNL A   1      44.558  21.790  25.267  1.00  0.00     0.039 A 
ATOM     56  C   UNL A   1      43.659  22.641  24.619  1.00  0.00    -0.049 A 
ATOM     57  C   UNL A   1      45.290  22.250  26.361  1.00  0.00    -0.049 A 
ATOM     58  C   UNL A   1      43.461  23.923  25.124  1.00  0.00    -0.053 A 
ATOM     59  H   UNL A   1      43.149  22.324  23.779  1.00  0.00     0.063 H 
ATOM     60  C   UNL A   1      44.995  23.459  26.946  1.00  0.00    -0.053 A 
ATOM     61  H   UNL A   1      46.062  21.676  26.736  1.00  0.00     0.063 H 
ATOM     62  C   UNL A   1      44.118  24.317  26.305  1.00  0.00    -0.014 A 
ATOM     63  H   UNL A   1      42.837  24.583  24.634  1.00  0.00     0.063 H 
ATOM     64  H   UNL A   1      45.423  23.724  27.848  1.00  0.00     0.063 H 
BRANCH  62  65
ATOM     65  C   UNL A   1      43.766  25.575  26.949  1.00  0.00     0.031 A 
ATOM     66  C   UNL A   1      44.705  26.672  26.611  1.00  0.00     0.074 A 
ATOM     67  C   UNL A   1      42.643  25.792  27.666  1.00  0.00     0.049 A 
ATOM     68  N   UNL A   1      45.624  27.154  27.375  1.00  0.00    -0.248 NA
ATOM     69  C   UNL A   1      44.770  27.153  25.223  1.00  0.00    -0.034 C 
ATOM     70  C   UNL A   1      41.485  24.910  27.842  1.00  0.00    -0.036 A 
ATOM     71  N   UNL A   1      42.278  26.908  28.364  1.00  0.00    -0.354 N 
ATOM     72  C   UNL A   1      46.253  28.152  26.638  1.00  0.00     0.074 A 
ATOM     73  C   UNL A   1      45.821  27.975  25.278  1.00  0.00    -0.034 C 
ATOM     74  H   UNL A   1      44.166  26.917  24.419  1.00  0.00     0.065 H 
ATOM     75  C   UNL A   1      40.471  25.595  28.420  1.00  0.00    -0.036 A 
ATOM     76  H   UNL A   1      41.448  23.916  27.566  1.00  0.00     0.065 H 
ATOM     77  C   UNL A   1      40.960  26.904  28.814  1.00  0.00     0.049 A 
ATOM     78  H   UNL A   1      42.896  27.653  28.536  1.00  0.00     0.167 HD
ATOM     79  C   UNL A   1      46.852  29.189  27.284  1.00  0.00     0.037 A 
ATOM     80  H   UNL A   1      46.261  28.423  24.459  1.00  0.00     0.065 H 
ATOM     81  H   UNL A   1      39.510  25.246  28.558  1.00  0.00     0.065 H 
ATOM     82  C   UNL A   1      40.331  27.908  29.475  1.00  0.00     0.037 A 
ATOM     83  C   UNL A   1      47.028  28.866  28.682  1.00  0.00     0.049 A 
ATOM     84  C   UNL A   1      41.391  28.723  30.108  1.00  0.00     0.074 A 
ATOM     85  C   UNL A   1      47.784  27.969  29.406  1.00  0.00    -0.036 A 
ATOM     86  N   UNL A   1      45.997  29.266  29.492  1.00  0.00    -0.354 N 
ATOM     87  N   UNL A   1      42.146  28.299  31.081  1.00  0.00    -0.248 NA
ATOM     88  C   UNL A   1      41.874  29.903  29.407  1.00  0.00    -0.034 C 
ATOM     89  C   UNL A   1      46.985  27.621  30.538  1.00  0.00    -0.036 A 
ATOM     90  H   UNL A   1      48.729  27.622  29.178  1.00  0.00     0.065 H 
ATOM     91  C   UNL A   1      45.803  28.361  30.497  1.00  0.00     0.049 A 
ATOM     92  H   UNL A   1      45.470  30.089  29.366  1.00  0.00     0.167 HD
ATOM     93  C   UNL A   1      43.381  28.867  30.830  1.00  0.00     0.074 A 
ATOM     94  C   UNL A   1      43.112  29.962  29.903  1.00  0.00    -0.034 C 
ATOM     95  H   UNL A   1      41.398  30.516  28.726  1.00  0.00     0.065 H 
ATOM     96  H   UNL A   1      47.240  26.935  31.265  1.00  0.00     0.065 H 
ATOM     97  C   UNL A   1      44.525  28.198  31.158  1.00  0.00     0.037 A 
ATOM     98  H   UNL A   1      43.797  30.694  29.660  1.00  0.00     0.065 H 
BRANCH  79  99
ATOM     99  C   UNL A   1      46.820  30.632  26.815  1.00  0.00     0.064 A 
ATOM    100  C   UNL A   1      48.006  31.395  26.895  1.00  0.00     0.173 A 
ATOM    101  C   UNL A   1      45.640  31.380  26.607  1.00  0.00     0.173 A 
ATOM    102  F   UNL A   1      49.190  30.799  27.109  1.00  0.00    -0.203 F 
ATOM    103  C   UNL A   1      47.997  32.793  26.859  1.00  0.00     0.198 A 
ATOM    104  C   UNL A   1      45.642  32.772  26.523  1.00  0.00     0.198 A 
ATOM    105  F   UNL A   1      44.427  30.822  26.588  1.00  0.00    -0.203 F 
ATOM    106  F   UNL A   1      49.131  33.471  27.074  1.00  0.00    -0.200 F 
ATOM    107  C   UNL A   1      46.812  33.481  26.681  1.00  0.00     0.200 A 
ATOM    108  F   UNL A   1      44.478  33.422  26.376  1.00  0.00    -0.200 F 
ATOM    109  F   UNL A   1      46.790  34.819  26.710  1.00  0.00    -0.200 F 
ENDBRANCH  79  99
BRANCH  82 110
ATOM    110  C   UNL A   1      38.925  28.378  29.405  1.00  0.00     0.064 A 
ATOM    111  C   UNL A   1      38.156  28.522  30.576  1.00  0.00     0.173 A 
ATOM    112  C   UNL A   1      38.425  29.007  28.251  1.00  0.00     0.173 A 
ATOM    113  F   UNL A   1      38.571  27.978  31.729  1.00  0.00    -0.203 F 
ATOM    114  C   UNL A   1      36.994  29.303  30.604  1.00  0.00     0.198 A 
ATOM    115  C   UNL A   1      37.262  29.783  28.280  1.00  0.00     0.198 A 
ATOM    116  F   UNL A   1      39.109  28.970  27.098  1.00  0.00    -0.203 F 
ATOM    117  F   UNL A   1      36.340  29.487  31.761  1.00  0.00    -0.200 F 
ATOM    118  C   UNL A   1      36.560  29.949  29.461  1.00  0.00     0.200 A 
ATOM    119  F   UNL A   1      36.869  30.432  27.175  1.00  0.00    -0.200 F 
ATOM    120  F   UNL A   1      35.497  30.764  29.505  1.00  0.00    -0.200 F 
ENDBRANCH  82 110
BRANCH  97 121
ATOM    121  C   UNL A   1      44.414  27.081  32.158  1.00  0.00     0.064 A 
ATOM    122  C   UNL A   1      44.292  25.720  31.829  1.00  0.00     0.173 A 
ATOM    123  C   UNL A   1      44.577  27.407  33.512  1.00  0.00     0.173 A 
ATOM    124  F   UNL A   1      44.203  25.321  30.556  1.00  0.00    -0.203 F 
ATOM    125  C   UNL A   1      44.314  24.736  32.818  1.00  0.00     0.198 A 
ATOM    126  C   UNL A   1      44.637  26.421  34.492  1.00  0.00     0.198 A 
ATOM    127  F   UNL A   1      44.733  28.688  33.880  1.00  0.00    -0.203 F 
ATOM    128  F   UNL A   1      44.189  23.443  32.483  1.00  0.00    -0.200 F 
ATOM    129  C   UNL A   1      44.500  25.087  34.146  1.00  0.00     0.200 A 
ATOM    130  F   UNL A   1      44.860  26.764  35.767  1.00  0.00    -0.200 F 
ATOM    131  F   UNL A   1      44.572  24.138  35.090  1.00  0.00    -0.200 F 
ENDBRANCH  97 121
ENDBRANCH  62  65
ENDBRANCH  52  55
ENDBRANCH  48  51
ENDBRANCH  45  48
ENDBRANCH  42  45
ENDBRANCH  39  42
ENDBRANCH   1  39
TORSDOF 19
ENDMDL
MODEL 2
REMARK VINA RESULT:     -11.3      1.609      2.414
REMARK SMILES Cc1cc(C)c2c(OCCCC(=O)NCCCCCCNC(=O)c3ccc(-c4c5nc(c(-c6c(F)c(F)c(F)c(F)c6F)c6ccc([nH]6)c(-c6c(F)c(F)c(F)c(F)c6F)c6nc(c(-c7c(F)c(F)c(F)c(F)c7F)c7ccc4[nH]7)C=C6)C=C5)cc3)nsc2n1
REMARK SMILES IDX 16 1 15 4 14 7 12 8 13 9 11 11 10 14 9 17 8 20 7 21 2 22
REMARK SMILES IDX 3 23 90 24 4 25 89 27 6 28 88 29 87 30 1 31 5 35 17 39 18 42
REMARK SMILES IDX 19 45 20 48 21 51 22 52 23 54 24 55 25 56 86 57 26 58 85 60
REMARK SMILES IDX 27 62 28 65 29 66 79 67 30 68 84 69 78 70 80 71 31 72 83 73
REMARK SMILES IDX 77 75 76 77 32 79 64 82 44 83 63 84 45 85 48 86 62 87 81 88
REMARK SMILES IDX 46 89 47 91 61 93 82 94 49 97 33 99 34 100 42 101 35 102
REMARK SMILES IDX 36 103 40 104 43 105 37 106 38 107 41 108 39 109 65 110
REMARK SMILES IDX 66 111 74 112 67 113 68 114 72 115 75 116 69 117 70 118
REMARK SMILES IDX 73 119 71 120 50 121 51 122 59 123 52 124 53 125 57 126
REMARK SMILES IDX 60 127 54 128 55 129 58 130 56 131
REMARK H PARENT 16 2 16 3 15 5 15 6 14 10 11 12 11 13 10 15 10 16 9 18 9 19
REMARK H PARENT 3 26 1 32 1 33 1 34 5 36 5 37 5 38 17 40 17 41 18 43 18 44
REMARK H PARENT 19 46 19 47 20 49 20 50 21 53 25 59 86 61 26 63 85 64 84 74
REMARK H PARENT 78 76 80 78 83 80 77 81 45 90 48 92 81 95 46 96 82 98
REMARK Flexibility Score: inf
ROOT
ATOM      1  C   UNL A   1      39.105  22.369  26.354  1.00  0.00    -0.036 C 
ATOM      2  H   UNL A   1      38.811  22.342  27.384  1.00  0.00     0.028 H 
ATOM      3  H   UNL A   1      39.018  23.330  25.892  1.00  0.00     0.028 H 
ENDROOT
BRANCH   1   4
ATOM      4  C   UNL A   1      38.127  21.433  25.555  1.00  0.00     0.017 C 
ATOM      5  H   UNL A   1      38.701  20.623  25.153  1.00  0.00     0.049 H 
ATOM      6  H   UNL A   1      37.378  21.121  26.253  1.00  0.00     0.049 H 
BRANCH   4   7
ATOM      7  N   UNL A   1      37.365  22.114  24.380  1.00  0.00    -0.356 N 
ATOM      8  C   UNL A   1      36.493  23.048  23.871  1.00  0.00     0.220 C 
ATOM      9  O   UNL A   1      36.518  22.966  22.620  1.00  0.00    -0.275 OA
ATOM     10  H   UNL A   1      37.663  21.615  23.585  1.00  0.00     0.163 HD
BRANCH   8  11
ATOM     11  C   UNL A   1      35.610  24.327  24.427  1.00  0.00     0.030 C 
ATOM     12  H   UNL A   1      36.361  25.080  24.536  1.00  0.00     0.037 H 
ATOM     13  H   UNL A   1      34.803  24.140  23.749  1.00  0.00     0.037 H 
BRANCH  11  14
ATOM     14  C   UNL A   1      34.612  24.674  25.659  1.00  0.00    -0.010 C 
ATOM     15  H   UNL A   1      34.051  23.770  25.776  1.00  0.00     0.031 H 
ATOM     16  H   UNL A   1      35.365  25.115  26.276  1.00  0.00     0.031 H 
BRANCH  14  17
ATOM     17  C   UNL A   1      33.519  25.811  25.921  1.00  0.00     0.090 C 
ATOM     18  H   UNL A   1      33.541  25.986  26.977  1.00  0.00     0.071 H 
ATOM     19  H   UNL A   1      33.841  26.545  25.214  1.00  0.00     0.071 H 
BRANCH  17  20
ATOM     20  O   UNL A   1      32.126  25.730  25.581  1.00  0.00    -0.477 OA
BRANCH  20  21
ATOM     21  C   UNL A   1      31.409  24.576  25.611  1.00  0.00     0.235 A 
ATOM     22  C   UNL A   1      32.432  20.891  24.350  1.00  0.00     0.039 A 
ATOM     23  C   UNL A   1      32.626  21.900  23.410  1.00  0.00    -0.037 A 
ATOM     24  N   UNL A   1      31.586  21.022  25.393  1.00  0.00    -0.240 NA
ATOM     25  C   UNL A   1      32.038  23.171  23.569  1.00  0.00    -0.034 A 
ATOM     26  H   UNL A   1      33.214  21.714  22.582  1.00  0.00     0.064 H 
ATOM     27  C   UNL A   1      31.204  22.299  25.599  1.00  0.00     0.147 A 
ATOM     28  C   UNL A   1      31.548  23.401  24.837  1.00  0.00     0.078 A 
ATOM     29  S   UNL A   1      30.175  22.859  26.833  1.00  0.00    -0.012 S 
ATOM     30  N   UNL A   1      30.552  24.483  26.628  1.00  0.00    -0.153 NA
BRANCH  22  31
ATOM     31  C   UNL A   1      33.262  19.634  24.262  1.00  0.00    -0.022 C 
ATOM     32  H   UNL A   1      32.681  18.854  23.815  1.00  0.00     0.030 H 
ATOM     33  H   UNL A   1      33.565  19.337  25.244  1.00  0.00     0.030 H 
ATOM     34  H   UNL A   1      34.128  19.822  23.662  1.00  0.00     0.030 H 
ENDBRANCH  22  31
BRANCH  25  35
ATOM     35  C   UNL A   1      31.919  24.303  22.620  1.00  0.00    -0.039 C 
ATOM     36  H   UNL A   1      32.021  25.226  23.151  1.00  0.00     0.028 H 
ATOM     37  H   UNL A   1      30.963  24.269  22.142  1.00  0.00     0.028 H 
ATOM     38  H   UNL A   1      32.690  24.230  21.881  1.00  0.00     0.028 H 
ENDBRANCH  25  35
ENDBRANCH  20  21
ENDBRANCH  17  20
ENDBRANCH  14  17
ENDBRANCH  11  14
ENDBRANCH   8  11
ENDBRANCH   4   7
ENDBRANCH   1   4
BRANCH   1  39
ATOM     39  C   UNL A   1      40.600  22.017  26.286  1.00  0.00    -0.052 C 
ATOM     40  H   UNL A   1      41.140  22.938  26.227  1.00  0.00     0.027 H 
ATOM     41  H   UNL A   1      40.682  21.373  25.436  1.00  0.00     0.027 H 
BRANCH  39  42
ATOM     42  C   UNL A   1      41.208  21.202  27.445  1.00  0.00    -0.052 C 
ATOM     43  H   UNL A   1      40.391  20.769  27.985  1.00  0.00     0.027 H 
ATOM     44  H   UNL A   1      41.808  21.917  27.970  1.00  0.00     0.027 H 
BRANCH  42  45
ATOM     45  C   UNL A   1      42.195  20.059  27.129  1.00  0.00    -0.036 C 
ATOM     46  H   UNL A   1      41.892  19.202  27.694  1.00  0.00     0.028 H 
ATOM     47  H   UNL A   1      43.161  20.440  27.385  1.00  0.00     0.028 H 
BRANCH  45  48
ATOM     48  C   UNL A   1      42.298  19.638  25.667  1.00  0.00     0.018 C 
ATOM     49  H   UNL A   1      41.801  20.372  25.068  1.00  0.00     0.049 H 
ATOM     50  H   UNL A   1      41.846  18.671  25.589  1.00  0.00     0.049 H 
BRANCH  48  51
ATOM     51  N   UNL A   1      43.670  19.505  25.188  1.00  0.00    -0.352 N 
ATOM     52  C   UNL A   1      44.598  20.483  24.878  1.00  0.00     0.251 C 
ATOM     53  H   UNL A   1      43.982  18.579  25.069  1.00  0.00     0.163 HD
ATOM     54  O   UNL A   1      45.567  20.215  24.196  1.00  0.00    -0.269 OA
BRANCH  52  55
ATOM     55  C   UNL A   1      44.409  21.865  25.376  1.00  0.00     0.039 A 
ATOM     56  C   UNL A   1      43.623  22.768  24.655  1.00  0.00    -0.049 A 
ATOM     57  C   UNL A   1      45.052  22.274  26.543  1.00  0.00    -0.049 A 
ATOM     58  C   UNL A   1      43.445  24.055  25.157  1.00  0.00    -0.053 A 
ATOM     59  H   UNL A   1      43.184  22.487  23.765  1.00  0.00     0.063 H 
ATOM     60  C   UNL A   1      44.765  23.493  27.114  1.00  0.00    -0.053 A 
ATOM     61  H   UNL A   1      45.751  21.657  26.984  1.00  0.00     0.063 H 
ATOM     62  C   UNL A   1      44.001  24.402  26.402  1.00  0.00    -0.014 A 
ATOM     63  H   UNL A   1      42.908  24.751  24.618  1.00  0.00     0.063 H 
ATOM     64  H   UNL A   1      45.114  23.725  28.057  1.00  0.00     0.063 H 
BRANCH  62  65
ATOM     65  C   UNL A   1      43.654  25.671  27.027  1.00  0.00     0.031 A 
ATOM     66  C   UNL A   1      44.593  26.761  26.666  1.00  0.00     0.074 A 
ATOM     67  C   UNL A   1      42.534  25.901  27.745  1.00  0.00     0.049 A 
ATOM     68  N   UNL A   1      45.516  27.254  27.419  1.00  0.00    -0.248 NA
ATOM     69  C   UNL A   1      44.653  27.218  25.270  1.00  0.00    -0.034 C 
ATOM     70  C   UNL A   1      41.375  25.025  27.940  1.00  0.00    -0.036 A 
ATOM     71  N   UNL A   1      42.173  27.029  28.425  1.00  0.00    -0.354 N 
ATOM     72  C   UNL A   1      46.144  28.238  26.663  1.00  0.00     0.074 A 
ATOM     73  C   UNL A   1      45.705  28.040  25.308  1.00  0.00    -0.034 C 
ATOM     74  H   UNL A   1      44.046  26.970  24.474  1.00  0.00     0.065 H 
ATOM     75  C   UNL A   1      40.365  25.721  28.510  1.00  0.00    -0.036 A 
ATOM     76  H   UNL A   1      41.336  24.027  27.680  1.00  0.00     0.065 H 
ATOM     77  C   UNL A   1      40.857  27.035  28.880  1.00  0.00     0.049 A 
ATOM     78  H   UNL A   1      42.794  27.777  28.582  1.00  0.00     0.167 HD
ATOM     79  C   UNL A   1      46.747  29.285  27.290  1.00  0.00     0.037 A 
ATOM     80  H   UNL A   1      46.143  28.473  24.480  1.00  0.00     0.065 H 
ATOM     81  H   UNL A   1      39.404  25.376  28.658  1.00  0.00     0.065 H 
ATOM     82  C   UNL A   1      40.233  28.051  29.528  1.00  0.00     0.037 A 
ATOM     83  C   UNL A   1      46.928  28.985  28.692  1.00  0.00     0.049 A 
ATOM     84  C   UNL A   1      41.296  28.875  30.142  1.00  0.00     0.074 A 
ATOM     85  C   UNL A   1      47.685  28.099  29.428  1.00  0.00    -0.036 A 
ATOM     86  N   UNL A   1      45.901  29.399  29.499  1.00  0.00    -0.354 N 
ATOM     87  N   UNL A   1      42.055  28.466  31.120  1.00  0.00    -0.248 NA
ATOM     88  C   UNL A   1      41.779  30.042  29.420  1.00  0.00    -0.034 C 
ATOM     89  C   UNL A   1      46.891  27.771  30.568  1.00  0.00    -0.036 A 
ATOM     90  H   UNL A   1      48.629  27.747  29.202  1.00  0.00     0.065 H 
ATOM     91  C   UNL A   1      45.710  28.512  30.520  1.00  0.00     0.049 A 
ATOM     92  H   UNL A   1      45.375  30.221  29.361  1.00  0.00     0.167 HD
ATOM     93  C   UNL A   1      43.290  29.027  30.854  1.00  0.00     0.074 A 
ATOM     94  C   UNL A   1      43.018  30.107  29.910  1.00  0.00    -0.034 C 
ATOM     95  H   UNL A   1      41.301  30.644  28.731  1.00  0.00     0.065 H 
ATOM     96  H   UNL A   1      47.147  27.096  31.306  1.00  0.00     0.065 H 
ATOM     97  C   UNL A   1      44.433  28.362  31.189  1.00  0.00     0.037 A 
ATOM     98  H   UNL A   1      43.704  30.834  29.652  1.00  0.00     0.065 H 
BRANCH  79  99
ATOM     99  C   UNL A   1      46.715  30.720  26.797  1.00  0.00     0.064 A 
ATOM    100  C   UNL A   1      47.902  31.483  26.863  1.00  0.00     0.173 A 
ATOM    101  C   UNL A   1      45.536  31.465  26.577  1.00  0.00     0.173 A 
ATOM    102  F   UNL A   1      49.085  30.891  27.087  1.00  0.00    -0.203 F 
ATOM    103  C   UNL A   1      47.893  32.881  26.805  1.00  0.00     0.198 A 
ATOM    104  C   UNL A   1      45.538  32.856  26.470  1.00  0.00     0.198 A 
ATOM    105  F   UNL A   1      44.323  30.907  26.567  1.00  0.00    -0.203 F 
ATOM    106  F   UNL A   1      49.028  33.562  27.008  1.00  0.00    -0.200 F 
ATOM    107  C   UNL A   1      46.709  33.566  26.616  1.00  0.00     0.200 A 
ATOM    108  F   UNL A   1      44.374  33.503  26.312  1.00  0.00    -0.200 F 
ATOM    109  F   UNL A   1      46.687  34.905  26.623  1.00  0.00    -0.200 F 
ENDBRANCH  79  99
BRANCH  82 110
ATOM    110  C   UNL A   1      38.827  28.522  29.455  1.00  0.00     0.064 A 
ATOM    111  C   UNL A   1      38.061  28.681  30.626  1.00  0.00     0.173 A 
ATOM    112  C   UNL A   1      38.325  29.139  28.295  1.00  0.00     0.173 A 
ATOM    113  F   UNL A   1      38.478  28.150  31.785  1.00  0.00    -0.203 F 
ATOM    114  C   UNL A   1      36.901  29.464  30.648  1.00  0.00     0.198 A 
ATOM    115  C   UNL A   1      37.164  29.916  28.318  1.00  0.00     0.198 A 
ATOM    116  F   UNL A   1      39.006  29.086  27.141  1.00  0.00    -0.203 F 
ATOM    117  F   UNL A   1      36.250  29.663  31.804  1.00  0.00    -0.200 F 
ATOM    118  C   UNL A   1      36.465  30.097  29.498  1.00  0.00     0.200 A 
ATOM    119  F   UNL A   1      36.769  30.553  27.206  1.00  0.00    -0.200 F 
ATOM    120  F   UNL A   1      35.402  30.914  29.535  1.00  0.00    -0.200 F 
ENDBRANCH  82 110
BRANCH  97 121
ATOM    121  C   UNL A   1      44.325  27.262  32.207  1.00  0.00     0.064 A 
ATOM    122  C   UNL A   1      44.201  25.896  31.902  1.00  0.00     0.173 A 
ATOM    123  C   UNL A   1      44.492  27.610  33.555  1.00  0.00     0.173 A 
ATOM    124  F   UNL A   1      44.110  25.475  30.635  1.00  0.00    -0.203 F 
ATOM    125  C   UNL A   1      44.226  24.929  32.907  1.00  0.00     0.198 A 
ATOM    126  C   UNL A   1      44.554  26.641  34.551  1.00  0.00     0.198 A 
ATOM    127  F   UNL A   1      44.649  28.897  33.902  1.00  0.00    -0.203 F 
ATOM    128  F   UNL A   1      44.099  23.630  32.594  1.00  0.00    -0.200 F 
ATOM    129  C   UNL A   1      44.415  25.302  34.228  1.00  0.00     0.200 A 
ATOM    130  F   UNL A   1      44.781  27.005  35.820  1.00  0.00    -0.200 F 
ATOM    131  F   UNL A   1      44.490  24.368  35.188  1.00  0.00    -0.200 F 
ENDBRANCH  97 121
ENDBRANCH  62  65
ENDBRANCH  52  55
ENDBRANCH  48  51
ENDBRANCH  45  48
ENDBRANCH  42  45
ENDBRANCH  39  42
ENDBRANCH   1  39
TORSDOF 19
ENDMDL
MODEL 3
REMARK VINA RESULT:     -11.3      1.678      2.663
REMARK SMILES Cc1cc(C)c2c(OCCCC(=O)NCCCCCCNC(=O)c3ccc(-c4c5nc(c(-c6c(F)c(F)c(F)c(F)c6F)c6ccc([nH]6)c(-c6c(F)c(F)c(F)c(F)c6F)c6nc(c(-c7c(F)c(F)c(F)c(F)c7F)c7ccc4[nH]7)C=C6)C=C5)cc3)nsc2n1
REMARK SMILES IDX 16 1 15 4 14 7 12 8 13 9 11 11 10 14 9 17 8 20 7 21 2 22
REMARK SMILES IDX 3 23 90 24 4 25 89 27 6 28 88 29 87 30 1 31 5 35 17 39 18 42
REMARK SMILES IDX 19 45 20 48 21 51 22 52 23 54 24 55 25 56 86 57 26 58 85 60
REMARK SMILES IDX 27 62 28 65 29 66 79 67 30 68 84 69 78 70 80 71 31 72 83 73
REMARK SMILES IDX 77 75 76 77 32 79 64 82 44 83 63 84 45 85 48 86 62 87 81 88
REMARK SMILES IDX 46 89 47 91 61 93 82 94 49 97 33 99 34 100 42 101 35 102
REMARK SMILES IDX 36 103 40 104 43 105 37 106 38 107 41 108 39 109 65 110
REMARK SMILES IDX 66 111 74 112 67 113 68 114 72 115 75 116 69 117 70 118
REMARK SMILES IDX 73 119 71 120 50 121 51 122 59 123 52 124 53 125 57 126
REMARK SMILES IDX 60 127 54 128 55 129 58 130 56 131
REMARK H PARENT 16 2 16 3 15 5 15 6 14 10 11 12 11 13 10 15 10 16 9 18 9 19
REMARK H PARENT 3 26 1 32 1 33 1 34 5 36 5 37 5 38 17 40 17 41 18 43 18 44
REMARK H PARENT 19 46 19 47 20 49 20 50 21 53 25 59 86 61 26 63 85 64 84 74
REMARK H PARENT 78 76 80 78 83 80 77 81 45 90 48 92 81 95 46 96 82 98
REMARK Flexibility Score: inf
ROOT
ATOM      1  C   UNL A   1      39.174  22.449  26.487  1.00  0.00    -0.036 C 
ATOM      2  H   UNL A   1      38.904  22.329  27.516  1.00  0.00     0.028 H 
ATOM      3  H   UNL A   1      39.237  23.465  26.159  1.00  0.00     0.028 H 
ENDROOT
BRANCH   1   4
ATOM      4  C   UNL A   1      38.038  21.800  25.617  1.00  0.00     0.017 C 
ATOM      5  H   UNL A   1      38.113  22.198  24.626  1.00  0.00     0.049 H 
ATOM      6  H   UNL A   1      38.193  20.742  25.667  1.00  0.00     0.049 H 
BRANCH   4   7
ATOM      7  N   UNL A   1      36.586  22.047  26.126  1.00  0.00    -0.356 N 
ATOM      8  C   UNL A   1      35.407  22.754  26.151  1.00  0.00     0.220 C 
ATOM      9  O   UNL A   1      34.590  22.129  26.868  1.00  0.00    -0.275 OA
ATOM     10  H   UNL A   1      36.431  21.312  26.762  1.00  0.00     0.163 HD
BRANCH   8  11
ATOM     11  C   UNL A   1      34.739  24.045  25.369  1.00  0.00     0.030 C 
ATOM     12  H   UNL A   1      35.426  24.192  24.563  1.00  0.00     0.037 H 
ATOM     13  H   UNL A   1      33.744  23.666  25.469  1.00  0.00     0.037 H 
BRANCH  11  14
ATOM     14  C   UNL A   1      34.287  25.568  25.699  1.00  0.00    -0.010 C 
ATOM     15  H   UNL A   1      34.915  25.832  26.524  1.00  0.00     0.031 H 
ATOM     16  H   UNL A   1      34.293  25.897  24.681  1.00  0.00     0.031 H 
BRANCH  14  17
ATOM     17  C   UNL A   1      32.895  26.262  26.070  1.00  0.00     0.090 C 
ATOM     18  H   UNL A   1      32.771  26.102  27.121  1.00  0.00     0.071 H 
ATOM     19  H   UNL A   1      33.055  27.234  25.655  1.00  0.00     0.071 H 
BRANCH  17  20
ATOM     20  O   UNL A   1      31.620  25.948  25.487  1.00  0.00    -0.477 OA
BRANCH  20  21
ATOM     21  C   UNL A   1      31.019  24.734  25.597  1.00  0.00     0.235 A 
ATOM     22  C   UNL A   1      32.307  21.119  24.378  1.00  0.00     0.039 A 
ATOM     23  C   UNL A   1      32.345  22.109  23.398  1.00  0.00    -0.037 A 
ATOM     24  N   UNL A   1      31.519  21.207  25.470  1.00  0.00    -0.240 NA
ATOM     25  C   UNL A   1      31.649  23.324  23.559  1.00  0.00    -0.034 A 
ATOM     26  H   UNL A   1      32.894  21.950  22.539  1.00  0.00     0.064 H 
ATOM     27  C   UNL A   1      31.031  22.450  25.663  1.00  0.00     0.147 A 
ATOM     28  C   UNL A   1      31.221  23.551  24.850  1.00  0.00     0.078 A 
ATOM     29  S   UNL A   1      30.033  22.954  26.947  1.00  0.00    -0.012 S 
ATOM     30  N   UNL A   1      30.240  24.597  26.671  1.00  0.00    -0.153 NA
BRANCH  22  31
ATOM     31  C   UNL A   1      33.245  19.943  24.270  1.00  0.00    -0.022 C 
ATOM     32  H   UNL A   1      32.875  19.136  24.867  1.00  0.00     0.030 H 
ATOM     33  H   UNL A   1      34.216  20.228  24.618  1.00  0.00     0.030 H 
ATOM     34  H   UNL A   1      33.309  19.631  23.249  1.00  0.00     0.030 H 
ENDBRANCH  22  31
BRANCH  25  35
ATOM     35  C   UNL A   1      31.364  24.407  22.589  1.00  0.00    -0.039 C 
ATOM     36  H   UNL A   1      32.035  25.223  22.757  1.00  0.00     0.028 H 
ATOM     37  H   UNL A   1      30.356  24.742  22.714  1.00  0.00     0.028 H 
ATOM     38  H   UNL A   1      31.496  24.036  21.593  1.00  0.00     0.028 H 
ENDBRANCH  25  35
ENDBRANCH  20  21
ENDBRANCH  17  20
ENDBRANCH  14  17
ENDBRANCH  11  14
ENDBRANCH   8  11
ENDBRANCH   4   7
ENDBRANCH   1   4
BRANCH   1  39
ATOM     39  C   UNL A   1      40.589  21.874  26.306  1.00  0.00    -0.052 C 
ATOM     40  H   UNL A   1      41.264  22.702  26.258  1.00  0.00     0.027 H 
ATOM     41  H   UNL A   1      40.521  21.275  25.422  1.00  0.00     0.027 H 
BRANCH  39  42
ATOM     42  C   UNL A   1      41.123  20.907  27.383  1.00  0.00    -0.052 C 
ATOM     43  H   UNL A   1      40.298  20.301  27.696  1.00  0.00     0.027 H 
ATOM     44  H   UNL A   1      41.549  21.559  28.118  1.00  0.00     0.027 H 
BRANCH  42  45
ATOM     45  C   UNL A   1      42.279  19.949  27.031  1.00  0.00    -0.036 C 
ATOM     46  H   UNL A   1      42.145  19.054  27.603  1.00  0.00     0.028 H 
ATOM     47  H   UNL A   1      43.174  20.489  27.256  1.00  0.00     0.028 H 
BRANCH  45  48
ATOM     48  C   UNL A   1      42.405  19.548  25.565  1.00  0.00     0.018 C 
ATOM     49  H   UNL A   1      41.919  20.291  24.968  1.00  0.00     0.049 H 
ATOM     50  H   UNL A   1      41.952  18.583  25.466  1.00  0.00     0.049 H 
BRANCH  48  51
ATOM     51  N   UNL A   1      43.784  19.419  25.106  1.00  0.00    -0.352 N 
ATOM     52  C   UNL A   1      44.715  20.399  24.815  1.00  0.00     0.251 C 
ATOM     53  H   UNL A   1      44.098  18.494  24.986  1.00  0.00     0.163 HD
ATOM     54  O   UNL A   1      45.695  20.135  24.146  1.00  0.00    -0.269 OA
BRANCH  52  55
ATOM     55  C   UNL A   1      44.517  21.778  25.318  1.00  0.00     0.039 A 
ATOM     56  C   UNL A   1      43.677  22.660  24.632  1.00  0.00    -0.049 A 
ATOM     57  C   UNL A   1      45.205  22.207  26.451  1.00  0.00    -0.049 A 
ATOM     58  C   UNL A   1      43.492  23.944  25.138  1.00  0.00    -0.053 A 
ATOM     59  H   UNL A   1      43.202  22.365  23.765  1.00  0.00     0.063 H 
ATOM     60  C   UNL A   1      44.916  23.421  27.031  1.00  0.00    -0.053 A 
ATOM     61  H   UNL A   1      45.940  21.608  26.860  1.00  0.00     0.063 H 
ATOM     62  C   UNL A   1      44.098  24.309  26.354  1.00  0.00    -0.014 A 
ATOM     63  H   UNL A   1      42.913  24.625  24.623  1.00  0.00     0.063 H 
ATOM     64  H   UNL A   1      45.305  23.666  27.956  1.00  0.00     0.063 H 
BRANCH  62  65
ATOM     65  C   UNL A   1      43.751  25.572  26.991  1.00  0.00     0.031 A 
ATOM     66  C   UNL A   1      44.687  26.667  26.636  1.00  0.00     0.074 A 
ATOM     67  C   UNL A   1      42.634  25.794  27.716  1.00  0.00     0.049 A 
ATOM     68  N   UNL A   1      45.611  27.156  27.389  1.00  0.00    -0.248 NA
ATOM     69  C   UNL A   1      44.740  27.136  25.244  1.00  0.00    -0.034 C 
ATOM     70  C   UNL A   1      41.478  24.913  27.908  1.00  0.00    -0.036 A 
ATOM     71  N   UNL A   1      42.274  26.915  28.407  1.00  0.00    -0.354 N 
ATOM     72  C   UNL A   1      46.234  28.147  26.639  1.00  0.00     0.074 A 
ATOM     73  C   UNL A   1      45.791  27.960  25.284  1.00  0.00    -0.034 C 
ATOM     74  H   UNL A   1      44.130  26.894  24.447  1.00  0.00     0.065 H 
ATOM     75  C   UNL A   1      40.468  25.602  28.488  1.00  0.00    -0.036 A 
ATOM     76  H   UNL A   1      41.439  23.917  27.640  1.00  0.00     0.065 H 
ATOM     77  C   UNL A   1      40.959  26.915  28.868  1.00  0.00     0.049 A 
ATOM     78  H   UNL A   1      42.893  27.663  28.568  1.00  0.00     0.167 HD
ATOM     79  C   UNL A   1      46.838  29.190  27.272  1.00  0.00     0.037 A 
ATOM     80  H   UNL A   1      46.224  28.401  24.458  1.00  0.00     0.065 H 
ATOM     81  H   UNL A   1      39.509  25.254  28.637  1.00  0.00     0.065 H 
ATOM     82  C   UNL A   1      40.335  27.923  29.526  1.00  0.00     0.037 A 
ATOM     83  C   UNL A   1      47.025  28.878  28.670  1.00  0.00     0.049 A 
ATOM     84  C   UNL A   1      41.400  28.744  30.143  1.00  0.00     0.074 A 
ATOM     85  C   UNL A   1      47.787  27.988  29.396  1.00  0.00    -0.036 A 
ATOM     86  N   UNL A   1      46.001  29.284  29.486  1.00  0.00    -0.354 N 
ATOM     87  N   UNL A   1      42.163  28.329  31.114  1.00  0.00    -0.248 NA
ATOM     88  C   UNL A   1      41.877  29.919  29.429  1.00  0.00    -0.034 C 
ATOM     89  C   UNL A   1      46.998  27.649  30.537  1.00  0.00    -0.036 A 
ATOM     90  H   UNL A   1      48.731  27.640  29.163  1.00  0.00     0.065 H 
ATOM     91  C   UNL A   1      45.816  28.388  30.500  1.00  0.00     0.049 A 
ATOM     92  H   UNL A   1      45.472  30.106  29.357  1.00  0.00     0.167 HD
ATOM     93  C   UNL A   1      43.396  28.895  30.848  1.00  0.00     0.074 A 
ATOM     94  C   UNL A   1      43.119  29.982  29.915  1.00  0.00    -0.034 C 
ATOM     95  H   UNL A   1      41.395  30.526  28.747  1.00  0.00     0.065 H 
ATOM     96  H   UNL A   1      47.260  26.969  31.268  1.00  0.00     0.065 H 
ATOM     97  C   UNL A   1      44.543  28.229  31.172  1.00  0.00     0.037 A 
ATOM     98  H   UNL A   1      43.802  30.712  29.660  1.00  0.00     0.065 H 
BRANCH  79  99
ATOM     99  C   UNL A   1      46.801  30.629  26.791  1.00  0.00     0.064 A 
ATOM    100  C   UNL A   1      47.985  31.396  26.865  1.00  0.00     0.173 A 
ATOM    101  C   UNL A   1      45.619  31.372  26.577  1.00  0.00     0.173 A 
ATOM    102  F   UNL A   1      49.170  30.806  27.084  1.00  0.00    -0.203 F 
ATOM    103  C   UNL A   1      47.971  32.794  26.818  1.00  0.00     0.198 A 
ATOM    104  C   UNL A   1      45.616  32.763  26.483  1.00  0.00     0.198 A 
ATOM    105  F   UNL A   1      44.408  30.809  26.562  1.00  0.00    -0.203 F 
ATOM    106  F   UNL A   1      49.103  33.478  27.028  1.00  0.00    -0.200 F 
ATOM    107  C   UNL A   1      46.784  33.476  26.635  1.00  0.00     0.200 A 
ATOM    108  F   UNL A   1      44.450  33.408  26.330  1.00  0.00    -0.200 F 
ATOM    109  F   UNL A   1      46.757  34.816  26.653  1.00  0.00    -0.200 F 
ENDBRANCH  79  99
BRANCH  82 110
ATOM    110  C   UNL A   1      38.929  28.392  29.463  1.00  0.00     0.064 A 
ATOM    111  C   UNL A   1      38.166  28.536  30.639  1.00  0.00     0.173 A 
ATOM    112  C   UNL A   1      38.421  29.021  28.312  1.00  0.00     0.173 A 
ATOM    113  F   UNL A   1      38.588  27.993  31.790  1.00  0.00    -0.203 F 
ATOM    114  C   UNL A   1      37.004  29.316  30.673  1.00  0.00     0.198 A 
ATOM    115  C   UNL A   1      37.258  29.795  28.347  1.00  0.00     0.198 A 
ATOM    116  F   UNL A   1      39.099  28.983  27.155  1.00  0.00    -0.203 F 
ATOM    117  F   UNL A   1      36.356  29.500  31.833  1.00  0.00    -0.200 F 
ATOM    118  C   UNL A   1      36.563  29.961  29.532  1.00  0.00     0.200 A 
ATOM    119  F   UNL A   1      36.858  30.444  27.245  1.00  0.00    -0.200 F 
ATOM    120  F   UNL A   1      35.499  30.775  29.582  1.00  0.00    -0.200 F 
ENDBRANCH  82 110
BRANCH  97 121
ATOM    121  C   UNL A   1      44.441  27.121  32.182  1.00  0.00     0.064 A 
ATOM    122  C   UNL A   1      44.291  27.310  33.567  1.00  0.00     0.173 A 
ATOM    123  C   UNL A   1      44.359  25.808  31.697  1.00  0.00     0.173 A 
ATOM    124  F   UNL A   1      44.287  28.536  34.102  1.00  0.00    -0.203 F 
ATOM    125  C   UNL A   1      44.086  26.227  34.423  1.00  0.00     0.198 A 
ATOM    126  C   UNL A   1      44.116  24.735  32.548  1.00  0.00     0.198 A 
ATOM    127  F   UNL A   1      44.461  25.572  30.380  1.00  0.00    -0.203 F 
ATOM    128  F   UNL A   1      43.951  26.429  35.743  1.00  0.00    -0.200 F 
ATOM    129  C   UNL A   1      43.985  24.944  33.911  1.00  0.00     0.200 A 
ATOM    130  F   UNL A   1      43.977  23.503  32.041  1.00  0.00    -0.200 F 
ATOM    131  F   UNL A   1      43.737  23.910  34.728  1.00  0.00    -0.200 F 
ENDBRANCH  97 121
ENDBRANCH  62  65
ENDBRANCH  52  55
ENDBRANCH  48  51
ENDBRANCH  45  48
ENDBRANCH  42  45
ENDBRANCH  39  42
ENDBRANCH   1  39
TORSDOF 19
ENDMDL
MODEL 4
REMARK VINA RESULT:     -11.0      4.179     10.069
REMARK SMILES Cc1cc(C)c2c(OCCCC(=O)NCCCCCCNC(=O)c3ccc(-c4c5nc(c(-c6c(F)c(F)c(F)c(F)c6F)c6ccc([nH]6)c(-c6c(F)c(F)c(F)c(F)c6F)c6nc(c(-c7c(F)c(F)c(F)c(F)c7F)c7ccc4[nH]7)C=C6)C=C5)cc3)nsc2n1
REMARK SMILES IDX 16 1 15 4 14 7 12 8 13 9 11 11 10 14 9 17 8 20 7 21 2 22
REMARK SMILES IDX 3 23 90 24 4 25 89 27 6 28 88 29 87 30 1 31 5 35 17 39 18 42
REMARK SMILES IDX 19 45 20 48 21 51 22 52 23 54 24 55 25 56 86 57 26 58 85 60
REMARK SMILES IDX 27 62 28 65 29 66 79 67 30 68 84 69 78 70 80 71 31 72 83 73
REMARK SMILES IDX 77 75 76 77 32 79 64 82 44 83 63 84 45 85 48 86 62 87 81 88
REMARK SMILES IDX 46 89 47 91 61 93 82 94 49 97 33 99 34 100 42 101 35 102
REMARK SMILES IDX 36 103 40 104 43 105 37 106 38 107 41 108 39 109 65 110
REMARK SMILES IDX 66 111 74 112 67 113 68 114 72 115 75 116 69 117 70 118
REMARK SMILES IDX 73 119 71 120 50 121 51 122 59 123 52 124 53 125 57 126
REMARK SMILES IDX 60 127 54 128 55 129 58 130 56 131
REMARK H PARENT 16 2 16 3 15 5 15 6 14 10 11 12 11 13 10 15 10 16 9 18 9 19
REMARK H PARENT 3 26 1 32 1 33 1 34 5 36 5 37 5 38 17 40 17 41 18 43 18 44
REMARK H PARENT 19 46 19 47 20 49 20 50 21 53 25 59 86 61 26 63 85 64 84 74
REMARK H PARENT 78 76 80 78 83 80 77 81 45 90 48 92 81 95 46 96 82 98
REMARK Flexibility Score: inf
ROOT
ATOM      1  C   UNL A   1      34.224  31.692  28.328  1.00  0.00    -0.036 C 
ATOM      2  H   UNL A   1      34.552  31.624  29.344  1.00  0.00     0.028 H 
ATOM      3  H   UNL A   1      33.168  31.809  28.208  1.00  0.00     0.028 H 
ENDROOT
BRANCH   1   4
ATOM      4  C   UNL A   1      34.577  30.334  27.620  1.00  0.00     0.017 C 
ATOM      5  H   UNL A   1      34.854  30.550  26.609  1.00  0.00     0.049 H 
ATOM      6  H   UNL A   1      35.365  29.895  28.196  1.00  0.00     0.049 H 
BRANCH   4   7
ATOM      7  N   UNL A   1      33.428  29.281  27.590  1.00  0.00    -0.356 N 
ATOM      8  C   UNL A   1      32.838  28.135  27.112  1.00  0.00     0.220 C 
ATOM      9  O   UNL A   1      31.811  27.908  27.796  1.00  0.00    -0.275 OA
ATOM     10  H   UNL A   1      32.793  29.606  28.268  1.00  0.00     0.163 HD
BRANCH   8  11
ATOM     11  C   UNL A   1      33.204  26.920  26.056  1.00  0.00     0.030 C 
ATOM     12  H   UNL A   1      32.566  27.149  25.229  1.00  0.00     0.037 H 
ATOM     13  H   UNL A   1      34.253  26.983  26.256  1.00  0.00     0.037 H 
BRANCH  11  14
ATOM     14  C   UNL A   1      33.218  25.297  26.024  1.00  0.00    -0.010 C 
ATOM     15  H   UNL A   1      33.566  25.080  25.036  1.00  0.00     0.031 H 
ATOM     16  H   UNL A   1      33.693  25.183  26.975  1.00  0.00     0.031 H 
BRANCH  14  17
ATOM     17  C   UNL A   1      32.113  24.168  26.272  1.00  0.00     0.090 C 
ATOM     18  H   UNL A   1      32.483  23.587  27.091  1.00  0.00     0.071 H 
ATOM     19  H   UNL A   1      31.239  24.778  26.352  1.00  0.00     0.071 H 
BRANCH  17  20
ATOM     20  O   UNL A   1      31.662  23.209  25.302  1.00  0.00    -0.477 OA
BRANCH  20  21
ATOM     21  C   UNL A   1      32.355  22.087  24.972  1.00  0.00     0.235 A 
ATOM     22  C   UNL A   1      36.327  21.546  24.595  1.00  0.00     0.039 A 
ATOM     23  C   UNL A   1      35.819  22.629  23.882  1.00  0.00    -0.037 A 
ATOM     24  N   UNL A   1      35.555  20.517  25.002  1.00  0.00    -0.240 NA
ATOM     25  C   UNL A   1      34.435  22.770  23.653  1.00  0.00    -0.034 A 
ATOM     26  H   UNL A   1      36.468  23.344  23.516  1.00  0.00     0.064 H 
ATOM     27  C   UNL A   1      34.236  20.791  24.924  1.00  0.00     0.147 A 
ATOM     28  C   UNL A   1      33.656  21.949  24.439  1.00  0.00     0.078 A 
ATOM     29  S   UNL A   1      32.962  19.757  25.376  1.00  0.00    -0.012 S 
ATOM     30  N   UNL A   1      31.779  20.948  25.359  1.00  0.00    -0.153 NA
BRANCH  22  31
ATOM     31  C   UNL A   1      37.776  21.557  25.015  1.00  0.00    -0.022 C 
ATOM     32  H   UNL A   1      37.897  20.958  25.894  1.00  0.00     0.030 H 
ATOM     33  H   UNL A   1      38.079  22.562  25.223  1.00  0.00     0.030 H 
ATOM     34  H   UNL A   1      38.377  21.158  24.226  1.00  0.00     0.030 H 
ENDBRANCH  22  31
BRANCH  25  35
ATOM     35  C   UNL A   1      33.696  23.691  22.757  1.00  0.00    -0.039 C 
ATOM     36  H   UNL A   1      33.072  23.124  22.099  1.00  0.00     0.028 H 
ATOM     37  H   UNL A   1      34.393  24.265  22.183  1.00  0.00     0.028 H 
ATOM     38  H   UNL A   1      33.090  24.349  23.344  1.00  0.00     0.028 H 
ENDBRANCH  25  35
ENDBRANCH  20  21
ENDBRANCH  17  20
ENDBRANCH  14  17
ENDBRANCH  11  14
ENDBRANCH   8  11
ENDBRANCH   4   7
ENDBRANCH   1   4
BRANCH   1  39
ATOM     39  C   UNL A   1      34.845  32.962  27.722  1.00  0.00    -0.052 C 
ATOM     40  H   UNL A   1      34.156  33.335  26.993  1.00  0.00     0.027 H 
ATOM     41  H   UNL A   1      35.793  32.640  27.345  1.00  0.00     0.027 H 
BRANCH  39  42
ATOM     42  C   UNL A   1      35.186  34.128  28.672  1.00  0.00    -0.052 C 
ATOM     43  H   UNL A   1      36.085  34.578  28.304  1.00  0.00     0.027 H 
ATOM     44  H   UNL A   1      35.239  33.663  29.635  1.00  0.00     0.027 H 
BRANCH  42  45
ATOM     45  C   UNL A   1      34.161  35.264  28.871  1.00  0.00    -0.036 C 
ATOM     46  H   UNL A   1      33.811  35.559  27.904  1.00  0.00     0.028 H 
ATOM     47  H   UNL A   1      34.685  36.029  29.404  1.00  0.00     0.028 H 
BRANCH  45  48
ATOM     48  C   UNL A   1      32.942  34.935  29.727  1.00  0.00     0.018 C 
ATOM     49  H   UNL A   1      32.943  33.884  29.926  1.00  0.00     0.049 H 
ATOM     50  H   UNL A   1      32.080  35.246  29.173  1.00  0.00     0.049 H 
BRANCH  48  51
ATOM     51  N   UNL A   1      32.908  35.645  31.000  1.00  0.00    -0.352 N 
ATOM     52  C   UNL A   1      33.554  35.362  32.190  1.00  0.00     0.251 C 
ATOM     53  H   UNL A   1      32.339  36.449  31.014  1.00  0.00     0.163 HD
ATOM     54  O   UNL A   1      33.171  35.859  33.230  1.00  0.00    -0.269 OA
BRANCH  52  55
ATOM     55  C   UNL A   1      34.717  34.444  32.198  1.00  0.00     0.039 A 
ATOM     56  C   UNL A   1      34.519  33.062  32.130  1.00  0.00    -0.049 A 
ATOM     57  C   UNL A   1      36.006  34.961  32.317  1.00  0.00    -0.049 A 
ATOM     58  C   UNL A   1      35.631  32.224  32.118  1.00  0.00    -0.053 A 
ATOM     59  H   UNL A   1      33.566  32.670  32.090  1.00  0.00     0.063 H 
ATOM     60  C   UNL A   1      37.105  34.150  32.163  1.00  0.00    -0.053 A 
ATOM     61  H   UNL A   1      36.136  35.964  32.525  1.00  0.00     0.063 H 
ATOM     62  C   UNL A   1      36.924  32.778  32.110  1.00  0.00    -0.014 A 
ATOM     63  H   UNL A   1      35.506  31.200  32.115  1.00  0.00     0.063 H 
ATOM     64  H   UNL A   1      38.051  34.557  32.088  1.00  0.00     0.063 H 
BRANCH  62  65
ATOM     65  C   UNL A   1      38.082  31.922  31.895  1.00  0.00     0.031 A 
ATOM     66  C   UNL A   1      38.806  31.614  33.152  1.00  0.00     0.074 A 
ATOM     67  C   UNL A   1      38.411  31.342  30.721  1.00  0.00     0.049 A 
ATOM     68  N   UNL A   1      39.925  32.126  33.535  1.00  0.00    -0.248 NA
ATOM     69  C   UNL A   1      38.134  30.810  34.183  1.00  0.00    -0.034 C 
ATOM     70  C   UNL A   1      37.644  31.306  29.472  1.00  0.00    -0.036 A 
ATOM     71  N   UNL A   1      39.513  30.597  30.416  1.00  0.00    -0.354 N 
ATOM     72  C   UNL A   1      40.211  31.549  34.768  1.00  0.00     0.074 A 
ATOM     73  C   UNL A   1      38.999  30.906  35.197  1.00  0.00    -0.034 C 
ATOM     74  H   UNL A   1      37.234  30.306  34.137  1.00  0.00     0.065 H 
ATOM     75  C   UNL A   1      38.200  30.416  28.618  1.00  0.00    -0.036 A 
ATOM     76  H   UNL A   1      36.804  31.873  29.274  1.00  0.00     0.065 H 
ATOM     77  C   UNL A   1      39.454  29.951  29.183  1.00  0.00     0.049 A 
ATOM     78  H   UNL A   1      40.288  30.522  31.018  1.00  0.00     0.167 HD
ATOM     79  C   UNL A   1      41.505  31.434  35.173  1.00  0.00     0.037 A 
ATOM     80  H   UNL A   1      38.822  30.565  36.154  1.00  0.00     0.065 H 
ATOM     81  H   UNL A   1      37.801  30.117  27.715  1.00  0.00     0.065 H 
ATOM     82  C   UNL A   1      40.383  29.107  28.669  1.00  0.00     0.037 A 
ATOM     83  C   UNL A   1      42.353  32.281  34.366  1.00  0.00     0.049 A 
ATOM     84  C   UNL A   1      41.660  29.426  29.345  1.00  0.00     0.074 A 
ATOM     85  C   UNL A   1      42.522  33.638  34.188  1.00  0.00    -0.036 A 
ATOM     86  N   UNL A   1      42.891  31.665  33.266  1.00  0.00    -0.354 N 
ATOM     87  N   UNL A   1      42.307  30.545  29.179  1.00  0.00    -0.248 NA
ATOM     88  C   UNL A   1      42.045  28.646  30.511  1.00  0.00    -0.034 C 
ATOM     89  C   UNL A   1      42.883  33.803  32.816  1.00  0.00    -0.036 A 
ATOM     90  H   UNL A   1      42.411  34.378  34.898  1.00  0.00     0.065 H 
ATOM     91  C   UNL A   1      42.983  32.544  32.224  1.00  0.00     0.049 A 
ATOM     92  H   UNL A   1      43.170  30.720  33.231  1.00  0.00     0.167 HD
ATOM     93  C   UNL A   1      42.843  30.820  30.424  1.00  0.00     0.074 A 
ATOM     94  C   UNL A   1      42.795  29.551  31.144  1.00  0.00    -0.034 C 
ATOM     95  H   UNL A   1      41.808  27.676  30.773  1.00  0.00     0.065 H 
ATOM     96  H   UNL A   1      43.043  34.705  32.341  1.00  0.00     0.065 H 
ATOM     97  C   UNL A   1      42.984  32.111  30.841  1.00  0.00     0.037 A 
ATOM     98  H   UNL A   1      43.282  29.375  32.036  1.00  0.00     0.065 H 
BRANCH  79  99
ATOM     99  C   UNL A   1      42.075  30.238  35.913  1.00  0.00     0.064 A 
ATOM    100  C   UNL A   1      43.048  30.462  36.912  1.00  0.00     0.173 A 
ATOM    101  C   UNL A   1      41.961  28.899  35.478  1.00  0.00     0.173 A 
ATOM    102  F   UNL A   1      43.263  31.697  37.393  1.00  0.00    -0.203 F 
ATOM    103  C   UNL A   1      43.895  29.447  37.367  1.00  0.00     0.198 A 
ATOM    104  C   UNL A   1      42.775  27.880  35.971  1.00  0.00     0.198 A 
ATOM    105  F   UNL A   1      41.146  28.531  34.485  1.00  0.00    -0.203 F 
ATOM    106  F   UNL A   1      44.890  29.741  38.215  1.00  0.00    -0.200 F 
ATOM    107  C   UNL A   1      43.763  28.158  36.890  1.00  0.00     0.200 A 
ATOM    108  F   UNL A   1      42.647  26.640  35.476  1.00  0.00    -0.200 F 
ATOM    109  F   UNL A   1      44.612  27.197  37.276  1.00  0.00    -0.200 F 
ENDBRANCH  79  99
BRANCH  82 110
ATOM    110  C   UNL A   1      40.226  27.887  27.840  1.00  0.00     0.064 A 
ATOM    111  C   UNL A   1      40.978  27.716  26.661  1.00  0.00     0.173 A 
ATOM    112  C   UNL A   1      39.601  26.735  28.351  1.00  0.00     0.173 A 
ATOM    113  F   UNL A   1      41.630  28.755  26.119  1.00  0.00    -0.203 F 
ATOM    114  C   UNL A   1      41.149  26.459  26.070  1.00  0.00     0.198 A 
ATOM    115  C   UNL A   1      39.769  25.481  27.757  1.00  0.00     0.198 A 
ATOM    116  F   UNL A   1      38.903  26.784  29.495  1.00  0.00    -0.203 F 
ATOM    117  F   UNL A   1      41.946  26.326  25.000  1.00  0.00    -0.200 F 
ATOM    118  C   UNL A   1      40.561  25.340  26.631  1.00  0.00     0.200 A 
ATOM    119  F   UNL A   1      39.223  24.397  28.327  1.00  0.00    -0.200 F 
ATOM    120  F   UNL A   1      40.790  24.123  26.116  1.00  0.00    -0.200 F 
ENDBRANCH  82 110
BRANCH  97 121
ATOM    121  C   UNL A   1      42.961  33.187  29.793  1.00  0.00     0.064 A 
ATOM    122  C   UNL A   1      41.853  34.002  29.504  1.00  0.00     0.173 A 
ATOM    123  C   UNL A   1      44.170  33.489  29.149  1.00  0.00     0.173 A 
ATOM    124  F   UNL A   1      40.683  33.825  30.128  1.00  0.00    -0.203 F 
ATOM    125  C   UNL A   1      41.952  35.057  28.596  1.00  0.00     0.198 A 
ATOM    126  C   UNL A   1      44.275  34.565  28.273  1.00  0.00     0.198 A 
ATOM    127  F   UNL A   1      45.269  32.766  29.412  1.00  0.00    -0.203 F 
ATOM    128  F   UNL A   1      40.879  35.818  28.330  1.00  0.00    -0.200 F 
ATOM    129  C   UNL A   1      43.165  35.345  27.993  1.00  0.00     0.200 A 
ATOM    130  F   UNL A   1      45.461  34.864  27.728  1.00  0.00    -0.200 F 
ATOM    131  F   UNL A   1      43.272  36.391  27.160  1.00  0.00    -0.200 F 
ENDBRANCH  97 121
ENDBRANCH  62  65
ENDBRANCH  52  55
ENDBRANCH  48  51
ENDBRANCH  45  48
ENDBRANCH  42  45
ENDBRANCH  39  42
ENDBRANCH   1  39
TORSDOF 19
ENDMDL
MODEL 5
REMARK VINA RESULT:     -11.0      3.011      8.929
REMARK SMILES Cc1cc(C)c2c(OCCCC(=O)NCCCCCCNC(=O)c3ccc(-c4c5nc(c(-c6c(F)c(F)c(F)c(F)c6F)c6ccc([nH]6)c(-c6c(F)c(F)c(F)c(F)c6F)c6nc(c(-c7c(F)c(F)c(F)c(F)c7F)c7ccc4[nH]7)C=C6)C=C5)cc3)nsc2n1
REMARK SMILES IDX 16 1 15 4 14 7 12 8 13 9 11 11 10 14 9 17 8 20 7 21 2 22
REMARK SMILES IDX 3 23 90 24 4 25 89 27 6 28 88 29 87 30 1 31 5 35 17 39 18 42
REMARK SMILES IDX 19 45 20 48 21 51 22 52 23 54 24 55 25 56 86 57 26 58 85 60
REMARK SMILES IDX 27 62 28 65 29 66 79 67 30 68 84 69 78 70 80 71 31 72 83 73
REMARK SMILES IDX 77 75 76 77 32 79 64 82 44 83 63 84 45 85 48 86 62 87 81 88
REMARK SMILES IDX 46 89 47 91 61 93 82 94 49 97 33 99 34 100 42 101 35 102
REMARK SMILES IDX 36 103 40 104 43 105 37 106 38 107 41 108 39 109 65 110
REMARK SMILES IDX 66 111 74 112 67 113 68 114 72 115 75 116 69 117 70 118
REMARK SMILES IDX 73 119 71 120 50 121 51 122 59 123 52 124 53 125 57 126
REMARK SMILES IDX 60 127 54 128 55 129 58 130 56 131
REMARK H PARENT 16 2 16 3 15 5 15 6 14 10 11 12 11 13 10 15 10 16 9 18 9 19
REMARK H PARENT 3 26 1 32 1 33 1 34 5 36 5 37 5 38 17 40 17 41 18 43 18 44
REMARK H PARENT 19 46 19 47 20 49 20 50 21 53 25 59 86 61 26 63 85 64 84 74
REMARK H PARENT 78 76 80 78 83 80 77 81 45 90 48 92 81 95 46 96 82 98
REMARK Flexibility Score: inf
ROOT
ATOM      1  C   UNL A   1      32.954  27.025  26.398  1.00  0.00    -0.036 C 
ATOM      2  H   UNL A   1      33.412  26.227  25.850  1.00  0.00     0.028 H 
ATOM      3  H   UNL A   1      33.055  26.950  27.460  1.00  0.00     0.028 H 
ENDROOT
BRANCH   1   4
ATOM      4  C   UNL A   1      31.408  26.966  26.122  1.00  0.00     0.017 C 
ATOM      5  H   UNL A   1      30.942  27.752  26.681  1.00  0.00     0.049 H 
ATOM      6  H   UNL A   1      31.292  27.068  25.063  1.00  0.00     0.049 H 
BRANCH   4   7
ATOM      7  N   UNL A   1      30.713  25.625  26.505  1.00  0.00    -0.356 N 
ATOM      8  C   UNL A   1      30.723  24.270  26.737  1.00  0.00     0.220 C 
ATOM      9  O   UNL A   1      29.591  23.936  27.161  1.00  0.00    -0.275 OA
ATOM     10  H   UNL A   1      29.777  25.883  26.666  1.00  0.00     0.163 HD
BRANCH   8  11
ATOM     11  C   UNL A   1      31.832  23.048  26.795  1.00  0.00     0.030 C 
ATOM     12  H   UNL A   1      31.256  22.250  27.212  1.00  0.00     0.037 H 
ATOM     13  H   UNL A   1      32.230  23.284  25.830  1.00  0.00     0.037 H 
BRANCH  11  14
ATOM     14  C   UNL A   1      33.299  22.763  27.429  1.00  0.00    -0.010 C 
ATOM     15  H   UNL A   1      33.835  23.661  27.207  1.00  0.00     0.031 H 
ATOM     16  H   UNL A   1      32.933  22.376  28.356  1.00  0.00     0.031 H 
BRANCH  14  17
ATOM     17  C   UNL A   1      34.401  21.624  27.218  1.00  0.00     0.090 C 
ATOM     18  H   UNL A   1      35.330  22.075  27.503  1.00  0.00     0.071 H 
ATOM     19  H   UNL A   1      33.957  20.829  27.777  1.00  0.00     0.071 H 
BRANCH  17  20
ATOM     20  O   UNL A   1      34.676  20.941  25.984  1.00  0.00    -0.477 OA
BRANCH  20  21
ATOM     21  C   UNL A   1      35.028  21.573  24.834  1.00  0.00     0.235 A 
ATOM     22  C   UNL A   1      33.052  24.399  22.755  1.00  0.00     0.039 A 
ATOM     23  C   UNL A   1      32.297  23.270  23.060  1.00  0.00    -0.037 A 
ATOM     24  N   UNL A   1      34.402  24.389  22.740  1.00  0.00    -0.240 NA
ATOM     25  C   UNL A   1      32.908  22.076  23.497  1.00  0.00    -0.034 A 
ATOM     26  H   UNL A   1      31.269  23.307  22.967  1.00  0.00     0.064 H 
ATOM     27  C   UNL A   1      34.922  23.298  23.339  1.00  0.00     0.147 A 
ATOM     28  C   UNL A   1      34.223  22.235  23.879  1.00  0.00     0.078 A 
ATOM     29  S   UNL A   1      36.576  22.952  23.544  1.00  0.00    -0.012 S 
ATOM     30  N   UNL A   1      36.343  21.726  24.668  1.00  0.00    -0.153 NA
BRANCH  22  31
ATOM     31  C   UNL A   1      32.348  25.712  22.520  1.00  0.00    -0.022 C 
ATOM     32  H   UNL A   1      32.713  26.155  21.617  1.00  0.00     0.030 H 
ATOM     33  H   UNL A   1      32.537  26.370  23.342  1.00  0.00     0.030 H 
ATOM     34  H   UNL A   1      31.296  25.540  22.434  1.00  0.00     0.030 H 
ENDBRANCH  22  31
BRANCH  25  35
ATOM     35  C   UNL A   1      32.351  20.714  23.663  1.00  0.00    -0.039 C 
ATOM     36  H   UNL A   1      33.043  20.109  24.211  1.00  0.00     0.028 H 
ATOM     37  H   UNL A   1      32.181  20.278  22.701  1.00  0.00     0.028 H 
ATOM     38  H   UNL A   1      31.425  20.770  24.198  1.00  0.00     0.028 H 
ENDBRANCH  25  35
ENDBRANCH  20  21
ENDBRANCH  17  20
ENDBRANCH  14  17
ENDBRANCH  11  14
ENDBRANCH   8  11
ENDBRANCH   4   7
ENDBRANCH   1   4
BRANCH   1  39
ATOM     39  C   UNL A   1      33.670  28.329  26.011  1.00  0.00    -0.052 C 
ATOM     40  H   UNL A   1      32.957  28.946  25.507  1.00  0.00     0.027 H 
ATOM     41  H   UNL A   1      34.507  28.009  25.426  1.00  0.00     0.027 H 
BRANCH  39  42
ATOM     42  C   UNL A   1      34.294  29.177  27.139  1.00  0.00    -0.052 C 
ATOM     43  H   UNL A   1      35.320  29.336  26.879  1.00  0.00     0.027 H 
ATOM     44  H   UNL A   1      34.103  28.602  28.022  1.00  0.00     0.027 H 
BRANCH  42  45
ATOM     45  C   UNL A   1      33.692  30.559  27.465  1.00  0.00    -0.036 C 
ATOM     46  H   UNL A   1      33.146  30.467  28.382  1.00  0.00     0.028 H 
ATOM     47  H   UNL A   1      33.092  30.815  26.617  1.00  0.00     0.028 H 
BRANCH  45  48
ATOM     48  C   UNL A   1      34.680  31.709  27.626  1.00  0.00     0.018 C 
ATOM     49  H   UNL A   1      34.419  32.478  26.931  1.00  0.00     0.049 H 
ATOM     50  H   UNL A   1      35.656  31.308  27.446  1.00  0.00     0.049 H 
BRANCH  48  51
ATOM     51  N   UNL A   1      34.699  32.286  28.966  1.00  0.00    -0.352 N 
ATOM     52  C   UNL A   1      35.461  31.941  30.068  1.00  0.00     0.251 C 
ATOM     53  H   UNL A   1      34.076  33.035  29.106  1.00  0.00     0.163 HD
ATOM     54  O   UNL A   1      35.130  32.302  31.179  1.00  0.00    -0.269 OA
BRANCH  52  55
ATOM     55  C   UNL A   1      36.685  31.126  29.893  1.00  0.00     0.039 A 
ATOM     56  C   UNL A   1      37.926  31.749  29.736  1.00  0.00    -0.049 A 
ATOM     57  C   UNL A   1      36.589  29.736  29.840  1.00  0.00    -0.049 A 
ATOM     58  C   UNL A   1      39.063  30.958  29.594  1.00  0.00    -0.053 A 
ATOM     59  H   UNL A   1      37.999  32.778  29.725  1.00  0.00     0.063 H 
ATOM     60  C   UNL A   1      37.720  28.953  29.843  1.00  0.00    -0.053 A 
ATOM     61  H   UNL A   1      35.659  29.290  29.797  1.00  0.00     0.063 H 
ATOM     62  C   UNL A   1      38.953  29.557  29.673  1.00  0.00    -0.014 A 
ATOM     63  H   UNL A   1      39.982  31.397  29.431  1.00  0.00     0.063 H 
ATOM     64  H   UNL A   1      37.649  27.930  29.969  1.00  0.00     0.063 H 
BRANCH  62  65
ATOM     65  C   UNL A   1      40.154  28.734  29.727  1.00  0.00     0.031 A 
ATOM     66  C   UNL A   1      40.661  28.555  31.110  1.00  0.00     0.074 A 
ATOM     67  C   UNL A   1      40.693  28.078  28.678  1.00  0.00     0.049 A 
ATOM     68  N   UNL A   1      41.685  29.141  31.629  1.00  0.00    -0.248 NA
ATOM     69  C   UNL A   1      39.846  27.808  32.078  1.00  0.00    -0.034 C 
ATOM     70  C   UNL A   1      40.150  27.912  27.326  1.00  0.00    -0.036 A 
ATOM     71  N   UNL A   1      41.851  27.356  28.626  1.00  0.00    -0.354 N 
ATOM     72  C   UNL A   1      41.772  28.675  32.937  1.00  0.00     0.074 A 
ATOM     73  C   UNL A   1      40.522  28.018  33.210  1.00  0.00    -0.034 C 
ATOM     74  H   UNL A   1      38.980  27.266  31.924  1.00  0.00     0.065 H 
ATOM     75  C   UNL A   1      40.867  26.981  26.655  1.00  0.00    -0.036 A 
ATOM     76  H   UNL A   1      39.342  28.428  26.943  1.00  0.00     0.065 H 
ATOM     77  C   UNL A   1      42.019  26.614  27.459  1.00  0.00     0.049 A 
ATOM     78  H   UNL A   1      42.513  27.360  29.354  1.00  0.00     0.167 HD
ATOM     79  C   UNL A   1      42.981  28.645  33.562  1.00  0.00     0.037 A 
ATOM     80  H   UNL A   1      40.195  27.747  34.150  1.00  0.00     0.065 H 
ATOM     81  H   UNL A   1      40.636  26.596  25.727  1.00  0.00     0.065 H 
ATOM     82  C   UNL A   1      43.045  25.770  27.181  1.00  0.00     0.037 A 
ATOM     83  C   UNL A   1      43.931  29.459  32.839  1.00  0.00     0.049 A 
ATOM     84  C   UNL A   1      44.179  26.193  28.032  1.00  0.00     0.074 A 
ATOM     85  C   UNL A   1      44.092  30.803  32.578  1.00  0.00    -0.036 A 
ATOM     86  N   UNL A   1      44.664  28.780  31.900  1.00  0.00    -0.354 N 
ATOM     87  N   UNL A   1      44.815  27.320  27.883  1.00  0.00    -0.248 NA
ATOM     88  C   UNL A   1      44.381  25.523  29.308  1.00  0.00    -0.034 C 
ATOM     89  C   UNL A   1      44.676  30.875  31.277  1.00  0.00    -0.036 A 
ATOM     90  H   UNL A   1      43.842  31.592  33.195  1.00  0.00     0.065 H 
ATOM     91  C   UNL A   1      44.909  29.578  30.818  1.00  0.00     0.049 A 
ATOM     92  H   UNL A   1      44.971  27.848  31.993  1.00  0.00     0.167 HD
ATOM     93  C   UNL A   1      45.123  27.714  29.172  1.00  0.00     0.074 A 
ATOM     94  C   UNL A   1      44.987  26.504  29.978  1.00  0.00    -0.034 C 
ATOM     95  H   UNL A   1      44.128  24.567  29.606  1.00  0.00     0.065 H 
ATOM     96  H   UNL A   1      44.891  31.743  30.761  1.00  0.00     0.065 H 
ATOM     97  C   UNL A   1      45.156  29.039  29.497  1.00  0.00     0.037 A 
ATOM     98  H   UNL A   1      45.320  26.419  30.951  1.00  0.00     0.065 H 
BRANCH  79  99
ATOM     99  C   UNL A   1      43.448  27.534  34.484  1.00  0.00     0.064 A 
ATOM    100  C   UNL A   1      43.495  26.214  33.983  1.00  0.00     0.173 A 
ATOM    101  C   UNL A   1      43.535  27.643  35.890  1.00  0.00     0.173 A 
ATOM    102  F   UNL A   1      43.403  25.980  32.664  1.00  0.00    -0.203 F 
ATOM    103  C   UNL A   1      43.533  25.099  34.825  1.00  0.00     0.198 A 
ATOM    104  C   UNL A   1      43.621  26.529  36.723  1.00  0.00     0.198 A 
ATOM    105  F   UNL A   1      43.426  28.811  36.529  1.00  0.00    -0.203 F 
ATOM    106  F   UNL A   1      43.439  23.868  34.303  1.00  0.00    -0.200 F 
ATOM    107  C   UNL A   1      43.588  25.257  36.195  1.00  0.00     0.200 A 
ATOM    108  F   UNL A   1      43.649  26.705  38.052  1.00  0.00    -0.200 F 
ATOM    109  F   UNL A   1      43.561  24.193  37.008  1.00  0.00    -0.200 F 
ENDBRANCH  79  99
BRANCH  82 110
ATOM    110  C   UNL A   1      43.063  24.483  26.443  1.00  0.00     0.064 A 
ATOM    111  C   UNL A   1      43.846  24.331  25.282  1.00  0.00     0.173 A 
ATOM    112  C   UNL A   1      42.593  23.297  27.035  1.00  0.00     0.173 A 
ATOM    113  F   UNL A   1      44.360  25.407  24.667  1.00  0.00    -0.203 F 
ATOM    114  C   UNL A   1      44.192  23.069  24.785  1.00  0.00     0.198 A 
ATOM    115  C   UNL A   1      42.935  22.038  26.535  1.00  0.00     0.198 A 
ATOM    116  F   UNL A   1      41.880  23.334  28.171  1.00  0.00    -0.203 F 
ATOM    117  F   UNL A   1      45.013  22.968  23.730  1.00  0.00    -0.200 F 
ATOM    118  C   UNL A   1      43.753  21.924  25.424  1.00  0.00     0.200 A 
ATOM    119  F   UNL A   1      42.532  20.934  27.181  1.00  0.00    -0.200 F 
ATOM    120  F   UNL A   1      44.150  20.716  25.000  1.00  0.00    -0.200 F 
ENDBRANCH  82 110
BRANCH  97 121
ATOM    121  C   UNL A   1      45.284  30.027  28.373  1.00  0.00     0.064 A 
ATOM    122  C   UNL A   1      44.202  30.640  27.717  1.00  0.00     0.173 A 
ATOM    123  C   UNL A   1      46.573  30.469  28.042  1.00  0.00     0.173 A 
ATOM    124  F   UNL A   1      42.939  30.326  28.025  1.00  0.00    -0.203 F 
ATOM    125  C   UNL A   1      44.409  31.636  26.762  1.00  0.00     0.198 A 
ATOM    126  C   UNL A   1      46.774  31.489  27.117  1.00  0.00     0.198 A 
ATOM    127  F   UNL A   1      47.641  29.944  28.660  1.00  0.00    -0.203 F 
ATOM    128  F   UNL A   1      43.361  32.203  26.144  1.00  0.00    -0.200 F 
ATOM    129  C   UNL A   1      45.693  32.068  26.474  1.00  0.00     0.200 A 
ATOM    130  F   UNL A   1      48.015  31.931  26.876  1.00  0.00    -0.200 F 
ATOM    131  F   UNL A   1      45.888  33.060  25.594  1.00  0.00    -0.200 F 
ENDBRANCH  97 121
ENDBRANCH  62  65
ENDBRANCH  52  55
ENDBRANCH  48  51
ENDBRANCH  45  48
ENDBRANCH  42  45
ENDBRANCH  39  42
ENDBRANCH   1  39
TORSDOF 19
ENDMDL
MODEL 6
REMARK VINA RESULT:     -10.9      2.822      4.022
REMARK SMILES Cc1cc(C)c2c(OCCCC(=O)NCCCCCCNC(=O)c3ccc(-c4c5nc(c(-c6c(F)c(F)c(F)c(F)c6F)c6ccc([nH]6)c(-c6c(F)c(F)c(F)c(F)c6F)c6nc(c(-c7c(F)c(F)c(F)c(F)c7F)c7ccc4[nH]7)C=C6)C=C5)cc3)nsc2n1
REMARK SMILES IDX 16 1 15 4 14 7 12 8 13 9 11 11 10 14 9 17 8 20 7 21 2 22
REMARK SMILES IDX 3 23 90 24 4 25 89 27 6 28 88 29 87 30 1 31 5 35 17 39 18 42
REMARK SMILES IDX 19 45 20 48 21 51 22 52 23 54 24 55 25 56 86 57 26 58 85 60
REMARK SMILES IDX 27 62 28 65 29 66 79 67 30 68 84 69 78 70 80 71 31 72 83 73
REMARK SMILES IDX 77 75 76 77 32 79 64 82 44 83 63 84 45 85 48 86 62 87 81 88
REMARK SMILES IDX 46 89 47 91 61 93 82 94 49 97 33 99 34 100 42 101 35 102
REMARK SMILES IDX 36 103 40 104 43 105 37 106 38 107 41 108 39 109 65 110
REMARK SMILES IDX 66 111 74 112 67 113 68 114 72 115 75 116 69 117 70 118
REMARK SMILES IDX 73 119 71 120 50 121 51 122 59 123 52 124 53 125 57 126
REMARK SMILES IDX 60 127 54 128 55 129 58 130 56 131
REMARK H PARENT 16 2 16 3 15 5 15 6 14 10 11 12 11 13 10 15 10 16 9 18 9 19
REMARK H PARENT 3 26 1 32 1 33 1 34 5 36 5 37 5 38 17 40 17 41 18 43 18 44
REMARK H PARENT 19 46 19 47 20 49 20 50 21 53 25 59 86 61 26 63 85 64 84 74
REMARK H PARENT 78 76 80 78 83 80 77 81 45 90 48 92 81 95 46 96 82 98
REMARK Flexibility Score: inf
ROOT
ATOM      1  C   UNL A   1      34.080  19.883  24.976  1.00  0.00    -0.036 C 
ATOM      2  H   UNL A   1      34.096  19.141  24.205  1.00  0.00     0.028 H 
ATOM      3  H   UNL A   1      34.357  19.525  25.945  1.00  0.00     0.028 H 
ENDROOT
BRANCH   1   4
ATOM      4  C   UNL A   1      32.597  20.383  25.125  1.00  0.00     0.017 C 
ATOM      5  H   UNL A   1      32.252  20.687  24.158  1.00  0.00     0.049 H 
ATOM      6  H   UNL A   1      32.047  19.561  25.537  1.00  0.00     0.049 H 
BRANCH   4   7
ATOM      7  N   UNL A   1      32.391  21.574  26.107  1.00  0.00    -0.356 N 
ATOM      8  C   UNL A   1      32.709  22.819  26.597  1.00  0.00     0.220 C 
ATOM      9  O   UNL A   1      31.861  23.127  27.468  1.00  0.00    -0.275 OA
ATOM     10  H   UNL A   1      31.639  21.286  26.673  1.00  0.00     0.163 HD
BRANCH   8  11
ATOM     11  C   UNL A   1      33.743  24.051  26.225  1.00  0.00     0.030 C 
ATOM     12  H   UNL A   1      33.138  24.911  26.418  1.00  0.00     0.037 H 
ATOM     13  H   UNL A   1      34.575  23.576  26.703  1.00  0.00     0.037 H 
BRANCH  11  14
ATOM     14  C   UNL A   1      34.639  24.553  24.968  1.00  0.00    -0.010 C 
ATOM     15  H   UNL A   1      34.592  25.619  25.050  1.00  0.00     0.031 H 
ATOM     16  H   UNL A   1      35.445  23.872  25.142  1.00  0.00     0.031 H 
BRANCH  14  17
ATOM     17  C   UNL A   1      34.577  24.311  23.389  1.00  0.00     0.090 C 
ATOM     18  H   UNL A   1      35.562  24.529  23.031  1.00  0.00     0.071 H 
ATOM     19  H   UNL A   1      34.166  23.324  23.368  1.00  0.00     0.071 H 
BRANCH  17  20
ATOM     20  O   UNL A   1      33.688  24.972  22.473  1.00  0.00    -0.477 OA
BRANCH  20  21
ATOM     21  C   UNL A   1      33.178  26.214  22.682  1.00  0.00     0.235 A 
ATOM     22  C   UNL A   1      31.573  27.797  26.019  1.00  0.00     0.039 A 
ATOM     23  C   UNL A   1      31.037  26.567  25.645  1.00  0.00    -0.037 A 
ATOM     24  N   UNL A   1      32.223  28.601  25.151  1.00  0.00    -0.240 NA
ATOM     25  C   UNL A   1      31.255  26.035  24.357  1.00  0.00    -0.034 A 
ATOM     26  H   UNL A   1      30.470  26.034  26.323  1.00  0.00     0.064 H 
ATOM     27  C   UNL A   1      32.561  27.970  24.008  1.00  0.00     0.147 A 
ATOM     28  C   UNL A   1      32.263  26.666  23.660  1.00  0.00     0.078 A 
ATOM     29  S   UNL A   1      33.413  28.644  22.697  1.00  0.00    -0.012 S 
ATOM     30  N   UNL A   1      33.749  27.175  21.955  1.00  0.00    -0.153 NA
BRANCH  22  31
ATOM     31  C   UNL A   1      31.513  28.215  27.467  1.00  0.00    -0.022 C 
ATOM     32  H   UNL A   1      31.790  27.389  28.088  1.00  0.00     0.030 H 
ATOM     33  H   UNL A   1      30.517  28.524  27.708  1.00  0.00     0.030 H 
ATOM     34  H   UNL A   1      32.189  29.027  27.631  1.00  0.00     0.030 H 
ENDBRANCH  22  31
BRANCH  25  35
ATOM     35  C   UNL A   1      30.622  24.885  23.671  1.00  0.00    -0.039 C 
ATOM     36  H   UNL A   1      29.598  24.809  23.971  1.00  0.00     0.028 H 
ATOM     37  H   UNL A   1      31.138  23.985  23.933  1.00  0.00     0.028 H 
ATOM     38  H   UNL A   1      30.674  25.029  22.611  1.00  0.00     0.028 H 
ENDBRANCH  25  35
ENDBRANCH  20  21
ENDBRANCH  17  20
ENDBRANCH  14  17
ENDBRANCH  11  14
ENDBRANCH   8  11
ENDBRANCH   4   7
ENDBRANCH   1   4
BRANCH   1  39
ATOM     39  C   UNL A   1      35.129  20.949  24.620  1.00  0.00    -0.052 C 
ATOM     40  H   UNL A   1      34.600  21.848  24.380  1.00  0.00     0.027 H 
ATOM     41  H   UNL A   1      35.691  20.512  23.822  1.00  0.00     0.027 H 
BRANCH  39  42
ATOM     42  C   UNL A   1      36.187  21.310  25.683  1.00  0.00    -0.052 C 
ATOM     43  H   UNL A   1      36.189  20.517  26.402  1.00  0.00     0.027 H 
ATOM     44  H   UNL A   1      35.880  22.275  26.029  1.00  0.00     0.027 H 
BRANCH  42  45
ATOM     45  C   UNL A   1      37.651  21.528  25.247  1.00  0.00    -0.036 C 
ATOM     46  H   UNL A   1      37.639  21.893  24.241  1.00  0.00     0.028 H 
ATOM     47  H   UNL A   1      38.127  20.577  25.367  1.00  0.00     0.028 H 
BRANCH  45  48
ATOM     48  C   UNL A   1      38.470  22.502  26.086  1.00  0.00     0.018 C 
ATOM     49  H   UNL A   1      37.827  22.941  26.819  1.00  0.00     0.049 H 
ATOM     50  H   UNL A   1      38.877  23.227  25.412  1.00  0.00     0.049 H 
BRANCH  48  51
ATOM     51  N   UNL A   1      39.598  21.883  26.774  1.00  0.00    -0.352 N 
ATOM     52  C   UNL A   1      40.739  22.460  27.301  1.00  0.00     0.251 C 
ATOM     53  H   UNL A   1      39.535  20.906  26.881  1.00  0.00     0.163 HD
ATOM     54  O   UNL A   1      41.713  21.777  27.548  1.00  0.00    -0.269 OA
BRANCH  52  55
ATOM     55  C   UNL A   1      40.776  23.918  27.561  1.00  0.00     0.039 A 
ATOM     56  C   UNL A   1      39.831  24.759  26.967  1.00  0.00    -0.049 A 
ATOM     57  C   UNL A   1      41.783  24.452  28.363  1.00  0.00    -0.049 A 
ATOM     58  C   UNL A   1      39.876  26.123  27.245  1.00  0.00    -0.053 A 
ATOM     59  H   UNL A   1      39.113  24.377  26.334  1.00  0.00     0.063 H 
ATOM     60  C   UNL A   1      41.746  25.771  28.752  1.00  0.00    -0.053 A 
ATOM     61  H   UNL A   1      42.566  23.852  28.667  1.00  0.00     0.063 H 
ATOM     62  C   UNL A   1      40.825  26.618  28.160  1.00  0.00    -0.014 A 
ATOM     63  H   UNL A   1      39.218  26.768  26.782  1.00  0.00     0.063 H 
ATOM     64  H   UNL A   1      42.395  26.124  29.473  1.00  0.00     0.063 H 
BRANCH  62  65
ATOM     65  C   UNL A   1      40.750  28.002  28.608  1.00  0.00     0.031 A 
ATOM     66  C   UNL A   1      41.846  28.839  28.063  1.00  0.00     0.074 A 
ATOM     67  C   UNL A   1      39.737  28.531  29.326  1.00  0.00     0.049 A 
ATOM     68  N   UNL A   1      42.887  29.248  28.704  1.00  0.00    -0.248 NA
ATOM     69  C   UNL A   1      41.902  29.086  26.614  1.00  0.00    -0.034 C 
ATOM     70  C   UNL A   1      38.454  27.920  29.685  1.00  0.00    -0.036 A 
ATOM     71  N   UNL A   1      39.627  29.787  29.851  1.00  0.00    -0.354 N 
ATOM     72  C   UNL A   1      43.634  29.987  27.793  1.00  0.00     0.074 A 
ATOM     73  C   UNL A   1      43.085  29.694  26.497  1.00  0.00    -0.034 C 
ATOM     74  H   UNL A   1      41.212  28.851  25.883  1.00  0.00     0.065 H 
ATOM     75  C   UNL A   1      37.621  28.863  30.186  1.00  0.00    -0.036 A 
ATOM     76  H   UNL A   1      38.219  26.922  29.573  1.00  0.00     0.065 H 
ATOM     77  C   UNL A   1      38.364  30.100  30.347  1.00  0.00     0.049 A 
ATOM     78  H   UNL A   1      40.380  30.420  29.877  1.00  0.00     0.167 HD
ATOM     79  C   UNL A   1      44.454  30.977  28.241  1.00  0.00     0.037 A 
ATOM     80  H   UNL A   1      43.542  29.924  25.600  1.00  0.00     0.065 H 
ATOM     81  H   UNL A   1      36.625  28.726  30.416  1.00  0.00     0.065 H 
ATOM     82  C   UNL A   1      37.973  31.292  30.864  1.00  0.00     0.037 A 
ATOM     83  C   UNL A   1      44.663  30.839  29.665  1.00  0.00     0.049 A 
ATOM     84  C   UNL A   1      39.203  31.977  31.316  1.00  0.00     0.074 A 
ATOM     85  C   UNL A   1      45.292  29.934  30.492  1.00  0.00    -0.036 A 
ATOM     86  N   UNL A   1      43.779  31.542  30.440  1.00  0.00    -0.354 N 
ATOM     87  N   UNL A   1      39.934  31.569  32.314  1.00  0.00    -0.248 NA
ATOM     88  C   UNL A   1      39.842  32.927  30.418  1.00  0.00    -0.034 C 
ATOM     89  C   UNL A   1      44.524  29.916  31.695  1.00  0.00    -0.036 A 
ATOM     90  H   UNL A   1      46.142  29.385  30.285  1.00  0.00     0.065 H 
ATOM     91  C   UNL A   1      43.494  30.852  31.584  1.00  0.00     0.049 A 
ATOM     92  H   UNL A   1      43.401  32.422  30.206  1.00  0.00     0.167 HD
ATOM     93  C   UNL A   1      41.232  31.849  31.927  1.00  0.00     0.074 A 
ATOM     94  C   UNL A   1      41.101  32.824  30.849  1.00  0.00    -0.034 C 
ATOM     95  H   UNL A   1      39.439  33.510  29.667  1.00  0.00     0.065 H 
ATOM     96  H   UNL A   1      44.700  29.310  32.513  1.00  0.00     0.065 H 
ATOM     97  C   UNL A   1      42.255  31.033  32.312  1.00  0.00     0.037 A 
ATOM     98  H   UNL A   1      41.889  33.369  30.465  1.00  0.00     0.065 H 
BRANCH  79  99
ATOM     99  C   UNL A   1      44.650  32.314  27.550  1.00  0.00     0.064 A 
ATOM    100  C   UNL A   1      45.818  32.511  26.781  1.00  0.00     0.173 A 
ATOM    101  C   UNL A   1      43.933  33.490  27.862  1.00  0.00     0.173 A 
ATOM    102  F   UNL A   1      46.594  31.472  26.436  1.00  0.00    -0.203 F 
ATOM    103  C   UNL A   1      46.275  33.787  26.434  1.00  0.00     0.198 A 
ATOM    104  C   UNL A   1      44.367  34.757  27.473  1.00  0.00     0.198 A 
ATOM    105  F   UNL A   1      42.852  33.488  28.647  1.00  0.00    -0.203 F 
ATOM    106  F   UNL A   1      47.458  33.926  25.822  1.00  0.00    -0.200 F 
ATOM    107  C   UNL A   1      45.552  34.909  26.788  1.00  0.00     0.200 A 
ATOM    108  F   UNL A   1      43.664  35.835  27.848  1.00  0.00    -0.200 F 
ATOM    109  F   UNL A   1      46.018  36.135  26.514  1.00  0.00    -0.200 F 
ENDBRANCH  79  99
BRANCH  82 110
ATOM    110  C   UNL A   1      36.673  32.003  30.775  1.00  0.00     0.064 A 
ATOM    111  C   UNL A   1      35.827  32.097  31.897  1.00  0.00     0.173 A 
ATOM    112  C   UNL A   1      36.394  32.878  29.710  1.00  0.00     0.173 A 
ATOM    113  F   UNL A   1      36.038  31.321  32.970  1.00  0.00    -0.203 F 
ATOM    114  C   UNL A   1      34.808  33.053  31.974  1.00  0.00     0.198 A 
ATOM    115  C   UNL A   1      35.372  33.829  29.787  1.00  0.00     0.198 A 
ATOM    116  F   UNL A   1      37.171  32.898  28.617  1.00  0.00    -0.203 F 
ATOM    117  F   UNL A   1      34.083  33.170  33.097  1.00  0.00    -0.200 F 
ATOM    118  C   UNL A   1      34.595  33.931  30.927  1.00  0.00     0.200 A 
ATOM    119  F   UNL A   1      35.196  34.697  28.781  1.00  0.00    -0.200 F 
ATOM    120  F   UNL A   1      33.676  34.902  31.032  1.00  0.00    -0.200 F 
ENDBRANCH  82 110
BRANCH  97 121
ATOM    121  C   UNL A   1      42.014  30.119  33.481  1.00  0.00     0.064 A 
ATOM    122  C   UNL A   1      41.591  28.783  33.380  1.00  0.00     0.173 A 
ATOM    123  C   UNL A   1      42.362  30.592  34.754  1.00  0.00     0.173 A 
ATOM    124  F   UNL A   1      41.309  28.234  32.193  1.00  0.00    -0.203 F 
ATOM    125  C   UNL A   1      41.505  27.968  34.509  1.00  0.00     0.198 A 
ATOM    126  C   UNL A   1      42.311  29.766  35.873  1.00  0.00     0.198 A 
ATOM    127  F   UNL A   1      42.804  31.850  34.906  1.00  0.00    -0.203 F 
ATOM    128  F   UNL A   1      41.092  26.696  34.391  1.00  0.00    -0.200 F 
ATOM    129  C   UNL A   1      41.877  28.456  35.751  1.00  0.00     0.200 A 
ATOM    130  F   UNL A   1      42.714  30.232  37.062  1.00  0.00    -0.200 F 
ATOM    131  F   UNL A   1      41.843  27.657  36.827  1.00  0.00    -0.200 F 
ENDBRANCH  97 121
ENDBRANCH  62  65
ENDBRANCH  52  55
ENDBRANCH  48  51
ENDBRANCH  45  48
ENDBRANCH  42  45
ENDBRANCH  39  42
ENDBRANCH   1  39
TORSDOF 19
ENDMDL
MODEL 7
REMARK VINA RESULT:     -10.9      3.171      8.993
REMARK SMILES Cc1cc(C)c2c(OCCCC(=O)NCCCCCCNC(=O)c3ccc(-c4c5nc(c(-c6c(F)c(F)c(F)c(F)c6F)c6ccc([nH]6)c(-c6c(F)c(F)c(F)c(F)c6F)c6nc(c(-c7c(F)c(F)c(F)c(F)c7F)c7ccc4[nH]7)C=C6)C=C5)cc3)nsc2n1
REMARK SMILES IDX 16 1 15 4 14 7 12 8 13 9 11 11 10 14 9 17 8 20 7 21 2 22
REMARK SMILES IDX 3 23 90 24 4 25 89 27 6 28 88 29 87 30 1 31 5 35 17 39 18 42
REMARK SMILES IDX 19 45 20 48 21 51 22 52 23 54 24 55 25 56 86 57 26 58 85 60
REMARK SMILES IDX 27 62 28 65 29 66 79 67 30 68 84 69 78 70 80 71 31 72 83 73
REMARK SMILES IDX 77 75 76 77 32 79 64 82 44 83 63 84 45 85 48 86 62 87 81 88
REMARK SMILES IDX 46 89 47 91 61 93 82 94 49 97 33 99 34 100 42 101 35 102
REMARK SMILES IDX 36 103 40 104 43 105 37 106 38 107 41 108 39 109 65 110
REMARK SMILES IDX 66 111 74 112 67 113 68 114 72 115 75 116 69 117 70 118
REMARK SMILES IDX 73 119 71 120 50 121 51 122 59 123 52 124 53 125 57 126
REMARK SMILES IDX 60 127 54 128 55 129 58 130 56 131
REMARK H PARENT 16 2 16 3 15 5 15 6 14 10 11 12 11 13 10 15 10 16 9 18 9 19
REMARK H PARENT 3 26 1 32 1 33 1 34 5 36 5 37 5 38 17 40 17 41 18 43 18 44
REMARK H PARENT 19 46 19 47 20 49 20 50 21 53 25 59 86 61 26 63 85 64 84 74
REMARK H PARENT 78 76 80 78 83 80 77 81 45 90 48 92 81 95 46 96 82 98
REMARK Flexibility Score: inf
ROOT
ATOM      1  C   UNL A   1      31.823  29.040  26.425  1.00  0.00    -0.036 C 
ATOM      2  H   UNL A   1      31.278  28.150  26.187  1.00  0.00     0.028 H 
ATOM      3  H   UNL A   1      31.494  29.539  27.313  1.00  0.00     0.028 H 
ENDROOT
BRANCH   1   4
ATOM      4  C   UNL A   1      31.590  30.069  25.259  1.00  0.00     0.017 C 
ATOM      5  H   UNL A   1      30.887  30.801  25.600  1.00  0.00     0.049 H 
ATOM      6  H   UNL A   1      32.553  30.475  25.026  1.00  0.00     0.049 H 
BRANCH   4   7
ATOM      7  N   UNL A   1      31.046  29.460  23.933  1.00  0.00    -0.356 N 
ATOM      8  C   UNL A   1      30.361  28.502  23.222  1.00  0.00     0.220 C 
ATOM      9  O   UNL A   1      30.305  28.869  22.024  1.00  0.00    -0.275 OA
ATOM     10  H   UNL A   1      31.352  30.090  23.241  1.00  0.00     0.163 HD
BRANCH   8  11
ATOM     11  C   UNL A   1      29.460  27.156  23.538  1.00  0.00     0.030 C 
ATOM     12  H   UNL A   1      28.486  27.574  23.683  1.00  0.00     0.037 H 
ATOM     13  H   UNL A   1      29.942  26.582  22.775  1.00  0.00     0.037 H 
BRANCH  11  14
ATOM     14  C   UNL A   1      29.447  25.917  24.587  1.00  0.00    -0.010 C 
ATOM     15  H   UNL A   1      28.409  25.669  24.653  1.00  0.00     0.031 H 
ATOM     16  H   UNL A   1      30.264  25.396  24.135  1.00  0.00     0.031 H 
BRANCH  14  17
ATOM     17  C   UNL A   1      29.959  25.723  26.089  1.00  0.00     0.090 C 
ATOM     18  H   UNL A   1      29.573  26.563  26.630  1.00  0.00     0.071 H 
ATOM     19  H   UNL A   1      29.626  24.724  26.272  1.00  0.00     0.071 H 
BRANCH  17  20
ATOM     20  O   UNL A   1      31.331  25.608  26.499  1.00  0.00    -0.477 OA
BRANCH  20  21
ATOM     21  C   UNL A   1      32.016  24.434  26.518  1.00  0.00     0.235 A 
ATOM     22  C   UNL A   1      35.911  23.728  25.779  1.00  0.00     0.039 A 
ATOM     23  C   UNL A   1      35.258  24.466  24.794  1.00  0.00    -0.037 A 
ATOM     24  N   UNL A   1      35.252  22.944  26.657  1.00  0.00    -0.240 NA
ATOM     25  C   UNL A   1      33.850  24.530  24.740  1.00  0.00    -0.034 A 
ATOM     26  H   UNL A   1      35.815  24.976  24.090  1.00  0.00     0.064 H 
ATOM     27  C   UNL A   1      33.925  23.188  26.681  1.00  0.00     0.147 A 
ATOM     28  C   UNL A   1      33.231  24.082  25.887  1.00  0.00     0.078 A 
ATOM     29  S   UNL A   1      32.776  22.425  27.679  1.00  0.00    -0.012 S 
ATOM     30  N   UNL A   1      31.552  23.538  27.390  1.00  0.00    -0.153 NA
BRANCH  22  31
ATOM     31  C   UNL A   1      37.403  23.876  25.939  1.00  0.00    -0.022 C 
ATOM     32  H   UNL A   1      37.845  22.911  26.071  1.00  0.00     0.030 H 
ATOM     33  H   UNL A   1      37.612  24.485  26.794  1.00  0.00     0.030 H 
ATOM     34  H   UNL A   1      37.810  24.338  25.064  1.00  0.00     0.030 H 
ENDBRANCH  22  31
BRANCH  25  35
ATOM     35  C   UNL A   1      32.950  25.051  23.686  1.00  0.00    -0.039 C 
ATOM     36  H   UNL A   1      33.322  24.764  22.724  1.00  0.00     0.028 H 
ATOM     37  H   UNL A   1      32.907  26.118  23.748  1.00  0.00     0.028 H 
ATOM     38  H   UNL A   1      31.968  24.646  23.823  1.00  0.00     0.028 H 
ENDBRANCH  25  35
ENDBRANCH  20  21
ENDBRANCH  17  20
ENDBRANCH  14  17
ENDBRANCH  11  14
ENDBRANCH   8  11
ENDBRANCH   4   7
ENDBRANCH   1   4
BRANCH   1  39
ATOM     39  C   UNL A   1      33.280  28.635  26.701  1.00  0.00    -0.052 C 
ATOM     40  H   UNL A   1      33.647  28.152  25.821  1.00  0.00     0.027 H 
ATOM     41  H   UNL A   1      33.225  28.027  27.579  1.00  0.00     0.027 H 
BRANCH  39  42
ATOM     42  C   UNL A   1      34.285  29.747  27.068  1.00  0.00    -0.052 C 
ATOM     43  H   UNL A   1      34.857  29.954  26.187  1.00  0.00     0.027 H 
ATOM     44  H   UNL A   1      34.818  29.340  27.903  1.00  0.00     0.027 H 
BRANCH  42  45
ATOM     45  C   UNL A   1      33.759  31.098  27.593  1.00  0.00    -0.036 C 
ATOM     46  H   UNL A   1      33.176  30.901  28.469  1.00  0.00     0.028 H 
ATOM     47  H   UNL A   1      33.206  31.522  26.781  1.00  0.00     0.028 H 
BRANCH  45  48
ATOM     48  C   UNL A   1      34.810  32.140  27.958  1.00  0.00     0.018 C 
ATOM     49  H   UNL A   1      34.654  33.005  27.349  1.00  0.00     0.049 H 
ATOM     50  H   UNL A   1      35.766  31.689  27.791  1.00  0.00     0.049 H 
BRANCH  48  51
ATOM     51  N   UNL A   1      34.772  32.550  29.358  1.00  0.00    -0.352 N 
ATOM     52  C   UNL A   1      35.472  32.056  30.444  1.00  0.00     0.251 C 
ATOM     53  H   UNL A   1      34.155  33.291  29.558  1.00  0.00     0.163 HD
ATOM     54  O   UNL A   1      35.091  32.286  31.574  1.00  0.00    -0.269 OA
BRANCH  52  55
ATOM     55  C   UNL A   1      36.689  31.240  30.229  1.00  0.00     0.039 A 
ATOM     56  C   UNL A   1      37.938  31.858  30.129  1.00  0.00    -0.049 A 
ATOM     57  C   UNL A   1      36.578  29.858  30.081  1.00  0.00    -0.049 A 
ATOM     58  C   UNL A   1      39.069  31.065  29.948  1.00  0.00    -0.053 A 
ATOM     59  H   UNL A   1      38.022  32.884  30.189  1.00  0.00     0.063 H 
ATOM     60  C   UNL A   1      37.700  29.063  30.044  1.00  0.00    -0.053 A 
ATOM     61  H   UNL A   1      35.644  29.427  29.997  1.00  0.00     0.063 H 
ATOM     62  C   UNL A   1      38.943  29.663  29.930  1.00  0.00    -0.014 A 
ATOM     63  H   UNL A   1      39.994  31.503  29.826  1.00  0.00     0.063 H 
ATOM     64  H   UNL A   1      37.617  28.036  30.100  1.00  0.00     0.063 H 
BRANCH  62  65
ATOM     65  C   UNL A   1      40.133  28.825  29.943  1.00  0.00     0.031 A 
ATOM     66  C   UNL A   1      40.698  28.656  31.304  1.00  0.00     0.074 A 
ATOM     67  C   UNL A   1      40.617  28.148  28.880  1.00  0.00     0.049 A 
ATOM     68  N   UNL A   1      41.751  29.233  31.772  1.00  0.00    -0.248 NA
ATOM     69  C   UNL A   1      39.915  27.932  32.316  1.00  0.00    -0.034 C 
ATOM     70  C   UNL A   1      40.014  27.974  27.555  1.00  0.00    -0.036 A 
ATOM     71  N   UNL A   1      41.762  27.410  28.787  1.00  0.00    -0.354 N 
ATOM     72  C   UNL A   1      41.889  28.782  33.080  1.00  0.00     0.074 A 
ATOM     73  C   UNL A   1      40.643  28.146  33.415  1.00  0.00    -0.034 C 
ATOM     74  H   UNL A   1      39.037  27.400  32.207  1.00  0.00     0.065 H 
ATOM     75  C   UNL A   1      40.689  27.024  26.866  1.00  0.00    -0.036 A 
ATOM     76  H   UNL A   1      39.197  28.495  27.201  1.00  0.00     0.065 H 
ATOM     77  C   UNL A   1      41.869  26.651  27.624  1.00  0.00     0.049 A 
ATOM     78  H   UNL A   1      42.456  27.414  29.485  1.00  0.00     0.167 HD
ATOM     79  C   UNL A   1      43.123  28.743  33.652  1.00  0.00     0.037 A 
ATOM     80  H   UNL A   1      40.353  27.891  34.372  1.00  0.00     0.065 H 
ATOM     81  H   UNL A   1      40.412  26.632  25.953  1.00  0.00     0.065 H 
ATOM     82  C   UNL A   1      42.871  25.790  27.312  1.00  0.00     0.037 A 
ATOM     83  C   UNL A   1      44.052  29.535  32.878  1.00  0.00     0.049 A 
ATOM     84  C   UNL A   1      44.046  26.208  28.108  1.00  0.00     0.074 A 
ATOM     85  C   UNL A   1      44.219  30.874  32.594  1.00  0.00    -0.036 A 
ATOM     86  N   UNL A   1      44.734  28.835  31.917  1.00  0.00    -0.354 N 
ATOM     87  N   UNL A   1      44.690  27.324  27.917  1.00  0.00    -0.248 NA
ATOM     88  C   UNL A   1      44.295  25.550  29.382  1.00  0.00    -0.034 C 
ATOM     89  C   UNL A   1      44.747  30.921  31.268  1.00  0.00    -0.036 A 
ATOM     90  H   UNL A   1      44.006  31.674  33.211  1.00  0.00     0.065 H 
ATOM     91  C   UNL A   1      44.942  29.616  30.816  1.00  0.00     0.049 A 
ATOM     92  H   UNL A   1      45.032  27.900  32.009  1.00  0.00     0.167 HD
ATOM     93  C   UNL A   1      45.060  27.729  29.186  1.00  0.00     0.074 A 
ATOM     94  C   UNL A   1      44.943  26.531  30.013  1.00  0.00    -0.034 C 
ATOM     95  H   UNL A   1      44.043  24.602  29.703  1.00  0.00     0.065 H 
ATOM     96  H   UNL A   1      44.950  31.780  30.732  1.00  0.00     0.065 H 
ATOM     97  C   UNL A   1      45.125  29.057  29.492  1.00  0.00     0.037 A 
ATOM     98  H   UNL A   1      45.317  26.453  30.971  1.00  0.00     0.065 H 
BRANCH  79  99
ATOM     99  C   UNL A   1      43.615  27.637  34.567  1.00  0.00     0.064 A 
ATOM    100  C   UNL A   1      43.622  26.311  34.082  1.00  0.00     0.173 A 
ATOM    101  C   UNL A   1      43.765  27.763  35.966  1.00  0.00     0.173 A 
ATOM    102  F   UNL A   1      43.469  26.061  32.772  1.00  0.00    -0.203 F 
ATOM    103  C   UNL A   1      43.682  25.205  34.936  1.00  0.00     0.198 A 
ATOM    104  C   UNL A   1      43.873  26.658  36.810  1.00  0.00     0.198 A 
ATOM    105  F   UNL A   1      43.700  28.940  36.595  1.00  0.00    -0.203 F 
ATOM    106  F   UNL A   1      43.548  23.970  34.435  1.00  0.00    -0.200 F 
ATOM    107  C   UNL A   1      43.799  25.380  36.300  1.00  0.00     0.200 A 
ATOM    108  F   UNL A   1      43.961  26.849  38.134  1.00  0.00    -0.200 F 
ATOM    109  F   UNL A   1      43.793  24.326  37.127  1.00  0.00    -0.200 F 
ENDBRANCH  79  99
BRANCH  82 110
ATOM    110  C   UNL A   1      42.840  24.494  26.590  1.00  0.00     0.064 A 
ATOM    111  C   UNL A   1      43.490  24.346  25.350  1.00  0.00     0.173 A 
ATOM    112  C   UNL A   1      42.471  23.305  27.245  1.00  0.00     0.173 A 
ATOM    113  F   UNL A   1      43.902  25.426  24.669  1.00  0.00    -0.203 F 
ATOM    114  C   UNL A   1      43.811  23.087  24.830  1.00  0.00     0.198 A 
ATOM    115  C   UNL A   1      42.788  22.048  26.722  1.00  0.00     0.198 A 
ATOM    116  F   UNL A   1      41.891  23.339  28.453  1.00  0.00    -0.203 F 
ATOM    117  F   UNL A   1      44.510  22.992  23.690  1.00  0.00    -0.200 F 
ATOM    118  C   UNL A   1      43.478  21.939  25.527  1.00  0.00     0.200 A 
ATOM    119  F   UNL A   1      42.491  20.943  27.421  1.00  0.00    -0.200 F 
ATOM    120  F   UNL A   1      43.857  20.736  25.074  1.00  0.00    -0.200 F 
ENDBRANCH  82 110
BRANCH  97 121
ATOM    121  C   UNL A   1      45.216  30.030  28.351  1.00  0.00     0.064 A 
ATOM    122  C   UNL A   1      44.117  30.674  27.756  1.00  0.00     0.173 A 
ATOM    123  C   UNL A   1      46.497  30.423  27.936  1.00  0.00     0.173 A 
ATOM    124  F   UNL A   1      42.865  30.407  28.145  1.00  0.00    -0.203 F 
ATOM    125  C   UNL A   1      44.299  31.653  26.779  1.00  0.00     0.198 A 
ATOM    126  C   UNL A   1      46.675  31.427  26.989  1.00  0.00     0.198 A 
ATOM    127  F   UNL A   1      47.583  29.867  28.494  1.00  0.00    -0.203 F 
ATOM    128  F   UNL A   1      43.235  32.250  26.219  1.00  0.00    -0.200 F 
ATOM    129  C   UNL A   1      45.577  32.037  26.407  1.00  0.00     0.200 A 
ATOM    130  F   UNL A   1      47.913  31.823  26.667  1.00  0.00    -0.200 F 
ATOM    131  F   UNL A   1      45.751  33.014  25.505  1.00  0.00    -0.200 F 
ENDBRANCH  97 121
ENDBRANCH  62  65
ENDBRANCH  52  55
ENDBRANCH  48  51
ENDBRANCH  45  48
ENDBRANCH  42  45
ENDBRANCH  39  42
ENDBRANCH   1  39
TORSDOF 19
ENDMDL
MODEL 8
REMARK VINA RESULT:     -10.9      3.103      8.640
REMARK SMILES Cc1cc(C)c2c(OCCCC(=O)NCCCCCCNC(=O)c3ccc(-c4c5nc(c(-c6c(F)c(F)c(F)c(F)c6F)c6ccc([nH]6)c(-c6c(F)c(F)c(F)c(F)c6F)c6nc(c(-c7c(F)c(F)c(F)c(F)c7F)c7ccc4[nH]7)C=C6)C=C5)cc3)nsc2n1
REMARK SMILES IDX 16 1 15 4 14 7 12 8 13 9 11 11 10 14 9 17 8 20 7 21 2 22
REMARK SMILES IDX 3 23 90 24 4 25 89 27 6 28 88 29 87 30 1 31 5 35 17 39 18 42
REMARK SMILES IDX 19 45 20 48 21 51 22 52 23 54 24 55 25 56 86 57 26 58 85 60
REMARK SMILES IDX 27 62 28 65 29 66 79 67 30 68 84 69 78 70 80 71 31 72 83 73
REMARK SMILES IDX 77 75 76 77 32 79 64 82 44 83 63 84 45 85 48 86 62 87 81 88
REMARK SMILES IDX 46 89 47 91 61 93 82 94 49 97 33 99 34 100 42 101 35 102
REMARK SMILES IDX 36 103 40 104 43 105 37 106 38 107 41 108 39 109 65 110
REMARK SMILES IDX 66 111 74 112 67 113 68 114 72 115 75 116 69 117 70 118
REMARK SMILES IDX 73 119 71 120 50 121 51 122 59 123 52 124 53 125 57 126
REMARK SMILES IDX 60 127 54 128 55 129 58 130 56 131
REMARK H PARENT 16 2 16 3 15 5 15 6 14 10 11 12 11 13 10 15 10 16 9 18 9 19
REMARK H PARENT 3 26 1 32 1 33 1 34 5 36 5 37 5 38 17 40 17 41 18 43 18 44
REMARK H PARENT 19 46 19 47 20 49 20 50 21 53 25 59 86 61 26 63 85 64 84 74
REMARK H PARENT 78 76 80 78 83 80 77 81 45 90 48 92 81 95 46 96 82 98
REMARK Flexibility Score: inf
ROOT
ATOM      1  C   UNL A   1      32.366  28.940  26.479  1.00  0.00    -0.036 C 
ATOM      2  H   UNL A   1      32.175  29.978  26.659  1.00  0.00     0.028 H 
ATOM      3  H   UNL A   1      32.177  28.621  25.476  1.00  0.00     0.028 H 
ENDROOT
BRANCH   1   4
ATOM      4  C   UNL A   1      31.375  28.110  27.373  1.00  0.00     0.017 C 
ATOM      5  H   UNL A   1      31.598  28.324  28.399  1.00  0.00     0.049 H 
ATOM      6  H   UNL A   1      30.390  28.407  27.078  1.00  0.00     0.049 H 
BRANCH   4   7
ATOM      7  N   UNL A   1      31.437  26.566  27.180  1.00  0.00    -0.356 N 
ATOM      8  C   UNL A   1      31.956  25.429  26.606  1.00  0.00     0.220 C 
ATOM      9  O   UNL A   1      31.426  24.435  27.156  1.00  0.00    -0.275 OA
ATOM     10  H   UNL A   1      30.740  26.224  27.785  1.00  0.00     0.163 HD
BRANCH   8  11
ATOM     11  C   UNL A   1      33.180  25.032  25.572  1.00  0.00     0.030 C 
ATOM     12  H   UNL A   1      34.043  25.186  26.185  1.00  0.00     0.037 H 
ATOM     13  H   UNL A   1      32.657  24.183  25.184  1.00  0.00     0.037 H 
BRANCH  11  14
ATOM     14  C   UNL A   1      33.731  25.471  24.110  1.00  0.00    -0.010 C 
ATOM     15  H   UNL A   1      33.812  26.534  24.193  1.00  0.00     0.031 H 
ATOM     16  H   UNL A   1      34.484  24.713  24.055  1.00  0.00     0.031 H 
BRANCH  14  17
ATOM     17  C   UNL A   1      33.206  25.266  22.613  1.00  0.00     0.090 C 
ATOM     18  H   UNL A   1      33.938  25.736  21.990  1.00  0.00     0.071 H 
ATOM     19  H   UNL A   1      33.048  24.209  22.614  1.00  0.00     0.071 H 
BRANCH  17  20
ATOM     20  O   UNL A   1      31.937  25.707  22.103  1.00  0.00    -0.477 OA
BRANCH  20  21
ATOM     21  C   UNL A   1      30.991  26.321  22.861  1.00  0.00     0.235 A 
ATOM     22  C   UNL A   1      28.972  29.736  22.172  1.00  0.00     0.039 A 
ATOM     23  C   UNL A   1      30.356  29.846  22.052  1.00  0.00    -0.037 A 
ATOM     24  N   UNL A   1      28.379  28.747  22.873  1.00  0.00    -0.240 NA
ATOM     25  C   UNL A   1      31.215  28.849  22.559  1.00  0.00    -0.034 A 
ATOM     26  H   UNL A   1      30.760  30.672  21.583  1.00  0.00     0.064 H 
ATOM     27  C   UNL A   1      29.224  27.737  23.168  1.00  0.00     0.147 A 
ATOM     28  C   UNL A   1      30.574  27.671  22.873  1.00  0.00     0.078 A 
ATOM     29  S   UNL A   1      28.835  26.309  24.007  1.00  0.00    -0.012 S 
ATOM     30  N   UNL A   1      30.240  25.491  23.586  1.00  0.00    -0.153 NA
BRANCH  22  31
ATOM     31  C   UNL A   1      28.091  30.700  21.417  1.00  0.00    -0.022 C 
ATOM     32  H   UNL A   1      27.275  30.166  20.977  1.00  0.00     0.030 H 
ATOM     33  H   UNL A   1      28.662  31.177  20.648  1.00  0.00     0.030 H 
ATOM     34  H   UNL A   1      27.713  31.438  22.092  1.00  0.00     0.030 H 
ENDBRANCH  22  31
BRANCH  25  35
ATOM     35  C   UNL A   1      32.685  28.849  22.745  1.00  0.00    -0.039 C 
ATOM     36  H   UNL A   1      32.914  28.702  23.780  1.00  0.00     0.028 H 
ATOM     37  H   UNL A   1      33.086  29.787  22.421  1.00  0.00     0.028 H 
ATOM     38  H   UNL A   1      33.118  28.058  22.168  1.00  0.00     0.028 H 
ENDBRANCH  25  35
ENDBRANCH  20  21
ENDBRANCH  17  20
ENDBRANCH  14  17
ENDBRANCH  11  14
ENDBRANCH   8  11
ENDBRANCH   4   7
ENDBRANCH   1   4
BRANCH   1  39
ATOM     39  C   UNL A   1      33.866  28.695  26.709  1.00  0.00    -0.052 C 
ATOM     40  H   UNL A   1      34.290  28.413  25.768  1.00  0.00     0.027 H 
ATOM     41  H   UNL A   1      33.899  27.950  27.477  1.00  0.00     0.027 H 
BRANCH  39  42
ATOM     42  C   UNL A   1      34.715  29.856  27.265  1.00  0.00    -0.052 C 
ATOM     43  H   UNL A   1      35.448  30.092  26.521  1.00  0.00     0.027 H 
ATOM     44  H   UNL A   1      35.080  29.479  28.198  1.00  0.00     0.027 H 
BRANCH  42  45
ATOM     45  C   UNL A   1      34.023  31.179  27.651  1.00  0.00    -0.036 C 
ATOM     46  H   UNL A   1      33.368  30.976  28.473  1.00  0.00     0.028 H 
ATOM     47  H   UNL A   1      33.528  31.511  26.762  1.00  0.00     0.028 H 
BRANCH  45  48
ATOM     48  C   UNL A   1      34.938  32.329  28.060  1.00  0.00     0.018 C 
ATOM     49  H   UNL A   1      34.667  33.194  27.492  1.00  0.00     0.049 H 
ATOM     50  H   UNL A   1      35.942  32.012  27.869  1.00  0.00     0.049 H 
BRANCH  48  51
ATOM     51  N   UNL A   1      34.862  32.667  29.477  1.00  0.00    -0.352 N 
ATOM     52  C   UNL A   1      35.496  32.087  30.561  1.00  0.00     0.251 C 
ATOM     53  H   UNL A   1      34.270  33.424  29.694  1.00  0.00     0.163 HD
ATOM     54  O   UNL A   1      35.081  32.275  31.687  1.00  0.00    -0.269 OA
BRANCH  52  55
ATOM     55  C   UNL A   1      36.684  31.229  30.348  1.00  0.00     0.039 A 
ATOM     56  C   UNL A   1      37.942  31.808  30.157  1.00  0.00    -0.049 A 
ATOM     57  C   UNL A   1      36.537  29.844  30.293  1.00  0.00    -0.049 A 
ATOM     58  C   UNL A   1      39.045  30.977  29.979  1.00  0.00    -0.053 A 
ATOM     59  H   UNL A   1      38.051  32.834  30.147  1.00  0.00     0.063 H 
ATOM     60  C   UNL A   1      37.638  29.021  30.261  1.00  0.00    -0.053 A 
ATOM     61  H   UNL A   1      35.591  29.431  30.277  1.00  0.00     0.063 H 
ATOM     62  C   UNL A   1      38.887  29.581  30.057  1.00  0.00    -0.014 A 
ATOM     63  H   UNL A   1      39.974  31.384  29.791  1.00  0.00     0.063 H 
ATOM     64  H   UNL A   1      37.534  28.001  30.386  1.00  0.00     0.063 H 
BRANCH  62  65
ATOM     65  C   UNL A   1      40.059  28.716  30.074  1.00  0.00     0.031 A 
ATOM     66  C   UNL A   1      40.622  28.544  31.436  1.00  0.00     0.074 A 
ATOM     67  C   UNL A   1      40.525  28.020  29.015  1.00  0.00     0.049 A 
ATOM     68  N   UNL A   1      41.689  29.101  31.896  1.00  0.00    -0.248 NA
ATOM     69  C   UNL A   1      39.825  27.846  32.455  1.00  0.00    -0.034 C 
ATOM     70  C   UNL A   1      39.915  27.849  27.693  1.00  0.00    -0.036 A 
ATOM     71  N   UNL A   1      41.652  27.255  28.926  1.00  0.00    -0.354 N 
ATOM     72  C   UNL A   1      41.819  28.657  33.208  1.00  0.00     0.074 A 
ATOM     73  C   UNL A   1      40.560  28.052  33.550  1.00  0.00    -0.034 C 
ATOM     74  H   UNL A   1      38.935  27.333  32.352  1.00  0.00     0.065 H 
ATOM     75  C   UNL A   1      40.567  26.880  27.010  1.00  0.00    -0.036 A 
ATOM     76  H   UNL A   1      39.110  28.387  27.337  1.00  0.00     0.065 H 
ATOM     77  C   UNL A   1      41.740  26.485  27.768  1.00  0.00     0.049 A 
ATOM     78  H   UNL A   1      42.347  27.249  29.622  1.00  0.00     0.167 HD
ATOM     79  C   UNL A   1      43.054  28.594  33.778  1.00  0.00     0.037 A 
ATOM     80  H   UNL A   1      40.267  27.811  34.510  1.00  0.00     0.065 H 
ATOM     81  H   UNL A   1      40.279  26.486  26.101  1.00  0.00     0.065 H 
ATOM     82  C   UNL A   1      42.721  25.600  27.461  1.00  0.00     0.037 A 
ATOM     83  C   UNL A   1      43.999  29.359  32.996  1.00  0.00     0.049 A 
ATOM     84  C   UNL A   1      43.907  25.996  28.251  1.00  0.00     0.074 A 
ATOM     85  C   UNL A   1      44.195  30.691  32.702  1.00  0.00    -0.036 A 
ATOM     86  N   UNL A   1      44.663  28.636  32.040  1.00  0.00    -0.354 N 
ATOM     87  N   UNL A   1      44.576  27.096  28.051  1.00  0.00    -0.248 NA
ATOM     88  C   UNL A   1      44.143  25.343  29.530  1.00  0.00    -0.034 C 
ATOM     89  C   UNL A   1      44.721  30.716  31.374  1.00  0.00    -0.036 A 
ATOM     90  H   UNL A   1      44.003  31.500  33.313  1.00  0.00     0.065 H 
ATOM     91  C   UNL A   1      44.886  29.403  30.932  1.00  0.00     0.049 A 
ATOM     92  H   UNL A   1      44.939  27.695  32.138  1.00  0.00     0.167 HD
ATOM     93  C   UNL A   1      44.957  27.502  29.316  1.00  0.00     0.074 A 
ATOM     94  C   UNL A   1      44.815  26.314  30.152  1.00  0.00    -0.034 C 
ATOM     95  H   UNL A   1      43.871  24.403  29.859  1.00  0.00     0.065 H 
ATOM     96  H   UNL A   1      44.943  31.566  30.831  1.00  0.00     0.065 H 
ATOM     97  C   UNL A   1      45.053  28.831  29.612  1.00  0.00     0.037 A 
ATOM     98  H   UNL A   1      45.189  26.234  31.111  1.00  0.00     0.065 H 
BRANCH  79  99
ATOM     99  C   UNL A   1      43.522  27.485  34.701  1.00  0.00     0.064 A 
ATOM    100  C   UNL A   1      43.982  27.829  35.992  1.00  0.00     0.173 A 
ATOM    101  C   UNL A   1      43.845  26.175  34.281  1.00  0.00     0.173 A 
ATOM    102  F   UNL A   1      43.754  29.052  36.496  1.00  0.00    -0.203 F 
ATOM    103  C   UNL A   1      44.774  26.965  36.755  1.00  0.00     0.198 A 
ATOM    104  C   UNL A   1      44.594  25.300  35.066  1.00  0.00     0.198 A 
ATOM    105  F   UNL A   1      43.555  25.719  33.059  1.00  0.00    -0.203 F 
ATOM    106  F   UNL A   1      45.295  27.391  37.913  1.00  0.00    -0.200 F 
ATOM    107  C   UNL A   1      45.085  25.704  36.288  1.00  0.00     0.200 A 
ATOM    108  F   UNL A   1      44.907  24.089  34.583  1.00  0.00    -0.200 F 
ATOM    109  F   UNL A   1      45.895  24.898  36.987  1.00  0.00    -0.200 F 
ENDBRANCH  79  99
BRANCH  82 110
ATOM    110  C   UNL A   1      42.659  24.299  26.750  1.00  0.00     0.064 A 
ATOM    111  C   UNL A   1      43.244  24.147  25.477  1.00  0.00     0.173 A 
ATOM    112  C   UNL A   1      42.332  23.112  27.429  1.00  0.00     0.173 A 
ATOM    113  F   UNL A   1      43.613  25.225  24.770  1.00  0.00    -0.203 F 
ATOM    114  C   UNL A   1      43.543  22.886  24.949  1.00  0.00     0.198 A 
ATOM    115  C   UNL A   1      42.628  21.853  26.898  1.00  0.00     0.198 A 
ATOM    116  F   UNL A   1      41.816  23.150  28.667  1.00  0.00    -0.203 F 
ATOM    117  F   UNL A   1      44.182  22.788  23.773  1.00  0.00    -0.200 F 
ATOM    118  C   UNL A   1      43.254  21.741  25.669  1.00  0.00     0.200 A 
ATOM    119  F   UNL A   1      42.374  20.751  27.618  1.00  0.00    -0.200 F 
ATOM    120  F   UNL A   1      43.615  20.537  25.203  1.00  0.00    -0.200 F 
ENDBRANCH  82 110
BRANCH  97 121
ATOM    121  C   UNL A   1      45.164  29.793  28.463  1.00  0.00     0.064 A 
ATOM    122  C   UNL A   1      44.075  30.425  27.838  1.00  0.00     0.173 A 
ATOM    123  C   UNL A   1      46.452  30.188  28.072  1.00  0.00     0.173 A 
ATOM    124  F   UNL A   1      42.817  30.156  28.203  1.00  0.00    -0.203 F 
ATOM    125  C   UNL A   1      44.273  31.395  26.855  1.00  0.00     0.198 A 
ATOM    126  C   UNL A   1      46.646  31.183  27.119  1.00  0.00     0.198 A 
ATOM    127  F   UNL A   1      47.528  29.642  28.658  1.00  0.00    -0.203 F 
ATOM    128  F   UNL A   1      43.219  31.982  26.268  1.00  0.00    -0.200 F 
ATOM    129  C   UNL A   1      45.557  31.782  26.507  1.00  0.00     0.200 A 
ATOM    130  F   UNL A   1      47.888  31.582  26.819  1.00  0.00    -0.200 F 
ATOM    131  F   UNL A   1      45.746  32.750  25.599  1.00  0.00    -0.200 F 
ENDBRANCH  97 121
ENDBRANCH  62  65
ENDBRANCH  52  55
ENDBRANCH  48  51
ENDBRANCH  45  48
ENDBRANCH  42  45
ENDBRANCH  39  42
ENDBRANCH   1  39
TORSDOF 19
ENDMDL
MODEL 9
REMARK VINA RESULT:     -10.9      2.786      4.049
REMARK SMILES Cc1cc(C)c2c(OCCCC(=O)NCCCCCCNC(=O)c3ccc(-c4c5nc(c(-c6c(F)c(F)c(F)c(F)c6F)c6ccc([nH]6)c(-c6c(F)c(F)c(F)c(F)c6F)c6nc(c(-c7c(F)c(F)c(F)c(F)c7F)c7ccc4[nH]7)C=C6)C=C5)cc3)nsc2n1
REMARK SMILES IDX 16 1 15 4 14 7 12 8 13 9 11 11 10 14 9 17 8 20 7 21 2 22
REMARK SMILES IDX 3 23 90 24 4 25 89 27 6 28 88 29 87 30 1 31 5 35 17 39 18 42
REMARK SMILES IDX 19 45 20 48 21 51 22 52 23 54 24 55 25 56 86 57 26 58 85 60
REMARK SMILES IDX 27 62 28 65 29 66 79 67 30 68 84 69 78 70 80 71 31 72 83 73
REMARK SMILES IDX 77 75 76 77 32 79 64 82 44 83 63 84 45 85 48 86 62 87 81 88
REMARK SMILES IDX 46 89 47 91 61 93 82 94 49 97 33 99 34 100 42 101 35 102
REMARK SMILES IDX 36 103 40 104 43 105 37 106 38 107 41 108 39 109 65 110
REMARK SMILES IDX 66 111 74 112 67 113 68 114 72 115 75 116 69 117 70 118
REMARK SMILES IDX 73 119 71 120 50 121 51 122 59 123 52 124 53 125 57 126
REMARK SMILES IDX 60 127 54 128 55 129 58 130 56 131
REMARK H PARENT 16 2 16 3 15 5 15 6 14 10 11 12 11 13 10 15 10 16 9 18 9 19
REMARK H PARENT 3 26 1 32 1 33 1 34 5 36 5 37 5 38 17 40 17 41 18 43 18 44
REMARK H PARENT 19 46 19 47 20 49 20 50 21 53 25 59 86 61 26 63 85 64 84 74
REMARK H PARENT 78 76 80 78 83 80 77 81 45 90 48 92 81 95 46 96 82 98
REMARK Flexibility Score: inf
ROOT
ATOM      1  C   UNL A   1      34.932  21.518  26.212  1.00  0.00    -0.036 C 
ATOM      2  H   UNL A   1      34.606  20.572  26.594  1.00  0.00     0.028 H 
ATOM      3  H   UNL A   1      35.596  22.052  26.858  1.00  0.00     0.028 H 
ENDROOT
BRANCH   1   4
ATOM      4  C   UNL A   1      33.665  22.436  26.065  1.00  0.00     0.017 C 
ATOM      5  H   UNL A   1      33.070  22.051  25.262  1.00  0.00     0.049 H 
ATOM      6  H   UNL A   1      33.170  22.413  27.014  1.00  0.00     0.049 H 
BRANCH   4   7
ATOM      7  N   UNL A   1      33.960  23.936  25.769  1.00  0.00    -0.356 N 
ATOM      8  C   UNL A   1      33.985  25.033  24.940  1.00  0.00     0.220 C 
ATOM      9  O   UNL A   1      34.331  26.030  25.618  1.00  0.00    -0.275 OA
ATOM     10  H   UNL A   1      34.315  24.279  26.621  1.00  0.00     0.163 HD
BRANCH   8  11
ATOM     11  C   UNL A   1      33.512  25.417  23.406  1.00  0.00     0.030 C 
ATOM     12  H   UNL A   1      33.943  24.619  22.838  1.00  0.00     0.037 H 
ATOM     13  H   UNL A   1      32.525  25.692  23.715  1.00  0.00     0.037 H 
BRANCH  11  14
ATOM     14  C   UNL A   1      33.629  26.661  22.370  1.00  0.00    -0.010 C 
ATOM     15  H   UNL A   1      34.507  26.423  21.808  1.00  0.00     0.031 H 
ATOM     16  H   UNL A   1      32.596  26.656  22.091  1.00  0.00     0.031 H 
BRANCH  14  17
ATOM     17  C   UNL A   1      33.729  28.247  22.540  1.00  0.00     0.090 C 
ATOM     18  H   UNL A   1      34.587  28.411  23.159  1.00  0.00     0.071 H 
ATOM     19  H   UNL A   1      33.699  28.547  21.514  1.00  0.00     0.071 H 
BRANCH  17  20
ATOM     20  O   UNL A   1      32.706  29.099  23.079  1.00  0.00    -0.477 OA
BRANCH  20  21
ATOM     21  C   UNL A   1      32.150  28.925  24.307  1.00  0.00     0.235 A 
ATOM     22  C   UNL A   1      30.437  25.649  25.904  1.00  0.00     0.039 A 
ATOM     23  C   UNL A   1      29.949  26.005  24.648  1.00  0.00    -0.037 A 
ATOM     24  N   UNL A   1      31.073  26.523  26.711  1.00  0.00    -0.240 NA
ATOM     25  C   UNL A   1      30.206  27.277  24.097  1.00  0.00    -0.034 A 
ATOM     26  H   UNL A   1      29.390  25.324  24.110  1.00  0.00     0.064 H 
ATOM     27  C   UNL A   1      31.451  27.648  26.069  1.00  0.00     0.147 A 
ATOM     28  C   UNL A   1      31.203  27.972  24.748  1.00  0.00     0.078 A 
ATOM     29  S   UNL A   1      32.302  28.958  26.744  1.00  0.00    -0.012 S 
ATOM     30  N   UNL A   1      32.699  29.663  25.273  1.00  0.00    -0.153 NA
BRANCH  22  31
ATOM     31  C   UNL A   1      30.338  24.212  26.349  1.00  0.00    -0.022 C 
ATOM     32  H   UNL A   1      31.136  23.648  25.913  1.00  0.00     0.030 H 
ATOM     33  H   UNL A   1      29.400  23.804  26.036  1.00  0.00     0.030 H 
ATOM     34  H   UNL A   1      30.410  24.164  27.415  1.00  0.00     0.030 H 
ENDBRANCH  22  31
BRANCH  25  35
ATOM     35  C   UNL A   1      29.625  27.949  22.912  1.00  0.00    -0.039 C 
ATOM     36  H   UNL A   1      28.634  27.582  22.744  1.00  0.00     0.028 H 
ATOM     37  H   UNL A   1      30.230  27.746  22.054  1.00  0.00     0.028 H 
ATOM     38  H   UNL A   1      29.590  29.005  23.081  1.00  0.00     0.028 H 
ENDBRANCH  25  35
ENDBRANCH  20  21
ENDBRANCH  17  20
ENDBRANCH  14  17
ENDBRANCH  11  14
ENDBRANCH   8  11
ENDBRANCH   4   7
ENDBRANCH   1   4
BRANCH   1  39
ATOM     39  C   UNL A   1      35.738  21.251  24.930  1.00  0.00    -0.052 C 
ATOM     40  H   UNL A   1      35.115  21.519  24.103  1.00  0.00     0.027 H 
ATOM     41  H   UNL A   1      36.007  20.218  24.996  1.00  0.00     0.027 H 
BRANCH  39  42
ATOM     42  C   UNL A   1      37.082  21.987  24.751  1.00  0.00    -0.052 C 
ATOM     43  H   UNL A   1      36.969  22.955  25.194  1.00  0.00     0.027 H 
ATOM     44  H   UNL A   1      37.247  21.957  23.693  1.00  0.00     0.027 H 
BRANCH  42  45
ATOM     45  C   UNL A   1      38.366  21.367  25.339  1.00  0.00    -0.036 C 
ATOM     46  H   UNL A   1      39.003  21.103  24.521  1.00  0.00     0.028 H 
ATOM     47  H   UNL A   1      38.037  20.538  25.929  1.00  0.00     0.028 H 
BRANCH  45  48
ATOM     48  C   UNL A   1      39.171  22.248  26.289  1.00  0.00     0.018 C 
ATOM     49  H   UNL A   1      38.877  22.021  27.291  1.00  0.00     0.049 H 
ATOM     50  H   UNL A   1      38.964  23.264  26.022  1.00  0.00     0.049 H 
BRANCH  48  51
ATOM     51  N   UNL A   1      40.614  22.066  26.180  1.00  0.00    -0.352 N 
ATOM     52  C   UNL A   1      41.634  22.994  26.288  1.00  0.00     0.251 C 
ATOM     53  H   UNL A   1      40.906  21.142  26.004  1.00  0.00     0.163 HD
ATOM     54  O   UNL A   1      42.742  22.741  25.857  1.00  0.00    -0.269 OA
BRANCH  52  55
ATOM     55  C   UNL A   1      41.375  24.304  26.929  1.00  0.00     0.039 A 
ATOM     56  C   UNL A   1      42.033  24.646  28.114  1.00  0.00    -0.049 A 
ATOM     57  C   UNL A   1      40.441  25.175  26.372  1.00  0.00    -0.049 A 
ATOM     58  C   UNL A   1      41.787  25.893  28.684  1.00  0.00    -0.053 A 
ATOM     59  H   UNL A   1      42.690  23.987  28.558  1.00  0.00     0.063 H 
ATOM     60  C   UNL A   1      40.301  26.457  26.851  1.00  0.00    -0.053 A 
ATOM     61  H   UNL A   1      39.846  24.854  25.592  1.00  0.00     0.063 H 
ATOM     62  C   UNL A   1      40.935  26.803  28.031  1.00  0.00    -0.014 A 
ATOM     63  H   UNL A   1      42.226  26.147  29.582  1.00  0.00     0.063 H 
ATOM     64  H   UNL A   1      39.732  27.149  26.338  1.00  0.00     0.063 H 
BRANCH  62  65
ATOM     65  C   UNL A   1      40.830  28.174  28.511  1.00  0.00     0.031 A 
ATOM     66  C   UNL A   1      41.924  29.041  28.010  1.00  0.00     0.074 A 
ATOM     67  C   UNL A   1      39.793  28.671  29.219  1.00  0.00     0.049 A 
ATOM     68  N   UNL A   1      42.944  29.449  28.683  1.00  0.00    -0.248 NA
ATOM     69  C   UNL A   1      42.007  29.324  26.569  1.00  0.00    -0.034 C 
ATOM     70  C   UNL A   1      38.512  28.032  29.535  1.00  0.00    -0.036 A 
ATOM     71  N   UNL A   1      39.652  29.912  29.771  1.00  0.00    -0.354 N 
ATOM     72  C   UNL A   1      43.699  30.222  27.807  1.00  0.00     0.074 A 
ATOM     73  C   UNL A   1      43.183  29.953  26.492  1.00  0.00    -0.034 C 
ATOM     74  H   UNL A   1      41.337  29.097  25.818  1.00  0.00     0.065 H 
ATOM     75  C   UNL A   1      37.655  28.949  30.040  1.00  0.00    -0.036 A 
ATOM     76  H   UNL A   1      38.295  27.033  29.393  1.00  0.00     0.065 H 
ATOM     77  C   UNL A   1      38.374  30.193  30.247  1.00  0.00     0.049 A 
ATOM     78  H   UNL A   1      40.395  30.555  29.829  1.00  0.00     0.167 HD
ATOM     79  C   UNL A   1      44.493  31.213  28.297  1.00  0.00     0.037 A 
ATOM     80  H   UNL A   1      43.655  30.210  25.612  1.00  0.00     0.065 H 
ATOM     81  H   UNL A   1      36.656  28.792  30.244  1.00  0.00     0.065 H 
ATOM     82  C   UNL A   1      37.954  31.366  30.783  1.00  0.00     0.037 A 
ATOM     83  C   UNL A   1      44.674  31.043  29.721  1.00  0.00     0.049 A 
ATOM     84  C   UNL A   1      39.163  32.059  31.279  1.00  0.00     0.074 A 
ATOM     85  C   UNL A   1      45.300  30.128  30.540  1.00  0.00    -0.036 A 
ATOM     86  N   UNL A   1      43.763  31.714  30.494  1.00  0.00    -0.354 N 
ATOM     87  N   UNL A   1      39.879  31.637  32.283  1.00  0.00    -0.248 NA
ATOM     88  C   UNL A   1      39.806  33.040  30.418  1.00  0.00    -0.034 C 
ATOM     89  C   UNL A   1      44.505  30.069  31.725  1.00  0.00    -0.036 A 
ATOM     90  H   UNL A   1      46.162  29.597  30.339  1.00  0.00     0.065 H 
ATOM     91  C   UNL A   1      43.464  30.992  31.614  1.00  0.00     0.049 A 
ATOM     92  H   UNL A   1      43.377  32.594  30.272  1.00  0.00     0.167 HD
ATOM     93  C   UNL A   1      41.180  31.946  31.931  1.00  0.00     0.074 A 
ATOM     94  C   UNL A   1      41.057  32.945  30.874  1.00  0.00    -0.034 C 
ATOM     95  H   UNL A   1      39.411  33.634  29.672  1.00  0.00     0.065 H 
ATOM     96  H   UNL A   1      44.673  29.447  32.531  1.00  0.00     0.065 H 
ATOM     97  C   UNL A   1      42.207  31.136  32.319  1.00  0.00     0.037 A 
ATOM     98  H   UNL A   1      41.845  33.511  30.521  1.00  0.00     0.065 H 
BRANCH  79  99
ATOM     99  C   UNL A   1      44.684  32.569  27.642  1.00  0.00     0.064 A 
ATOM    100  C   UNL A   1      45.888  32.821  26.948  1.00  0.00     0.173 A 
ATOM    101  C   UNL A   1      43.909  33.714  27.932  1.00  0.00     0.173 A 
ATOM    102  F   UNL A   1      46.718  31.815  26.631  1.00  0.00    -0.203 F 
ATOM    103  C   UNL A   1      46.320  34.117  26.652  1.00  0.00     0.198 A 
ATOM    104  C   UNL A   1      44.322  35.002  27.592  1.00  0.00     0.198 A 
ATOM    105  F   UNL A   1      42.785  33.660  28.651  1.00  0.00    -0.203 F 
ATOM    106  F   UNL A   1      47.532  34.308  26.114  1.00  0.00    -0.200 F 
ATOM    107  C   UNL A   1      45.539  35.208  26.982  1.00  0.00     0.200 A 
ATOM    108  F   UNL A   1      43.560  36.049  27.943  1.00  0.00    -0.200 F 
ATOM    109  F   UNL A   1      45.977  36.453  26.757  1.00  0.00    -0.200 F 
ENDBRANCH  79  99
BRANCH  82 110
ATOM    110  C   UNL A   1      36.645  32.059  30.683  1.00  0.00     0.064 A 
ATOM    111  C   UNL A   1      35.784  32.134  31.795  1.00  0.00     0.173 A 
ATOM    112  C   UNL A   1      36.367  32.938  29.621  1.00  0.00     0.173 A 
ATOM    113  F   UNL A   1      35.992  31.352  32.865  1.00  0.00    -0.203 F 
ATOM    114  C   UNL A   1      34.750  33.075  31.866  1.00  0.00     0.198 A 
ATOM    115  C   UNL A   1      35.331  33.874  29.692  1.00  0.00     0.198 A 
ATOM    116  F   UNL A   1      37.157  32.978  28.538  1.00  0.00    -0.203 F 
ATOM    117  F   UNL A   1      34.010  33.172  32.980  1.00  0.00    -0.200 F 
ATOM    118  C   UNL A   1      34.538  33.958  30.823  1.00  0.00     0.200 A 
ATOM    119  F   UNL A   1      35.155  34.747  28.690  1.00  0.00    -0.200 F 
ATOM    120  F   UNL A   1      33.604  34.914  30.922  1.00  0.00    -0.200 F 
ENDBRANCH  82 110
BRANCH  97 121
ATOM    121  C   UNL A   1      41.955  30.191  33.460  1.00  0.00     0.064 A 
ATOM    122  C   UNL A   1      41.568  28.848  33.317  1.00  0.00     0.173 A 
ATOM    123  C   UNL A   1      42.254  30.643  34.753  1.00  0.00     0.173 A 
ATOM    124  F   UNL A   1      41.333  28.320  32.110  1.00  0.00    -0.203 F 
ATOM    125  C   UNL A   1      41.469  28.005  34.425  1.00  0.00     0.198 A 
ATOM    126  C   UNL A   1      42.192  29.791  35.850  1.00  0.00     0.198 A 
ATOM    127  F   UNL A   1      42.662  31.907  34.944  1.00  0.00    -0.203 F 
ATOM    128  F   UNL A   1      41.091  26.727  34.267  1.00  0.00    -0.200 F 
ATOM    129  C   UNL A   1      41.794  28.474  35.687  1.00  0.00     0.200 A 
ATOM    130  F   UNL A   1      42.549  30.239  37.061  1.00  0.00    -0.200 F 
ATOM    131  F   UNL A   1      41.748  27.651  36.744  1.00  0.00    -0.200 F 
ENDBRANCH  97 121
ENDBRANCH  62  65
ENDBRANCH  52  55
ENDBRANCH  48  51
ENDBRANCH  45  48
ENDBRANCH  42  45
ENDBRANCH  39  42
ENDBRANCH   1  39
TORSDOF 19
ENDMDL
MODEL 10
REMARK VINA RESULT:     -10.8      1.397      1.984
REMARK SMILES Cc1cc(C)c2c(OCCCC(=O)NCCCCCCNC(=O)c3ccc(-c4c5nc(c(-c6c(F)c(F)c(F)c(F)c6F)c6ccc([nH]6)c(-c6c(F)c(F)c(F)c(F)c6F)c6nc(c(-c7c(F)c(F)c(F)c(F)c7F)c7ccc4[nH]7)C=C6)C=C5)cc3)nsc2n1
REMARK SMILES IDX 16 1 15 4 14 7 12 8 13 9 11 11 10 14 9 17 8 20 7 21 2 22
REMARK SMILES IDX 3 23 90 24 4 25 89 27 6 28 88 29 87 30 1 31 5 35 17 39 18 42
REMARK SMILES IDX 19 45 20 48 21 51 22 52 23 54 24 55 25 56 86 57 26 58 85 60
REMARK SMILES IDX 27 62 28 65 29 66 79 67 30 68 84 69 78 70 80 71 31 72 83 73
REMARK SMILES IDX 77 75 76 77 32 79 64 82 44 83 63 84 45 85 48 86 62 87 81 88
REMARK SMILES IDX 46 89 47 91 61 93 82 94 49 97 33 99 34 100 42 101 35 102
REMARK SMILES IDX 36 103 40 104 43 105 37 106 38 107 41 108 39 109 65 110
REMARK SMILES IDX 66 111 74 112 67 113 68 114 72 115 75 116 69 117 70 118
REMARK SMILES IDX 73 119 71 120 50 121 51 122 59 123 52 124 53 125 57 126
REMARK SMILES IDX 60 127 54 128 55 129 58 130 56 131
REMARK H PARENT 16 2 16 3 15 5 15 6 14 10 11 12 11 13 10 15 10 16 9 18 9 19
REMARK H PARENT 3 26 1 32 1 33 1 34 5 36 5 37 5 38 17 40 17 41 18 43 18 44
REMARK H PARENT 19 46 19 47 20 49 20 50 21 53 25 59 86 61 26 63 85 64 84 74
REMARK H PARENT 78 76 80 78 83 80 77 81 45 90 48 92 81 95 46 96 82 98
REMARK Flexibility Score: inf
ROOT
ATOM      1  C   UNL A   1      39.209  22.030  26.476  1.00  0.00    -0.036 C 
ATOM      2  H   UNL A   1      38.951  21.475  27.354  1.00  0.00     0.028 H 
ATOM      3  H   UNL A   1      39.369  23.074  26.640  1.00  0.00     0.028 H 
ENDROOT
BRANCH   1   4
ATOM      4  C   UNL A   1      37.991  21.947  25.485  1.00  0.00     0.017 C 
ATOM      5  H   UNL A   1      38.001  22.827  24.875  1.00  0.00     0.049 H 
ATOM      6  H   UNL A   1      38.121  21.040  24.931  1.00  0.00     0.049 H 
BRANCH   4   7
ATOM      7  N   UNL A   1      36.590  21.844  26.159  1.00  0.00    -0.356 N 
ATOM      8  C   UNL A   1      35.239  21.591  26.129  1.00  0.00     0.220 C 
ATOM      9  O   UNL A   1      34.801  21.656  27.302  1.00  0.00    -0.275 OA
ATOM     10  H   UNL A   1      36.762  22.086  27.097  1.00  0.00     0.163 HD
BRANCH   8  11
ATOM     11  C   UNL A   1      34.119  21.054  25.041  1.00  0.00     0.030 C 
ATOM     12  H   UNL A   1      34.587  21.294  24.109  1.00  0.00     0.037 H 
ATOM     13  H   UNL A   1      33.925  20.158  25.593  1.00  0.00     0.037 H 
BRANCH  11  14
ATOM     14  C   UNL A   1      32.552  21.284  24.692  1.00  0.00    -0.010 C 
ATOM     15  H   UNL A   1      32.577  21.608  23.673  1.00  0.00     0.031 H 
ATOM     16  H   UNL A   1      32.217  20.366  25.126  1.00  0.00     0.031 H 
BRANCH  14  17
ATOM     17  C   UNL A   1      31.389  22.181  25.325  1.00  0.00     0.090 C 
ATOM     18  H   UNL A   1      30.684  22.329  24.533  1.00  0.00     0.071 H 
ATOM     19  H   UNL A   1      31.159  21.601  26.194  1.00  0.00     0.071 H 
BRANCH  17  20
ATOM     20  O   UNL A   1      31.560  23.474  25.925  1.00  0.00    -0.477 OA
BRANCH  20  21
ATOM     21  C   UNL A   1      31.348  24.645  25.268  1.00  0.00     0.235 A 
ATOM     22  C   UNL A   1      32.453  25.735  21.552  1.00  0.00     0.039 A 
ATOM     23  C   UNL A   1      33.484  25.225  22.338  1.00  0.00    -0.037 A 
ATOM     24  N   UNL A   1      31.319  26.240  22.080  1.00  0.00    -0.240 NA
ATOM     25  C   UNL A   1      33.344  25.094  23.735  1.00  0.00    -0.034 A 
ATOM     26  H   UNL A   1      34.368  24.935  21.889  1.00  0.00     0.064 H 
ATOM     27  C   UNL A   1      31.161  25.921  23.382  1.00  0.00     0.147 A 
ATOM     28  C   UNL A   1      32.043  25.210  24.175  1.00  0.00     0.078 A 
ATOM     29  S   UNL A   1      29.845  26.349  24.373  1.00  0.00    -0.012 S 
ATOM     30  N   UNL A   1      30.220  25.272  25.606  1.00  0.00    -0.153 NA
BRANCH  22  31
ATOM     31  C   UNL A   1      32.557  25.638  20.051  1.00  0.00    -0.022 C 
ATOM     32  H   UNL A   1      33.245  26.376  19.693  1.00  0.00     0.030 H 
ATOM     33  H   UNL A   1      31.595  25.806  19.615  1.00  0.00     0.030 H 
ATOM     34  H   UNL A   1      32.907  24.664  19.781  1.00  0.00     0.030 H 
ENDBRANCH  22  31
BRANCH  25  35
ATOM     35  C   UNL A   1      34.351  24.797  24.780  1.00  0.00    -0.039 C 
ATOM     36  H   UNL A   1      35.306  25.167  24.472  1.00  0.00     0.028 H 
ATOM     37  H   UNL A   1      34.409  23.739  24.928  1.00  0.00     0.028 H 
ATOM     38  H   UNL A   1      34.064  25.270  25.697  1.00  0.00     0.028 H 
ENDBRANCH  25  35
ENDBRANCH  20  21
ENDBRANCH  17  20
ENDBRANCH  14  17
ENDBRANCH  11  14
ENDBRANCH   8  11
ENDBRANCH   4   7
ENDBRANCH   1   4
BRANCH   1  39
ATOM     39  C   UNL A   1      40.551  21.488  25.958  1.00  0.00    -0.052 C 
ATOM     40  H   UNL A   1      41.217  22.320  25.872  1.00  0.00     0.027 H 
ATOM     41  H   UNL A   1      40.302  20.992  25.044  1.00  0.00     0.027 H 
BRANCH  39  42
ATOM     42  C   UNL A   1      41.270  20.410  26.796  1.00  0.00    -0.052 C 
ATOM     43  H   UNL A   1      40.545  20.005  27.472  1.00  0.00     0.027 H 
ATOM     44  H   UNL A   1      42.094  20.937  27.232  1.00  0.00     0.027 H 
BRANCH  42  45
ATOM     45  C   UNL A   1      41.936  19.217  26.080  1.00  0.00    -0.036 C 
ATOM     46  H   UNL A   1      41.881  19.398  25.027  1.00  0.00     0.028 H 
ATOM     47  H   UNL A   1      41.398  18.353  26.409  1.00  0.00     0.028 H 
BRANCH  45  48
ATOM     48  C   UNL A   1      43.395  18.945  26.429  1.00  0.00     0.018 C 
ATOM     49  H   UNL A   1      43.464  17.968  26.859  1.00  0.00     0.049 H 
ATOM     50  H   UNL A   1      43.701  19.714  27.109  1.00  0.00     0.049 H 
BRANCH  48  51
ATOM     51  N   UNL A   1      44.296  19.009  25.284  1.00  0.00    -0.352 N 
ATOM     52  C   UNL A   1      44.698  20.098  24.532  1.00  0.00     0.251 C 
ATOM     53  H   UNL A   1      44.677  18.145  25.005  1.00  0.00     0.163 HD
ATOM     54  O   UNL A   1      45.187  19.937  23.432  1.00  0.00    -0.269 OA
BRANCH  52  55
ATOM     55  C   UNL A   1      44.527  21.468  25.068  1.00  0.00     0.039 A 
ATOM     56  C   UNL A   1      43.630  22.352  24.461  1.00  0.00    -0.049 A 
ATOM     57  C   UNL A   1      45.295  21.887  26.153  1.00  0.00    -0.049 A 
ATOM     58  C   UNL A   1      43.474  23.627  24.998  1.00  0.00    -0.053 A 
ATOM     59  H   UNL A   1      43.094  22.064  23.628  1.00  0.00     0.063 H 
ATOM     60  C   UNL A   1      45.041  23.090  26.771  1.00  0.00    -0.053 A 
ATOM     61  H   UNL A   1      46.063  21.290  26.496  1.00  0.00     0.063 H 
ATOM     62  C   UNL A   1      44.167  23.980  26.171  1.00  0.00    -0.014 A 
ATOM     63  H   UNL A   1      42.852  24.310  24.539  1.00  0.00     0.063 H 
ATOM     64  H   UNL A   1      45.497  23.325  27.667  1.00  0.00     0.063 H 
BRANCH  62  65
ATOM     65  C   UNL A   1      43.859  25.231  26.850  1.00  0.00     0.031 A 
ATOM     66  C   UNL A   1      44.834  26.305  26.539  1.00  0.00     0.074 A 
ATOM     67  C   UNL A   1      42.746  25.465  27.577  1.00  0.00     0.049 A 
ATOM     68  N   UNL A   1      45.770  26.735  27.314  1.00  0.00    -0.248 NA
ATOM     69  C   UNL A   1      44.911  26.821  25.165  1.00  0.00    -0.034 C 
ATOM     70  C   UNL A   1      41.560  24.618  27.732  1.00  0.00    -0.036 A 
ATOM     71  N   UNL A   1      42.420  26.572  28.306  1.00  0.00    -0.354 N 
ATOM     72  C   UNL A   1      46.430  27.731  26.602  1.00  0.00     0.074 A 
ATOM     73  C   UNL A   1      45.989  27.607  25.240  1.00  0.00    -0.034 C 
ATOM     74  H   UNL A   1      44.298  26.628  24.357  1.00  0.00     0.065 H 
ATOM     75  C   UNL A   1      40.570  25.320  28.332  1.00  0.00    -0.036 A 
ATOM     76  H   UNL A   1      41.489  23.634  27.429  1.00  0.00     0.065 H 
ATOM     77  C   UNL A   1      41.103  26.600  28.760  1.00  0.00     0.049 A 
ATOM     78  H   UNL A   1      43.063  27.292  28.496  1.00  0.00     0.167 HD
ATOM     79  C   UNL A   1      47.065  28.730  27.275  1.00  0.00     0.037 A 
ATOM     80  H   UNL A   1      46.442  28.062  24.432  1.00  0.00     0.065 H 
ATOM     81  H   UNL A   1      39.599  24.999  28.463  1.00  0.00     0.065 H 
ATOM     82  C   UNL A   1      40.510  27.606  29.451  1.00  0.00     0.037 A 
ATOM     83  C   UNL A   1      47.233  28.362  28.663  1.00  0.00     0.049 A 
ATOM     84  C   UNL A   1      41.598  28.368  30.102  1.00  0.00     0.074 A 
ATOM     85  C   UNL A   1      47.960  27.421  29.360  1.00  0.00    -0.036 A 
ATOM     86  N   UNL A   1      46.218  28.773  29.487  1.00  0.00    -0.354 N 
ATOM     87  N   UNL A   1      42.340  27.892  31.061  1.00  0.00    -0.248 NA
ATOM     88  C   UNL A   1      42.118  29.550  29.433  1.00  0.00    -0.034 C 
ATOM     89  C   UNL A   1      47.153  27.069  30.484  1.00  0.00    -0.036 A 
ATOM     90  H   UNL A   1      48.893  27.050  29.119  1.00  0.00     0.065 H 
ATOM     91  C   UNL A   1      45.996  27.849  30.468  1.00  0.00     0.049 A 
ATOM     92  H   UNL A   1      45.718  29.617  29.385  1.00  0.00     0.167 HD
ATOM     93  C   UNL A   1      43.593  28.425  30.822  1.00  0.00     0.074 A 
ATOM     94  C   UNL A   1      43.358  29.554  29.926  1.00  0.00    -0.034 C 
ATOM     95  H   UNL A   1      41.662  30.197  28.770  1.00  0.00     0.065 H 
ATOM     96  H   UNL A   1      47.387  26.355  31.191  1.00  0.00     0.065 H 
ATOM     97  C   UNL A   1      44.714  27.709  31.127  1.00  0.00     0.037 A 
ATOM     98  H   UNL A   1      44.067  30.269  29.701  1.00  0.00     0.065 H 
BRANCH  79  99
ATOM     99  C   UNL A   1      47.080  30.185  26.846  1.00  0.00     0.064 A 
ATOM    100  C   UNL A   1      48.283  30.915  26.973  1.00  0.00     0.173 A 
ATOM    101  C   UNL A   1      45.925  30.969  26.632  1.00  0.00     0.173 A 
ATOM    102  F   UNL A   1      49.446  30.283  27.197  1.00  0.00    -0.203 F 
ATOM    103  C   UNL A   1      48.309  32.313  26.977  1.00  0.00     0.198 A 
ATOM    104  C   UNL A   1      45.963  32.362  26.588  1.00  0.00     0.198 A 
ATOM    105  F   UNL A   1      44.698  30.443  26.571  1.00  0.00    -0.203 F 
ATOM    106  F   UNL A   1      49.455  32.956  27.236  1.00  0.00    -0.200 F 
ATOM    107  C   UNL A   1      47.147  33.036  26.792  1.00  0.00     0.200 A 
ATOM    108  F   UNL A   1      44.819  33.045  26.433  1.00  0.00    -0.200 F 
ATOM    109  F   UNL A   1      47.157  34.373  26.858  1.00  0.00    -0.200 F 
ENDBRANCH  79  99
BRANCH  82 110
ATOM    110  C   UNL A   1      39.120  28.124  29.398  1.00  0.00     0.064 A 
ATOM    111  C   UNL A   1      38.367  28.285  30.577  1.00  0.00     0.173 A 
ATOM    112  C   UNL A   1      38.631  28.780  28.254  1.00  0.00     0.173 A 
ATOM    113  F   UNL A   1      38.775  27.718  31.722  1.00  0.00    -0.203 F 
ATOM    114  C   UNL A   1      37.234  29.104  30.623  1.00  0.00     0.198 A 
ATOM    115  C   UNL A   1      37.496  29.594  28.301  1.00  0.00     0.198 A 
ATOM    116  F   UNL A   1      39.302  28.729  27.094  1.00  0.00    -0.203 F 
ATOM    117  F   UNL A   1      36.597  29.301  31.788  1.00  0.00    -0.200 F 
ATOM    118  C   UNL A   1      36.811  29.774  29.490  1.00  0.00     0.200 A 
ATOM    119  F   UNL A   1      37.114  30.266  27.205  1.00  0.00    -0.200 F 
ATOM    120  F   UNL A   1      35.777  30.625  29.550  1.00  0.00    -0.200 F 
ENDBRANCH  82 110
BRANCH  97 121
ATOM    121  C   UNL A   1      44.569  26.570  32.097  1.00  0.00     0.064 A 
ATOM    122  C   UNL A   1      44.398  25.224  31.731  1.00  0.00     0.173 A 
ATOM    123  C   UNL A   1      44.749  26.852  33.458  1.00  0.00     0.173 A 
ATOM    124  F   UNL A   1      44.291  24.864  30.447  1.00  0.00    -0.203 F 
ATOM    125  C   UNL A   1      44.390  24.213  32.692  1.00  0.00     0.198 A 
ATOM    126  C   UNL A   1      44.778  25.838  34.410  1.00  0.00     0.198 A 
ATOM    127  F   UNL A   1      44.950  28.116  33.861  1.00  0.00    -0.203 F 
ATOM    128  F   UNL A   1      44.218  22.934  32.322  1.00  0.00    -0.200 F 
ATOM    129  C   UNL A   1      44.593  24.520  34.028  1.00  0.00     0.200 A 
ATOM    130  F   UNL A   1      45.019  26.137  35.693  1.00  0.00    -0.200 F 
ATOM    131  F   UNL A   1      44.636  23.542  34.945  1.00  0.00    -0.200 F 
ENDBRANCH  97 121
ENDBRANCH  62  65
ENDBRANCH  52  55
ENDBRANCH  48  51
ENDBRANCH  45  48
ENDBRANCH  42  45
ENDBRANCH  39  42
ENDBRANCH   1  39
TORSDOF 19
ENDMDL
