MODEL 1
REMARK VINA RESULT:     -12.4      0.000      0.000
REMARK SMILES NS(=O)(=O)c1ccc(/N=N/c2ccc(O)c(C(=O)NCCCCCCNC(=O)c3ccc(-c4c5nc(c(-c6c(F)c(F)c(F)c(F)c6F)c6ccc([nH]6)c(-c6c(F)c(F)c(F)c(F)c6F)c6nc(c(-c7c(F)c(F)c(F)c(F)c7F)c7ccc4[nH]7)C=C6)C=C5)cc3)c2)cc1
REMARK SMILES IDX 21 1 20 4 19 7 17 8 18 9 16 11 11 12 12 13 92 14 13 15 14 18
REMARK SMILES IDX 10 20 9 21 8 22 5 23 6 24 94 25 7 26 93 28 2 32 3 33 4 34
REMARK SMILES IDX 1 35 15 38 22 40 23 43 24 46 25 49 26 52 27 53 28 55 29 56
REMARK SMILES IDX 30 57 91 58 31 59 90 61 32 63 33 66 34 67 84 68 35 69 89 70
REMARK SMILES IDX 83 71 85 72 36 73 88 74 82 76 81 78 37 80 69 83 49 84 68 85
REMARK SMILES IDX 50 86 53 87 67 88 86 89 51 90 52 92 66 94 87 95 54 98 38 100
REMARK SMILES IDX 39 101 47 102 40 103 41 104 45 105 48 106 42 107 43 108
REMARK SMILES IDX 46 109 44 110 70 111 71 112 79 113 72 114 73 115 77 116
REMARK SMILES IDX 80 117 74 118 75 119 78 120 76 121 55 122 56 123 64 124
REMARK SMILES IDX 57 125 58 126 62 127 65 128 59 129 60 130 63 131 61 132
REMARK H PARENT 21 2 21 3 20 5 20 6 19 10 12 16 92 17 13 19 6 27 94 29 7 30
REMARK H PARENT 93 31 1 36 1 37 15 39 22 41 22 42 23 44 23 45 24 47 24 48
REMARK H PARENT 25 50 25 51 26 54 30 60 91 62 31 64 90 65 89 75 83 77 85 79
REMARK H PARENT 88 81 82 82 50 91 53 93 86 96 51 97 87 99
REMARK Flexibility Score: inf
ROOT
ATOM      1  C   UNL A   1      35.351  31.182  27.923  1.00  0.00    -0.036 C 
ATOM      2  H   UNL A   1      35.552  31.755  27.042  1.00  0.00     0.028 H 
ATOM      3  H   UNL A   1      36.200  31.019  28.555  1.00  0.00     0.028 H 
ENDROOT
BRANCH   1   4
ATOM      4  C   UNL A   1      34.909  29.792  27.480  1.00  0.00     0.018 C 
ATOM      5  H   UNL A   1      34.960  29.749  26.412  1.00  0.00     0.049 H 
ATOM      6  H   UNL A   1      35.567  29.096  27.957  1.00  0.00     0.049 H 
BRANCH   4   7
ATOM      7  N   UNL A   1      33.561  29.434  27.886  1.00  0.00    -0.352 N 
ATOM      8  C   UNL A   1      32.644  28.593  27.297  1.00  0.00     0.255 C 
ATOM      9  O   UNL A   1      31.512  28.506  27.776  1.00  0.00    -0.269 OA
ATOM     10  H   UNL A   1      33.253  29.860  28.718  1.00  0.00     0.163 HD
BRANCH   8  11
ATOM     11  C   UNL A   1      32.933  27.845  26.046  1.00  0.00     0.083 A 
ATOM     12  C   UNL A   1      33.457  25.752  24.908  1.00  0.00     0.087 A 
ATOM     13  C   UNL A   1      33.802  26.477  23.762  1.00  0.00    -0.031 A 
ATOM     14  C   UNL A   1      32.929  26.449  26.006  1.00  0.00    -0.018 A 
ATOM     15  C   UNL A   1      33.671  27.869  23.735  1.00  0.00    -0.017 A 
ATOM     16  H   UNL A   1      34.155  25.980  22.930  1.00  0.00     0.065 H 
ATOM     17  H   UNL A   1      32.531  25.921  26.797  1.00  0.00     0.066 H 
ATOM     18  C   UNL A   1      33.253  28.548  24.877  1.00  0.00     0.128 A 
ATOM     19  H   UNL A   1      33.882  28.392  22.870  1.00  0.00     0.066 H 
BRANCH  12  20
ATOM     20  N   UNL A   1      33.720  24.362  24.957  1.00  0.00    -0.151 NA
ATOM     21  N   UNL A   1      33.439  23.841  23.852  1.00  0.00    -0.151 NA
BRANCH  21  22
ATOM     22  C   UNL A   1      33.464  22.439  23.876  1.00  0.00     0.086 A 
ATOM     23  C   UNL A   1      33.258  19.657  24.154  1.00  0.00     0.082 A 
ATOM     24  C   UNL A   1      32.348  20.339  23.342  1.00  0.00    -0.040 A 
ATOM     25  C   UNL A   1      34.272  20.350  24.823  1.00  0.00    -0.040 A 
ATOM     26  C   UNL A   1      32.455  21.728  23.211  1.00  0.00    -0.033 A 
ATOM     27  H   UNL A   1      31.606  19.824  22.845  1.00  0.00     0.064 H 
ATOM     28  C   UNL A   1      34.371  21.737  24.679  1.00  0.00    -0.033 A 
ATOM     29  H   UNL A   1      34.943  19.841  25.418  1.00  0.00     0.064 H 
ATOM     30  H   UNL A   1      31.780  22.236  22.617  1.00  0.00     0.065 H 
ATOM     31  H   UNL A   1      35.120  22.249  25.172  1.00  0.00     0.065 H 
BRANCH  23  32
ATOM     32  S   UNL A   1      33.123  17.912  24.422  1.00  0.00     0.238 S 
ATOM     33  O   UNL A   1      31.989  17.676  25.282  1.00  0.00    -0.207 OA
ATOM     34  O   UNL A   1      34.443  17.397  24.699  1.00  0.00    -0.207 OA
BRANCH  32  35
ATOM     35  N   UNL A   1      32.682  17.285  22.926  1.00  0.00    -0.225 NA
ATOM     36  H   UNL A   1      31.944  17.861  22.521  1.00  0.00     0.137 HD
ATOM     37  H   UNL A   1      32.341  16.331  23.044  1.00  0.00     0.137 HD
ENDBRANCH  32  35
ENDBRANCH  23  32
ENDBRANCH  21  22
ENDBRANCH  12  20
BRANCH  18  38
ATOM     38  O   UNL A   1      33.191  29.914  24.788  1.00  0.00    -0.507 OA
ATOM     39  H   UNL A   1      32.487  30.378  25.195  1.00  0.00     0.293 HD
ENDBRANCH  18  38
ENDBRANCH   8  11
ENDBRANCH   4   7
ENDBRANCH   1   4
BRANCH   1  40
ATOM     40  C   UNL A   1      34.365  31.980  28.778  1.00  0.00    -0.052 C 
ATOM     41  H   UNL A   1      34.460  31.636  29.787  1.00  0.00     0.027 H 
ATOM     42  H   UNL A   1      33.407  31.809  28.335  1.00  0.00     0.027 H 
BRANCH  40  43
ATOM     43  C   UNL A   1      34.537  33.501  28.789  1.00  0.00    -0.052 C 
ATOM     44  H   UNL A   1      35.048  33.777  27.890  1.00  0.00     0.027 H 
ATOM     45  H   UNL A   1      35.072  33.719  29.688  1.00  0.00     0.027 H 
BRANCH  43  46
ATOM     46  C   UNL A   1      33.256  34.332  28.867  1.00  0.00    -0.036 C 
ATOM     47  H   UNL A   1      32.611  33.874  29.587  1.00  0.00     0.028 H 
ATOM     48  H   UNL A   1      32.860  34.349  27.874  1.00  0.00     0.028 H 
BRANCH  46  49
ATOM     49  C   UNL A   1      33.435  35.792  29.264  1.00  0.00     0.018 C 
ATOM     50  H   UNL A   1      33.204  36.406  28.419  1.00  0.00     0.049 H 
ATOM     51  H   UNL A   1      34.450  35.915  29.582  1.00  0.00     0.049 H 
BRANCH  49  52
ATOM     52  N   UNL A   1      32.583  36.191  30.372  1.00  0.00    -0.352 N 
ATOM     53  C   UNL A   1      32.677  35.860  31.701  1.00  0.00     0.251 C 
ATOM     54  H   UNL A   1      31.832  36.782  30.135  1.00  0.00     0.163 HD
ATOM     55  O   UNL A   1      31.791  36.181  32.487  1.00  0.00    -0.269 OA
BRANCH  53  56
ATOM     56  C   UNL A   1      33.842  35.087  32.188  1.00  0.00     0.039 A 
ATOM     57  C   UNL A   1      33.647  33.773  32.626  1.00  0.00    -0.049 A 
ATOM     58  C   UNL A   1      35.118  35.654  32.214  1.00  0.00    -0.049 A 
ATOM     59  C   UNL A   1      34.743  33.007  33.033  1.00  0.00    -0.053 A 
ATOM     60  H   UNL A   1      32.697  33.371  32.650  1.00  0.00     0.063 H 
ATOM     61  C   UNL A   1      36.217  34.868  32.552  1.00  0.00    -0.053 A 
ATOM     62  H   UNL A   1      35.246  36.651  31.984  1.00  0.00     0.063 H 
ATOM     63  C   UNL A   1      36.040  33.539  32.970  1.00  0.00    -0.014 A 
ATOM     64  H   UNL A   1      34.598  32.046  33.380  1.00  0.00     0.063 H 
ATOM     65  H   UNL A   1      37.167  35.266  32.495  1.00  0.00     0.063 H 
BRANCH  63  66
ATOM     66  C   UNL A   1      37.232  32.745  33.363  1.00  0.00     0.031 A 
ATOM     67  C   UNL A   1      37.928  33.047  34.661  1.00  0.00     0.074 A 
ATOM     68  C   UNL A   1      37.737  31.821  32.523  1.00  0.00     0.049 A 
ATOM     69  N   UNL A   1      39.062  32.583  35.122  1.00  0.00    -0.248 NA
ATOM     70  C   UNL A   1      37.277  34.028  35.542  1.00  0.00    -0.034 C 
ATOM     71  C   UNL A   1      37.169  31.455  31.227  1.00  0.00    -0.036 A 
ATOM     72  N   UNL A   1      38.858  31.034  32.630  1.00  0.00    -0.354 N 
ATOM     73  C   UNL A   1      39.270  33.233  36.332  1.00  0.00     0.074 A 
ATOM     74  C   UNL A   1      38.173  34.159  36.509  1.00  0.00    -0.034 C 
ATOM     75  H   UNL A   1      36.362  34.493  35.435  1.00  0.00     0.065 H 
ATOM     76  C   UNL A   1      37.935  30.506  30.663  1.00  0.00    -0.036 A 
ATOM     77  H   UNL A   1      36.316  31.860  30.811  1.00  0.00     0.065 H 
ATOM     78  C   UNL A   1      39.071  30.229  31.537  1.00  0.00     0.049 A 
ATOM     79  H   UNL A   1      39.452  31.046  33.415  1.00  0.00     0.167 HD
ATOM     80  C   UNL A   1      40.275  33.060  37.222  1.00  0.00     0.037 A 
ATOM     81  H   UNL A   1      38.097  34.833  37.288  1.00  0.00     0.065 H 
ATOM     82  H   UNL A   1      37.750  30.048  29.757  1.00  0.00     0.065 H 
ATOM     83  C   UNL A   1      40.079  29.377  31.266  1.00  0.00     0.037 A 
ATOM     84  C   UNL A   1      41.345  32.113  37.057  1.00  0.00     0.049 A 
ATOM     85  C   UNL A   1      41.189  29.205  32.268  1.00  0.00     0.074 A 
ATOM     86  C   UNL A   1      42.387  31.827  37.923  1.00  0.00    -0.036 A 
ATOM     87  N   UNL A   1      41.507  31.292  35.952  1.00  0.00    -0.354 N 
ATOM     88  N   UNL A   1      41.357  29.801  33.423  1.00  0.00    -0.248 NA
ATOM     89  C   UNL A   1      42.248  28.244  31.931  1.00  0.00    -0.034 C 
ATOM     90  C   UNL A   1      43.203  30.865  37.321  1.00  0.00    -0.036 A 
ATOM     91  H   UNL A   1      42.534  32.252  38.853  1.00  0.00     0.065 H 
ATOM     92  C   UNL A   1      42.641  30.512  36.105  1.00  0.00     0.049 A 
ATOM     93  H   UNL A   1      40.905  31.266  35.173  1.00  0.00     0.167 HD
ATOM     94  C   UNL A   1      42.511  29.256  33.970  1.00  0.00     0.074 A 
ATOM     95  C   UNL A   1      43.008  28.286  33.017  1.00  0.00    -0.034 C 
ATOM     96  H   UNL A   1      42.369  27.682  31.073  1.00  0.00     0.065 H 
ATOM     97  H   UNL A   1      44.077  30.483  37.716  1.00  0.00     0.065 H 
ATOM     98  C   UNL A   1      43.105  29.533  35.156  1.00  0.00     0.037 A 
ATOM     99  H   UNL A   1      43.846  27.701  33.164  1.00  0.00     0.065 H 
BRANCH  80 100
ATOM    100  C   UNL A   1      40.268  33.917  38.455  1.00  0.00     0.064 A 
ATOM    101  C   UNL A   1      40.974  35.129  38.514  1.00  0.00     0.173 A 
ATOM    102  C   UNL A   1      39.521  33.539  39.581  1.00  0.00     0.173 A 
ATOM    103  F   UNL A   1      41.714  35.531  37.471  1.00  0.00    -0.203 F 
ATOM    104  C   UNL A   1      40.956  35.913  39.666  1.00  0.00     0.198 A 
ATOM    105  C   UNL A   1      39.478  34.341  40.717  1.00  0.00     0.198 A 
ATOM    106  F   UNL A   1      38.822  32.394  39.575  1.00  0.00    -0.203 F 
ATOM    107  F   UNL A   1      41.681  37.039  39.717  1.00  0.00    -0.200 F 
ATOM    108  C   UNL A   1      40.203  35.523  40.763  1.00  0.00     0.200 A 
ATOM    109  F   UNL A   1      38.739  33.970  41.771  1.00  0.00    -0.200 F 
ATOM    110  F   UNL A   1      40.182  36.282  41.866  1.00  0.00    -0.200 F 
ENDBRANCH  80 100
BRANCH  83 111
ATOM    111  C   UNL A   1      40.077  28.606  29.994  1.00  0.00     0.064 A 
ATOM    112  C   UNL A   1      39.432  27.364  29.907  1.00  0.00     0.173 A 
ATOM    113  C   UNL A   1      40.723  29.089  28.847  1.00  0.00     0.173 A 
ATOM    114  F   UNL A   1      38.821  26.851  30.985  1.00  0.00    -0.203 F 
ATOM    115  C   UNL A   1      39.448  26.625  28.727  1.00  0.00     0.198 A 
ATOM    116  C   UNL A   1      40.712  28.362  27.657  1.00  0.00     0.198 A 
ATOM    117  F   UNL A   1      41.355  30.271  28.879  1.00  0.00    -0.203 F 
ATOM    118  F   UNL A   1      38.863  25.420  28.685  1.00  0.00    -0.200 F 
ATOM    119  C   UNL A   1      40.083  27.127  27.601  1.00  0.00     0.200 A 
ATOM    120  F   UNL A   1      41.314  28.858  26.569  1.00  0.00    -0.200 F 
ATOM    121  F   UNL A   1      40.094  26.420  26.464  1.00  0.00    -0.200 F 
ENDBRANCH  83 111
BRANCH  98 122
ATOM    122  C   UNL A   1      44.325  28.741  35.525  1.00  0.00     0.064 A 
ATOM    123  C   UNL A   1      45.616  29.169  35.186  1.00  0.00     0.173 A 
ATOM    124  C   UNL A   1      44.199  27.574  36.295  1.00  0.00     0.173 A 
ATOM    125  F   UNL A   1      45.786  30.270  34.439  1.00  0.00    -0.203 F 
ATOM    126  C   UNL A   1      46.736  28.449  35.593  1.00  0.00     0.198 A 
ATOM    127  C   UNL A   1      45.322  26.872  36.723  1.00  0.00     0.198 A 
ATOM    128  F   UNL A   1      42.984  27.125  36.649  1.00  0.00    -0.203 F 
ATOM    129  F   UNL A   1      47.960  28.858  35.229  1.00  0.00    -0.200 F 
ATOM    130  C   UNL A   1      46.589  27.309  36.369  1.00  0.00     0.200 A 
ATOM    131  F   UNL A   1      45.178  25.778  37.484  1.00  0.00    -0.200 F 
ATOM    132  F   UNL A   1      47.671  26.628  36.772  1.00  0.00    -0.200 F 
ENDBRANCH  98 122
ENDBRANCH  63  66
ENDBRANCH  53  56
ENDBRANCH  49  52
ENDBRANCH  46  49
ENDBRANCH  43  46
ENDBRANCH  40  43
ENDBRANCH   1  40
TORSDOF 18
ENDMDL
MODEL 2
REMARK VINA RESULT:     -12.3      1.624      7.305
REMARK SMILES NS(=O)(=O)c1ccc(/N=N/c2ccc(O)c(C(=O)NCCCCCCNC(=O)c3ccc(-c4c5nc(c(-c6c(F)c(F)c(F)c(F)c6F)c6ccc([nH]6)c(-c6c(F)c(F)c(F)c(F)c6F)c6nc(c(-c7c(F)c(F)c(F)c(F)c7F)c7ccc4[nH]7)C=C6)C=C5)cc3)c2)cc1
REMARK SMILES IDX 21 1 20 4 19 7 17 8 18 9 16 11 11 12 12 13 92 14 13 15 14 18
REMARK SMILES IDX 10 20 9 21 8 22 5 23 6 24 94 25 7 26 93 28 2 32 3 33 4 34
REMARK SMILES IDX 1 35 15 38 22 40 23 43 24 46 25 49 26 52 27 53 28 55 29 56
REMARK SMILES IDX 30 57 91 58 31 59 90 61 32 63 33 66 34 67 84 68 35 69 89 70
REMARK SMILES IDX 83 71 85 72 36 73 88 74 82 76 81 78 37 80 69 83 49 84 68 85
REMARK SMILES IDX 50 86 53 87 67 88 86 89 51 90 52 92 66 94 87 95 54 98 38 100
REMARK SMILES IDX 39 101 47 102 40 103 41 104 45 105 48 106 42 107 43 108
REMARK SMILES IDX 46 109 44 110 70 111 71 112 79 113 72 114 73 115 77 116
REMARK SMILES IDX 80 117 74 118 75 119 78 120 76 121 55 122 56 123 64 124
REMARK SMILES IDX 57 125 58 126 62 127 65 128 59 129 60 130 63 131 61 132
REMARK H PARENT 21 2 21 3 20 5 20 6 19 10 12 16 92 17 13 19 6 27 94 29 7 30
REMARK H PARENT 93 31 1 36 1 37 15 39 22 41 22 42 23 44 23 45 24 47 24 48
REMARK H PARENT 25 50 25 51 26 54 30 60 91 62 31 64 90 65 89 75 83 77 85 79
REMARK H PARENT 88 81 82 82 50 91 53 93 86 96 51 97 87 99
REMARK Flexibility Score: inf
ROOT
ATOM      1  C   UNL A   1      33.551  29.338  27.199  1.00  0.00    -0.036 C 
ATOM      2  H   UNL A   1      34.102  30.251  27.103  1.00  0.00     0.028 H 
ATOM      3  H   UNL A   1      33.693  28.824  28.128  1.00  0.00     0.028 H 
ENDROOT
BRANCH   1   4
ATOM      4  C   UNL A   1      34.059  28.378  26.128  1.00  0.00     0.018 C 
ATOM      5  H   UNL A   1      35.059  28.093  26.382  1.00  0.00     0.049 H 
ATOM      6  H   UNL A   1      33.381  27.550  26.114  1.00  0.00     0.049 H 
BRANCH   4   7
ATOM      7  N   UNL A   1      34.070  28.930  24.785  1.00  0.00    -0.352 N 
ATOM      8  C   UNL A   1      33.196  28.745  23.736  1.00  0.00     0.255 C 
ATOM      9  O   UNL A   1      33.453  29.251  22.643  1.00  0.00    -0.269 OA
ATOM     10  H   UNL A   1      34.822  29.534  24.592  1.00  0.00     0.163 HD
BRANCH   8  11
ATOM     11  C   UNL A   1      31.990  27.884  23.842  1.00  0.00     0.083 A 
ATOM     12  C   UNL A   1      30.986  25.671  24.053  1.00  0.00     0.087 A 
ATOM     13  C   UNL A   1      29.744  26.216  23.713  1.00  0.00    -0.031 A 
ATOM     14  C   UNL A   1      32.077  26.540  24.211  1.00  0.00    -0.018 A 
ATOM     15  C   UNL A   1      29.609  27.590  23.485  1.00  0.00    -0.017 A 
ATOM     16  H   UNL A   1      28.920  25.601  23.631  1.00  0.00     0.065 H 
ATOM     17  H   UNL A   1      32.959  26.179  24.606  1.00  0.00     0.066 H 
ATOM     18  C   UNL A   1      30.731  28.414  23.535  1.00  0.00     0.128 A 
ATOM     19  H   UNL A   1      28.680  27.992  23.281  1.00  0.00     0.066 H 
BRANCH  12  20
ATOM     20  N   UNL A   1      31.124  24.266  24.153  1.00  0.00    -0.151 NA
ATOM     21  N   UNL A   1      32.340  23.960  24.135  1.00  0.00    -0.151 NA
BRANCH  21  22
ATOM     22  C   UNL A   1      32.564  22.581  24.012  1.00  0.00     0.086 A 
ATOM     23  C   UNL A   1      32.674  19.787  23.815  1.00  0.00     0.082 A 
ATOM     24  C   UNL A   1      32.264  20.541  22.713  1.00  0.00    -0.040 A 
ATOM     25  C   UNL A   1      33.036  20.414  25.011  1.00  0.00    -0.040 A 
ATOM     26  C   UNL A   1      32.208  21.935  22.821  1.00  0.00    -0.033 A 
ATOM     27  H   UNL A   1      32.005  20.076  21.830  1.00  0.00     0.064 H 
ATOM     28  C   UNL A   1      32.980  21.807  25.104  1.00  0.00    -0.033 A 
ATOM     29  H   UNL A   1      33.341  19.852  25.820  1.00  0.00     0.064 H 
ATOM     30  H   UNL A   1      31.898  22.495  22.010  1.00  0.00     0.065 H 
ATOM     31  H   UNL A   1      33.248  22.272  25.987  1.00  0.00     0.065 H 
BRANCH  23  32
ATOM     32  S   UNL A   1      32.688  18.017  23.764  1.00  0.00     0.238 S 
ATOM     33  O   UNL A   1      31.830  17.531  24.818  1.00  0.00    -0.207 OA
ATOM     34  O   UNL A   1      34.054  17.583  23.598  1.00  0.00    -0.207 OA
BRANCH  32  35
ATOM     35  N   UNL A   1      31.896  17.626  22.334  1.00  0.00    -0.225 NA
ATOM     36  H   UNL A   1      31.011  18.132  22.287  1.00  0.00     0.137 HD
ATOM     37  H   UNL A   1      31.714  16.623  22.308  1.00  0.00     0.137 HD
ENDBRANCH  32  35
ENDBRANCH  23  32
ENDBRANCH  21  22
ENDBRANCH  12  20
BRANCH  18  38
ATOM     38  O   UNL A   1      30.527  29.740  23.257  1.00  0.00    -0.507 OA
ATOM     39  H   UNL A   1      29.912  29.991  22.597  1.00  0.00     0.293 HD
ENDBRANCH  18  38
ENDBRANCH   8  11
ENDBRANCH   4   7
ENDBRANCH   1   4
BRANCH   1  40
ATOM     40  C   UNL A   1      32.064  29.690  27.160  1.00  0.00    -0.052 C 
ATOM     41  H   UNL A   1      31.768  29.956  28.152  1.00  0.00     0.027 H 
ATOM     42  H   UNL A   1      31.580  28.822  26.765  1.00  0.00     0.027 H 
BRANCH  40  43
ATOM     43  C   UNL A   1      31.651  30.835  26.231  1.00  0.00    -0.052 C 
ATOM     44  H   UNL A   1      30.741  30.549  25.746  1.00  0.00     0.027 H 
ATOM     45  H   UNL A   1      32.481  30.977  25.571  1.00  0.00     0.027 H 
BRANCH  43  46
ATOM     46  C   UNL A   1      31.418  32.196  26.888  1.00  0.00    -0.036 C 
ATOM     47  H   UNL A   1      30.835  32.039  27.771  1.00  0.00     0.028 H 
ATOM     48  H   UNL A   1      30.933  32.796  26.147  1.00  0.00     0.028 H 
BRANCH  46  49
ATOM     49  C   UNL A   1      32.671  32.965  27.287  1.00  0.00     0.018 C 
ATOM     50  H   UNL A   1      33.335  32.992  26.448  1.00  0.00     0.049 H 
ATOM     51  H   UNL A   1      33.103  32.459  28.125  1.00  0.00     0.049 H 
BRANCH  49  52
ATOM     52  N   UNL A   1      32.395  34.331  27.700  1.00  0.00    -0.352 N 
ATOM     53  C   UNL A   1      32.999  35.078  28.682  1.00  0.00     0.251 C 
ATOM     54  H   UNL A   1      31.673  34.783  27.207  1.00  0.00     0.163 HD
ATOM     55  O   UNL A   1      32.552  36.178  28.989  1.00  0.00    -0.269 OA
BRANCH  53  56
ATOM     56  C   UNL A   1      34.180  34.542  29.394  1.00  0.00     0.039 A 
ATOM     57  C   UNL A   1      33.999  33.917  30.632  1.00  0.00    -0.049 A 
ATOM     58  C   UNL A   1      35.460  34.658  28.847  1.00  0.00    -0.049 A 
ATOM     59  C   UNL A   1      35.094  33.353  31.292  1.00  0.00    -0.053 A 
ATOM     60  H   UNL A   1      33.060  33.874  31.058  1.00  0.00     0.063 H 
ATOM     61  C   UNL A   1      36.538  34.035  29.470  1.00  0.00    -0.053 A 
ATOM     62  H   UNL A   1      35.607  35.203  27.983  1.00  0.00     0.063 H 
ATOM     63  C   UNL A   1      36.367  33.381  30.701  1.00  0.00    -0.014 A 
ATOM     64  H   UNL A   1      34.967  32.914  32.217  1.00  0.00     0.063 H 
ATOM     65  H   UNL A   1      37.468  34.054  29.025  1.00  0.00     0.063 H 
BRANCH  63  66
ATOM     66  C   UNL A   1      37.548  32.764  31.357  1.00  0.00     0.031 A 
ATOM     67  C   UNL A   1      38.260  31.625  30.682  1.00  0.00     0.074 A 
ATOM     68  C   UNL A   1      37.925  33.163  32.587  1.00  0.00     0.049 A 
ATOM     69  N   UNL A   1      39.210  30.851  31.142  1.00  0.00    -0.248 NA
ATOM     70  C   UNL A   1      37.821  31.292  29.318  1.00  0.00    -0.034 C 
ATOM     71  C   UNL A   1      37.301  34.239  33.356  1.00  0.00    -0.036 A 
ATOM     72  N   UNL A   1      38.916  32.695  33.414  1.00  0.00    -0.354 N 
ATOM     73  C   UNL A   1      39.462  29.927  30.135  1.00  0.00     0.074 A 
ATOM     74  C   UNL A   1      38.532  30.205  29.062  1.00  0.00    -0.034 C 
ATOM     75  H   UNL A   1      37.135  31.778  28.718  1.00  0.00     0.065 H 
ATOM     76  C   UNL A   1      37.930  34.357  34.537  1.00  0.00    -0.036 A 
ATOM     77  H   UNL A   1      36.504  34.814  33.043  1.00  0.00     0.065 H 
ATOM     78  C   UNL A   1      38.973  33.339  34.626  1.00  0.00     0.049 A 
ATOM     79  H   UNL A   1      39.530  31.966  33.162  1.00  0.00     0.167 HD
ATOM     80  C   UNL A   1      40.396  28.947  30.102  1.00  0.00     0.037 A 
ATOM     81  H   UNL A   1      38.438  29.633  28.208  1.00  0.00     0.065 H 
ATOM     82  H   UNL A   1      37.711  35.056  35.264  1.00  0.00     0.065 H 
ATOM     83  C   UNL A   1      39.766  33.122  35.693  1.00  0.00     0.037 A 
ATOM     84  C   UNL A   1      41.341  28.697  31.157  1.00  0.00     0.049 A 
ATOM     85  C   UNL A   1      40.794  32.023  35.635  1.00  0.00     0.074 A 
ATOM     86  C   UNL A   1      42.358  27.759  31.201  1.00  0.00    -0.036 A 
ATOM     87  N   UNL A   1      41.387  29.395  32.355  1.00  0.00    -0.354 N 
ATOM     88  N   UNL A   1      41.045  31.178  34.666  1.00  0.00    -0.248 NA
ATOM     89  C   UNL A   1      41.648  31.847  36.818  1.00  0.00    -0.034 C 
ATOM     90  C   UNL A   1      42.991  27.860  32.444  1.00  0.00    -0.036 A 
ATOM     91  H   UNL A   1      42.606  27.100  30.446  1.00  0.00     0.065 H 
ATOM     92  C   UNL A   1      42.404  28.896  33.152  1.00  0.00     0.049 A 
ATOM     93  H   UNL A   1      40.787  30.134  32.602  1.00  0.00     0.167 HD
ATOM     94  C   UNL A   1      42.111  30.403  35.101  1.00  0.00     0.074 A 
ATOM     95  C   UNL A   1      42.457  30.873  36.426  1.00  0.00    -0.034 C 
ATOM     96  H   UNL A   1      41.625  32.351  37.719  1.00  0.00     0.065 H 
ATOM     97  H   UNL A   1      43.764  27.263  32.777  1.00  0.00     0.065 H 
ATOM     98  C   UNL A   1      42.749  29.394  34.459  1.00  0.00     0.037 A 
ATOM     99  H   UNL A   1      43.234  30.498  36.993  1.00  0.00     0.065 H 
BRANCH  80 100
ATOM    100  C   UNL A   1      40.440  28.068  28.885  1.00  0.00     0.064 A 
ATOM    101  C   UNL A   1      41.203  28.408  27.757  1.00  0.00     0.173 A 
ATOM    102  C   UNL A   1      39.736  26.855  28.858  1.00  0.00     0.173 A 
ATOM    103  F   UNL A   1      41.885  29.562  27.727  1.00  0.00    -0.203 F 
ATOM    104  C   UNL A   1      41.234  27.580  26.638  1.00  0.00     0.198 A 
ATOM    105  C   UNL A   1      39.796  26.015  27.750  1.00  0.00     0.198 A 
ATOM    106  F   UNL A   1      38.996  26.478  29.912  1.00  0.00    -0.203 F 
ATOM    107  F   UNL A   1      41.927  27.953  25.552  1.00  0.00    -0.200 F 
ATOM    108  C   UNL A   1      40.537  26.382  26.637  1.00  0.00     0.200 A 
ATOM    109  F   UNL A   1      39.133  24.850  27.757  1.00  0.00    -0.200 F 
ATOM    110  F   UNL A   1      40.573  25.584  25.561  1.00  0.00    -0.200 F 
ENDBRANCH  80 100
BRANCH  83 111
ATOM    111  C   UNL A   1      39.631  33.973  36.904  1.00  0.00     0.064 A 
ATOM    112  C   UNL A   1      38.829  33.570  37.981  1.00  0.00     0.173 A 
ATOM    113  C   UNL A   1      40.293  35.205  37.009  1.00  0.00     0.173 A 
ATOM    114  F   UNL A   1      38.159  32.410  37.918  1.00  0.00    -0.203 F 
ATOM    115  C   UNL A   1      38.678  34.375  39.108  1.00  0.00     0.198 A 
ATOM    116  C   UNL A   1      40.165  35.995  38.150  1.00  0.00     0.198 A 
ATOM    117  F   UNL A   1      41.071  35.637  36.005  1.00  0.00    -0.203 F 
ATOM    118  F   UNL A   1      37.868  33.986  40.103  1.00  0.00    -0.200 F 
ATOM    119  C   UNL A   1      39.350  35.584  39.194  1.00  0.00     0.200 A 
ATOM    120  F   UNL A   1      40.828  37.156  38.234  1.00  0.00    -0.200 F 
ATOM    121  F   UNL A   1      39.210  36.355  40.280  1.00  0.00    -0.200 F 
ENDBRANCH  83 111
BRANCH  98 122
ATOM    122  C   UNL A   1      43.924  28.763  35.147  1.00  0.00     0.064 A 
ATOM    123  C   UNL A   1      45.208  29.320  35.079  1.00  0.00     0.173 A 
ATOM    124  C   UNL A   1      43.741  27.625  35.948  1.00  0.00     0.173 A 
ATOM    125  F   UNL A   1      45.435  30.399  34.315  1.00  0.00    -0.203 F 
ATOM    126  C   UNL A   1      46.270  28.751  35.776  1.00  0.00     0.198 A 
ATOM    127  C   UNL A   1      44.800  27.076  36.666  1.00  0.00     0.198 A 
ATOM    128  F   UNL A   1      42.529  27.058  36.050  1.00  0.00    -0.203 F 
ATOM    129  F   UNL A   1      47.498  29.280  35.670  1.00  0.00    -0.200 F 
ATOM    130  C   UNL A   1      46.064  27.637  36.577  1.00  0.00     0.200 A 
ATOM    131  F   UNL A   1      44.594  26.007  37.449  1.00  0.00    -0.200 F 
ATOM    132  F   UNL A   1      47.085  27.103  37.260  1.00  0.00    -0.200 F 
ENDBRANCH  98 122
ENDBRANCH  63  66
ENDBRANCH  53  56
ENDBRANCH  49  52
ENDBRANCH  46  49
ENDBRANCH  43  46
ENDBRANCH  40  43
ENDBRANCH   1  40
TORSDOF 18
ENDMDL
MODEL 3
REMARK VINA RESULT:     -12.1      6.748     12.443
REMARK SMILES NS(=O)(=O)c1ccc(/N=N/c2ccc(O)c(C(=O)NCCCCCCNC(=O)c3ccc(-c4c5nc(c(-c6c(F)c(F)c(F)c(F)c6F)c6ccc([nH]6)c(-c6c(F)c(F)c(F)c(F)c6F)c6nc(c(-c7c(F)c(F)c(F)c(F)c7F)c7ccc4[nH]7)C=C6)C=C5)cc3)c2)cc1
REMARK SMILES IDX 21 1 20 4 19 7 17 8 18 9 16 11 11 12 12 13 92 14 13 15 14 18
REMARK SMILES IDX 10 20 9 21 8 22 5 23 6 24 94 25 7 26 93 28 2 32 3 33 4 34
REMARK SMILES IDX 1 35 15 38 22 40 23 43 24 46 25 49 26 52 27 53 28 55 29 56
REMARK SMILES IDX 30 57 91 58 31 59 90 61 32 63 33 66 34 67 84 68 35 69 89 70
REMARK SMILES IDX 83 71 85 72 36 73 88 74 82 76 81 78 37 80 69 83 49 84 68 85
REMARK SMILES IDX 50 86 53 87 67 88 86 89 51 90 52 92 66 94 87 95 54 98 38 100
REMARK SMILES IDX 39 101 47 102 40 103 41 104 45 105 48 106 42 107 43 108
REMARK SMILES IDX 46 109 44 110 70 111 71 112 79 113 72 114 73 115 77 116
REMARK SMILES IDX 80 117 74 118 75 119 78 120 76 121 55 122 56 123 64 124
REMARK SMILES IDX 57 125 58 126 62 127 65 128 59 129 60 130 63 131 61 132
REMARK H PARENT 21 2 21 3 20 5 20 6 19 10 12 16 92 17 13 19 6 27 94 29 7 30
REMARK H PARENT 93 31 1 36 1 37 15 39 22 41 22 42 23 44 23 45 24 47 24 48
REMARK H PARENT 25 50 25 51 26 54 30 60 91 62 31 64 90 65 89 75 83 77 85 79
REMARK H PARENT 88 81 82 82 50 91 53 93 86 96 51 97 87 99
REMARK Flexibility Score: inf
ROOT
ATOM      1  C   UNL A   1      39.364  23.277  26.642  1.00  0.00    -0.036 C 
ATOM      2  H   UNL A   1      39.372  23.371  27.708  1.00  0.00     0.028 H 
ATOM      3  H   UNL A   1      40.159  23.791  26.140  1.00  0.00     0.028 H 
ENDROOT
BRANCH   1   4
ATOM      4  C   UNL A   1      38.083  23.927  26.130  1.00  0.00     0.018 C 
ATOM      5  H   UNL A   1      37.275  23.616  26.760  1.00  0.00     0.049 H 
ATOM      6  H   UNL A   1      38.247  24.985  26.153  1.00  0.00     0.049 H 
BRANCH   4   7
ATOM      7  N   UNL A   1      37.746  23.589  24.758  1.00  0.00    -0.352 N 
ATOM      8  C   UNL A   1      36.519  23.412  24.157  1.00  0.00     0.255 C 
ATOM      9  O   UNL A   1      36.473  23.036  22.985  1.00  0.00    -0.269 OA
ATOM     10  H   UNL A   1      38.518  23.467  24.161  1.00  0.00     0.163 HD
BRANCH   8  11
ATOM     11  C   UNL A   1      35.238  23.573  24.892  1.00  0.00     0.083 A 
ATOM     12  C   UNL A   1      33.248  24.885  25.410  1.00  0.00     0.087 A 
ATOM     13  C   UNL A   1      32.997  24.049  26.502  1.00  0.00    -0.031 A 
ATOM     14  C   UNL A   1      34.318  24.568  24.558  1.00  0.00    -0.018 A 
ATOM     15  C   UNL A   1      33.827  22.954  26.765  1.00  0.00    -0.017 A 
ATOM     16  H   UNL A   1      32.192  24.240  27.119  1.00  0.00     0.065 H 
ATOM     17  H   UNL A   1      34.427  25.081  23.669  1.00  0.00     0.066 H 
ATOM     18  C   UNL A   1      34.949  22.729  25.972  1.00  0.00     0.128 A 
ATOM     19  H   UNL A   1      33.608  22.315  27.546  1.00  0.00     0.066 H 
BRANCH  12  20
ATOM     20  N   UNL A   1      32.474  26.057  25.239  1.00  0.00    -0.151 NA
ATOM     21  N   UNL A   1      31.406  25.775  24.646  1.00  0.00    -0.151 NA
BRANCH  21  22
ATOM     22  C   UNL A   1      30.677  26.903  24.244  1.00  0.00     0.086 A 
ATOM     23  C   UNL A   1      29.255  29.041  23.119  1.00  0.00     0.082 A 
ATOM     24  C   UNL A   1      28.616  27.815  23.317  1.00  0.00    -0.040 A 
ATOM     25  C   UNL A   1      30.595  29.211  23.483  1.00  0.00    -0.040 A 
ATOM     26  C   UNL A   1      29.334  26.751  23.875  1.00  0.00    -0.033 A 
ATOM     27  H   UNL A   1      27.626  27.695  23.054  1.00  0.00     0.064 H 
ATOM     28  C   UNL A   1      31.299  28.143  24.044  1.00  0.00    -0.033 A 
ATOM     29  H   UNL A   1      31.060  30.120  23.337  1.00  0.00     0.064 H 
ATOM     30  H   UNL A   1      28.866  25.842  24.017  1.00  0.00     0.065 H 
ATOM     31  H   UNL A   1      32.288  28.268  24.314  1.00  0.00     0.065 H 
BRANCH  23  32
ATOM     32  S   UNL A   1      28.422  30.398  22.343  1.00  0.00     0.238 S 
ATOM     33  O   UNL A   1      27.335  30.806  23.200  1.00  0.00    -0.207 OA
ATOM     34  O   UNL A   1      28.248  30.078  20.947  1.00  0.00    -0.207 OA
BRANCH  32  35
ATOM     35  N   UNL A   1      29.528  31.662  22.398  1.00  0.00    -0.225 NA
ATOM     36  H   UNL A   1      29.572  32.033  23.347  1.00  0.00     0.137 HD
ATOM     37  H   UNL A   1      29.234  32.400  21.759  1.00  0.00     0.137 HD
ENDBRANCH  32  35
ENDBRANCH  23  32
ENDBRANCH  21  22
ENDBRANCH  12  20
BRANCH  18  38
ATOM     38  O   UNL A   1      35.738  21.663  26.318  1.00  0.00    -0.507 OA
ATOM     39  H   UNL A   1      36.565  21.536  25.896  1.00  0.00     0.293 HD
ENDBRANCH  18  38
ENDBRANCH   8  11
ENDBRANCH   4   7
ENDBRANCH   1   4
BRANCH   1  40
ATOM     40  C   UNL A   1      39.569  21.800  26.307  1.00  0.00    -0.052 C 
ATOM     41  H   UNL A   1      39.259  21.651  25.294  1.00  0.00     0.027 H 
ATOM     42  H   UNL A   1      38.996  21.264  27.034  1.00  0.00     0.027 H 
BRANCH  40  43
ATOM     43  C   UNL A   1      40.993  21.255  26.440  1.00  0.00    -0.052 C 
ATOM     44  H   UNL A   1      41.291  21.369  27.462  1.00  0.00     0.027 H 
ATOM     45  H   UNL A   1      41.578  21.816  25.742  1.00  0.00     0.027 H 
BRANCH  43  46
ATOM     46  C   UNL A   1      41.203  19.789  26.057  1.00  0.00    -0.036 C 
ATOM     47  H   UNL A   1      41.175  19.721  24.990  1.00  0.00     0.028 H 
ATOM     48  H   UNL A   1      40.423  19.247  26.550  1.00  0.00     0.028 H 
BRANCH  46  49
ATOM     49  C   UNL A   1      42.506  19.158  26.531  1.00  0.00     0.018 C 
ATOM     50  H   UNL A   1      42.272  18.316  27.149  1.00  0.00     0.049 H 
ATOM     51  H   UNL A   1      43.048  19.910  27.066  1.00  0.00     0.049 H 
BRANCH  49  52
ATOM     52  N   UNL A   1      43.352  18.708  25.439  1.00  0.00    -0.352 N 
ATOM     53  C   UNL A   1      44.215  19.434  24.654  1.00  0.00     0.251 C 
ATOM     54  H   UNL A   1      43.298  17.747  25.232  1.00  0.00     0.163 HD
ATOM     55  O   UNL A   1      44.759  18.916  23.684  1.00  0.00    -0.269 OA
BRANCH  53  56
ATOM     56  C   UNL A   1      44.471  20.858  24.964  1.00  0.00     0.039 A 
ATOM     57  C   UNL A   1      44.027  21.836  24.068  1.00  0.00    -0.049 A 
ATOM     58  C   UNL A   1      45.146  21.228  26.129  1.00  0.00    -0.049 A 
ATOM     59  C   UNL A   1      44.207  23.189  24.370  1.00  0.00    -0.053 A 
ATOM     60  H   UNL A   1      43.570  21.560  23.184  1.00  0.00     0.063 H 
ATOM     61  C   UNL A   1      45.262  22.575  26.463  1.00  0.00    -0.053 A 
ATOM     62  H   UNL A   1      45.558  20.507  26.740  1.00  0.00     0.063 H 
ATOM     63  C   UNL A   1      44.798  23.569  25.585  1.00  0.00    -0.014 A 
ATOM     64  H   UNL A   1      43.903  23.911  23.699  1.00  0.00     0.063 H 
ATOM     65  H   UNL A   1      45.691  22.844  27.361  1.00  0.00     0.063 H 
BRANCH  63  66
ATOM     66  C   UNL A   1      44.977  24.996  25.956  1.00  0.00     0.031 A 
ATOM     67  C   UNL A   1      46.336  25.627  25.840  1.00  0.00     0.074 A 
ATOM     68  C   UNL A   1      43.949  25.694  26.476  1.00  0.00     0.049 A 
ATOM     69  N   UNL A   1      46.744  26.802  26.248  1.00  0.00    -0.248 NA
ATOM     70  C   UNL A   1      47.386  24.813  25.210  1.00  0.00    -0.034 C 
ATOM     71  C   UNL A   1      42.590  25.187  26.662  1.00  0.00    -0.036 A 
ATOM     72  N   UNL A   1      43.895  26.978  26.960  1.00  0.00    -0.354 N 
ATOM     73  C   UNL A   1      48.098  26.856  25.947  1.00  0.00     0.074 A 
ATOM     74  C   UNL A   1      48.455  25.579  25.368  1.00  0.00    -0.034 C 
ATOM     75  H   UNL A   1      47.311  23.885  24.762  1.00  0.00     0.065 H 
ATOM     76  C   UNL A   1      41.833  26.153  27.209  1.00  0.00    -0.036 A 
ATOM     77  H   UNL A   1      42.265  24.240  26.415  1.00  0.00     0.065 H 
ATOM     78  C   UNL A   1      42.661  27.330  27.451  1.00  0.00     0.049 A 
ATOM     79  H   UNL A   1      44.668  27.589  26.956  1.00  0.00     0.167 HD
ATOM     80  C   UNL A   1      48.962  27.884  26.120  1.00  0.00     0.037 A 
ATOM     81  H   UNL A   1      49.416  25.302  25.111  1.00  0.00     0.065 H 
ATOM     82  H   UNL A   1      40.826  26.074  27.423  1.00  0.00     0.065 H 
ATOM     83  C   UNL A   1      42.251  28.469  28.043  1.00  0.00     0.037 A 
ATOM     84  C   UNL A   1      48.595  29.164  26.664  1.00  0.00     0.049 A 
ATOM     85  C   UNL A   1      43.230  29.596  28.230  1.00  0.00     0.074 A 
ATOM     86  C   UNL A   1      49.384  30.288  26.838  1.00  0.00    -0.036 A 
ATOM     87  N   UNL A   1      47.326  29.492  27.118  1.00  0.00    -0.354 N 
ATOM     88  N   UNL A   1      44.500  29.647  27.911  1.00  0.00    -0.248 NA
ATOM     89  C   UNL A   1      42.722  30.823  28.860  1.00  0.00    -0.034 C 
ATOM     90  C   UNL A   1      48.604  31.281  27.438  1.00  0.00    -0.036 A 
ATOM     91  H   UNL A   1      50.378  30.376  26.570  1.00  0.00     0.065 H 
ATOM     92  C   UNL A   1      47.316  30.795  27.588  1.00  0.00     0.049 A 
ATOM     93  H   UNL A   1      46.548  28.889  27.108  1.00  0.00     0.167 HD
ATOM     94  C   UNL A   1      44.930  30.922  28.257  1.00  0.00     0.074 A 
ATOM     95  C   UNL A   1      43.787  31.611  28.818  1.00  0.00    -0.034 C 
ATOM     96  H   UNL A   1      41.780  31.020  29.235  1.00  0.00     0.065 H 
ATOM     97  H   UNL A   1      48.933  32.217  27.721  1.00  0.00     0.065 H 
ATOM     98  C   UNL A   1      46.161  31.472  28.120  1.00  0.00     0.037 A 
ATOM     99  H   UNL A   1      43.800  32.590  29.143  1.00  0.00     0.065 H 
BRANCH  80 100
ATOM    100  C   UNL A   1      50.393  27.666  25.721  1.00  0.00     0.064 A 
ATOM    101  C   UNL A   1      50.820  27.819  24.393  1.00  0.00     0.173 A 
ATOM    102  C   UNL A   1      51.358  27.331  26.684  1.00  0.00     0.173 A 
ATOM    103  F   UNL A   1      49.937  28.126  23.432  1.00  0.00    -0.203 F 
ATOM    104  C   UNL A   1      52.151  27.614  24.040  1.00  0.00     0.198 A 
ATOM    105  C   UNL A   1      52.693  27.160  26.333  1.00  0.00     0.198 A 
ATOM    106  F   UNL A   1      51.005  27.180  27.970  1.00  0.00    -0.203 F 
ATOM    107  F   UNL A   1      52.524  27.713  22.756  1.00  0.00    -0.200 F 
ATOM    108  C   UNL A   1      53.088  27.292  25.010  1.00  0.00     0.200 A 
ATOM    109  F   UNL A   1      53.600  26.863  27.274  1.00  0.00    -0.200 F 
ATOM    110  F   UNL A   1      54.370  27.102  24.669  1.00  0.00    -0.200 F 
ENDBRANCH  80 100
BRANCH  83 111
ATOM    111  C   UNL A   1      40.839  28.606  28.489  1.00  0.00     0.064 A 
ATOM    112  C   UNL A   1      40.469  28.305  29.808  1.00  0.00     0.173 A 
ATOM    113  C   UNL A   1      39.833  29.033  27.610  1.00  0.00     0.173 A 
ATOM    114  F   UNL A   1      41.392  27.871  30.679  1.00  0.00    -0.203 F 
ATOM    115  C   UNL A   1      39.144  28.407  30.225  1.00  0.00     0.198 A 
ATOM    116  C   UNL A   1      38.513  29.164  28.038  1.00  0.00     0.198 A 
ATOM    117  F   UNL A   1      40.136  29.332  26.338  1.00  0.00    -0.203 F 
ATOM    118  F   UNL A   1      38.811  28.068  31.479  1.00  0.00    -0.200 F 
ATOM    119  C   UNL A   1      38.168  28.842  29.342  1.00  0.00     0.200 A 
ATOM    120  F   UNL A   1      37.577  29.598  27.184  1.00  0.00    -0.200 F 
ATOM    121  F   UNL A   1      36.895  28.946  29.744  1.00  0.00    -0.200 F 
ENDBRANCH  83 111
BRANCH  98 122
ATOM    122  C   UNL A   1      46.331  32.907  28.526  1.00  0.00     0.064 A 
ATOM    123  C   UNL A   1      46.105  33.961  27.630  1.00  0.00     0.173 A 
ATOM    124  C   UNL A   1      46.654  33.228  29.853  1.00  0.00     0.173 A 
ATOM    125  F   UNL A   1      45.808  33.703  26.347  1.00  0.00    -0.203 F 
ATOM    126  C   UNL A   1      46.209  35.285  28.046  1.00  0.00     0.198 A 
ATOM    127  C   UNL A   1      46.730  34.553  30.272  1.00  0.00     0.198 A 
ATOM    128  F   UNL A   1      46.875  32.254  30.750  1.00  0.00    -0.203 F 
ATOM    129  F   UNL A   1      46.021  36.278  27.165  1.00  0.00    -0.200 F 
ATOM    130  C   UNL A   1      46.511  35.581  29.367  1.00  0.00     0.200 A 
ATOM    131  F   UNL A   1      47.008  34.835  31.552  1.00  0.00    -0.200 F 
ATOM    132  F   UNL A   1      46.593  36.857  29.768  1.00  0.00    -0.200 F 
ENDBRANCH  98 122
ENDBRANCH  63  66
ENDBRANCH  53  56
ENDBRANCH  49  52
ENDBRANCH  46  49
ENDBRANCH  43  46
ENDBRANCH  40  43
ENDBRANCH   1  40
TORSDOF 18
ENDMDL
MODEL 4
REMARK VINA RESULT:     -12.1      6.282     11.093
REMARK SMILES NS(=O)(=O)c1ccc(/N=N/c2ccc(O)c(C(=O)NCCCCCCNC(=O)c3ccc(-c4c5nc(c(-c6c(F)c(F)c(F)c(F)c6F)c6ccc([nH]6)c(-c6c(F)c(F)c(F)c(F)c6F)c6nc(c(-c7c(F)c(F)c(F)c(F)c7F)c7ccc4[nH]7)C=C6)C=C5)cc3)c2)cc1
REMARK SMILES IDX 21 1 20 4 19 7 17 8 18 9 16 11 11 12 12 13 92 14 13 15 14 18
REMARK SMILES IDX 10 20 9 21 8 22 5 23 6 24 94 25 7 26 93 28 2 32 3 33 4 34
REMARK SMILES IDX 1 35 15 38 22 40 23 43 24 46 25 49 26 52 27 53 28 55 29 56
REMARK SMILES IDX 30 57 91 58 31 59 90 61 32 63 33 66 34 67 84 68 35 69 89 70
REMARK SMILES IDX 83 71 85 72 36 73 88 74 82 76 81 78 37 80 69 83 49 84 68 85
REMARK SMILES IDX 50 86 53 87 67 88 86 89 51 90 52 92 66 94 87 95 54 98 38 100
REMARK SMILES IDX 39 101 47 102 40 103 41 104 45 105 48 106 42 107 43 108
REMARK SMILES IDX 46 109 44 110 70 111 71 112 79 113 72 114 73 115 77 116
REMARK SMILES IDX 80 117 74 118 75 119 78 120 76 121 55 122 56 123 64 124
REMARK SMILES IDX 57 125 58 126 62 127 65 128 59 129 60 130 63 131 61 132
REMARK H PARENT 21 2 21 3 20 5 20 6 19 10 12 16 92 17 13 19 6 27 94 29 7 30
REMARK H PARENT 93 31 1 36 1 37 15 39 22 41 22 42 23 44 23 45 24 47 24 48
REMARK H PARENT 25 50 25 51 26 54 30 60 91 62 31 64 90 65 89 75 83 77 85 79
REMARK H PARENT 88 81 82 82 50 91 53 93 86 96 51 97 87 99
REMARK Flexibility Score: inf
ROOT
ATOM      1  C   UNL A   1      36.991  23.266  24.772  1.00  0.00    -0.036 C 
ATOM      2  H   UNL A   1      37.697  23.989  24.420  1.00  0.00     0.028 H 
ATOM      3  H   UNL A   1      36.317  22.897  24.026  1.00  0.00     0.028 H 
ENDROOT
BRANCH   1   4
ATOM      4  C   UNL A   1      36.105  23.952  25.807  1.00  0.00     0.018 C 
ATOM      5  H   UNL A   1      36.693  24.687  26.316  1.00  0.00     0.049 H 
ATOM      6  H   UNL A   1      35.281  24.376  25.271  1.00  0.00     0.049 H 
BRANCH   4   7
ATOM      7  N   UNL A   1      35.538  23.055  26.799  1.00  0.00    -0.352 N 
ATOM      8  C   UNL A   1      34.509  22.145  26.697  1.00  0.00     0.255 C 
ATOM      9  O   UNL A   1      34.133  21.547  27.706  1.00  0.00    -0.269 OA
ATOM     10  H   UNL A   1      35.957  23.104  27.688  1.00  0.00     0.163 HD
BRANCH   8  11
ATOM     11  C   UNL A   1      33.768  21.916  25.430  1.00  0.00     0.083 A 
ATOM     12  C   UNL A   1      32.282  22.725  23.674  1.00  0.00     0.087 A 
ATOM     13  C   UNL A   1      32.107  21.410  23.232  1.00  0.00    -0.031 A 
ATOM     14  C   UNL A   1      33.196  22.967  24.711  1.00  0.00    -0.018 A 
ATOM     15  C   UNL A   1      32.791  20.357  23.849  1.00  0.00    -0.017 A 
ATOM     16  H   UNL A   1      31.470  21.215  22.445  1.00  0.00     0.065 H 
ATOM     17  H   UNL A   1      33.449  23.939  24.947  1.00  0.00     0.066 H 
ATOM     18  C   UNL A   1      33.604  20.610  24.951  1.00  0.00     0.128 A 
ATOM     19  H   UNL A   1      32.693  19.395  23.487  1.00  0.00     0.066 H 
BRANCH  12  20
ATOM     20  N   UNL A   1      31.484  23.756  23.121  1.00  0.00    -0.151 NA
ATOM     21  N   UNL A   1      31.859  24.865  23.568  1.00  0.00    -0.151 NA
BRANCH  21  22
ATOM     22  C   UNL A   1      30.992  25.918  23.243  1.00  0.00     0.086 A 
ATOM     23  C   UNL A   1      29.416  28.202  22.843  1.00  0.00     0.082 A 
ATOM     24  C   UNL A   1      30.703  28.147  22.303  1.00  0.00    -0.040 A 
ATOM     25  C   UNL A   1      28.907  27.125  23.576  1.00  0.00    -0.040 A 
ATOM     26  C   UNL A   1      31.485  27.006  22.510  1.00  0.00    -0.033 A 
ATOM     27  H   UNL A   1      31.072  28.940  21.756  1.00  0.00     0.064 H 
ATOM     28  C   UNL A   1      29.696  25.988  23.772  1.00  0.00    -0.033 A 
ATOM     29  H   UNL A   1      27.954  27.169  23.970  1.00  0.00     0.064 H 
ATOM     30  H   UNL A   1      32.439  26.966  22.117  1.00  0.00     0.065 H 
ATOM     31  H   UNL A   1      29.320  25.192  24.311  1.00  0.00     0.065 H 
BRANCH  23  32
ATOM     32  S   UNL A   1      28.411  29.651  22.682  1.00  0.00     0.238 S 
ATOM     33  O   UNL A   1      28.265  29.942  21.276  1.00  0.00    -0.207 OA
ATOM     34  O   UNL A   1      28.869  30.624  23.644  1.00  0.00    -0.207 OA
BRANCH  32  35
ATOM     35  N   UNL A   1      26.885  29.168  23.196  1.00  0.00    -0.225 NA
ATOM     36  H   UNL A   1      26.935  28.218  23.563  1.00  0.00     0.137 HD
ATOM     37  H   UNL A   1      26.237  29.195  22.409  1.00  0.00     0.137 HD
ENDBRANCH  32  35
ENDBRANCH  23  32
ENDBRANCH  21  22
ENDBRANCH  12  20
BRANCH  18  38
ATOM     38  O   UNL A   1      34.206  19.522  25.528  1.00  0.00    -0.507 OA
ATOM     39  H   UNL A   1      34.466  18.795  24.998  1.00  0.00     0.293 HD
ENDBRANCH  18  38
ENDBRANCH   8  11
ENDBRANCH   4   7
ENDBRANCH   1   4
BRANCH   1  40
ATOM     40  C   UNL A   1      37.777  22.042  25.241  1.00  0.00    -0.052 C 
ATOM     41  H   UNL A   1      37.651  21.962  26.300  1.00  0.00     0.027 H 
ATOM     42  H   UNL A   1      38.783  22.214  24.922  1.00  0.00     0.027 H 
BRANCH  40  43
ATOM     43  C   UNL A   1      37.387  20.696  24.625  1.00  0.00    -0.052 C 
ATOM     44  H   UNL A   1      37.401  20.809  23.561  1.00  0.00     0.027 H 
ATOM     45  H   UNL A   1      36.426  20.464  25.035  1.00  0.00     0.027 H 
BRANCH  43  46
ATOM     46  C   UNL A   1      38.275  19.501  24.975  1.00  0.00    -0.036 C 
ATOM     47  H   UNL A   1      38.793  19.206  24.087  1.00  0.00     0.028 H 
ATOM     48  H   UNL A   1      37.615  18.754  25.364  1.00  0.00     0.028 H 
BRANCH  46  49
ATOM     49  C   UNL A   1      39.313  19.742  26.064  1.00  0.00     0.018 C 
ATOM     50  H   UNL A   1      38.862  19.547  27.014  1.00  0.00     0.049 H 
ATOM     51  H   UNL A   1      39.639  20.758  25.975  1.00  0.00     0.049 H 
BRANCH  49  52
ATOM     52  N   UNL A   1      40.488  18.897  25.928  1.00  0.00    -0.352 N 
ATOM     53  C   UNL A   1      41.816  19.242  25.990  1.00  0.00     0.251 C 
ATOM     54  H   UNL A   1      40.305  17.943  25.771  1.00  0.00     0.163 HD
ATOM     55  O   UNL A   1      42.685  18.419  25.723  1.00  0.00    -0.269 OA
BRANCH  53  56
ATOM     56  C   UNL A   1      42.202  20.624  26.353  1.00  0.00     0.039 A 
ATOM     57  C   UNL A   1      42.436  20.931  27.697  1.00  0.00    -0.049 A 
ATOM     58  C   UNL A   1      42.331  21.612  25.374  1.00  0.00    -0.049 A 
ATOM     59  C   UNL A   1      42.858  22.214  28.053  1.00  0.00    -0.053 A 
ATOM     60  H   UNL A   1      42.295  20.212  28.425  1.00  0.00     0.063 H 
ATOM     61  C   UNL A   1      42.819  22.869  25.721  1.00  0.00    -0.053 A 
ATOM     62  H   UNL A   1      42.065  21.412  24.398  1.00  0.00     0.063 H 
ATOM     63  C   UNL A   1      43.083  23.185  27.064  1.00  0.00    -0.014 A 
ATOM     64  H   UNL A   1      43.006  22.450  29.047  1.00  0.00     0.063 H 
ATOM     65  H   UNL A   1      42.988  23.573  24.987  1.00  0.00     0.063 H 
BRANCH  63  66
ATOM     66  C   UNL A   1      43.563  24.550  27.401  1.00  0.00     0.031 A 
ATOM     67  C   UNL A   1      42.594  25.563  27.943  1.00  0.00     0.074 A 
ATOM     68  C   UNL A   1      44.836  24.903  27.140  1.00  0.00     0.049 A 
ATOM     69  N   UNL A   1      42.766  26.843  28.159  1.00  0.00    -0.248 NA
ATOM     70  C   UNL A   1      41.240  25.078  28.251  1.00  0.00    -0.034 C 
ATOM     71  C   UNL A   1      45.864  24.019  26.593  1.00  0.00    -0.036 A 
ATOM     72  N   UNL A   1      45.477  26.109  27.286  1.00  0.00    -0.354 N 
ATOM     73  C   UNL A   1      41.538  27.317  28.603  1.00  0.00     0.074 A 
ATOM     74  C   UNL A   1      40.618  26.200  28.578  1.00  0.00    -0.034 C 
ATOM     75  H   UNL A   1      40.871  24.114  28.220  1.00  0.00     0.065 H 
ATOM     76  C   UNL A   1      47.010  24.708  26.460  1.00  0.00    -0.036 A 
ATOM     77  H   UNL A   1      45.732  23.026  26.347  1.00  0.00     0.065 H 
ATOM     78  C   UNL A   1      46.786  26.090  26.871  1.00  0.00     0.049 A 
ATOM     79  H   UNL A   1      45.039  26.911  27.653  1.00  0.00     0.167 HD
ATOM     80  C   UNL A   1      41.212  28.566  29.012  1.00  0.00     0.037 A 
ATOM     81  H   UNL A   1      39.610  26.269  28.789  1.00  0.00     0.065 H 
ATOM     82  H   UNL A   1      47.905  24.320  26.121  1.00  0.00     0.065 H 
ATOM     83  C   UNL A   1      47.697  27.082  26.815  1.00  0.00     0.037 A 
ATOM     84  C   UNL A   1      42.139  29.664  29.067  1.00  0.00     0.049 A 
ATOM     85  C   UNL A   1      47.311  28.464  27.270  1.00  0.00     0.074 A 
ATOM     86  C   UNL A   1      41.921  30.958  29.510  1.00  0.00    -0.036 A 
ATOM     87  N   UNL A   1      43.466  29.596  28.670  1.00  0.00    -0.354 N 
ATOM     88  N   UNL A   1      46.157  28.892  27.719  1.00  0.00    -0.248 NA
ATOM     89  C   UNL A   1      48.351  29.500  27.209  1.00  0.00    -0.034 C 
ATOM     90  C   UNL A   1      43.104  31.682  29.340  1.00  0.00    -0.036 A 
ATOM     91  H   UNL A   1      41.037  31.322  29.900  1.00  0.00     0.065 H 
ATOM     92  C   UNL A   1      44.074  30.829  28.842  1.00  0.00     0.049 A 
ATOM     93  H   UNL A   1      43.911  28.791  28.318  1.00  0.00     0.167 HD
ATOM     94  C   UNL A   1      46.343  30.231  28.037  1.00  0.00     0.074 A 
ATOM     95  C   UNL A   1      47.721  30.547  27.723  1.00  0.00    -0.034 C 
ATOM     96  H   UNL A   1      49.320  29.430  26.860  1.00  0.00     0.065 H 
ATOM     97  H   UNL A   1      43.232  32.685  29.550  1.00  0.00     0.065 H 
ATOM     98  C   UNL A   1      45.454  31.117  28.547  1.00  0.00     0.037 A 
ATOM     99  H   UNL A   1      48.157  31.470  27.879  1.00  0.00     0.065 H 
BRANCH  80 100
ATOM    100  C   UNL A   1      39.791  28.814  29.428  1.00  0.00     0.064 A 
ATOM    101  C   UNL A   1      39.356  28.579  30.742  1.00  0.00     0.173 A 
ATOM    102  C   UNL A   1      38.859  29.323  28.511  1.00  0.00     0.173 A 
ATOM    103  F   UNL A   1      40.203  28.082  31.654  1.00  0.00    -0.203 F 
ATOM    104  C   UNL A   1      38.034  28.816  31.112  1.00  0.00     0.198 A 
ATOM    105  C   UNL A   1      37.548  29.589  28.893  1.00  0.00     0.198 A 
ATOM    106  F   UNL A   1      39.224  29.572  27.244  1.00  0.00    -0.203 F 
ATOM    107  F   UNL A   1      37.630  28.533  32.358  1.00  0.00    -0.200 F 
ATOM    108  C   UNL A   1      37.133  29.327  30.190  1.00  0.00     0.200 A 
ATOM    109  F   UNL A   1      36.682  30.097  28.005  1.00  0.00    -0.200 F 
ATOM    110  F   UNL A   1      35.864  29.560  30.550  1.00  0.00    -0.200 F 
ENDBRANCH  80 100
BRANCH  83 111
ATOM    111  C   UNL A   1      49.072  26.800  26.323  1.00  0.00     0.064 A 
ATOM    112  C   UNL A   1      49.423  27.050  24.988  1.00  0.00     0.173 A 
ATOM    113  C   UNL A   1      50.057  26.271  27.169  1.00  0.00     0.173 A 
ATOM    114  F   UNL A   1      48.508  27.534  24.136  1.00  0.00    -0.203 F 
ATOM    115  C   UNL A   1      50.701  26.764  24.514  1.00  0.00     0.198 A 
ATOM    116  C   UNL A   1      51.344  26.014  26.701  1.00  0.00     0.198 A 
ATOM    117  F   UNL A   1      49.770  26.013  28.454  1.00  0.00    -0.203 F 
ATOM    118  F   UNL A   1      50.996  26.970  23.223  1.00  0.00    -0.200 F 
ATOM    119  C   UNL A   1      51.663  26.252  25.372  1.00  0.00     0.200 A 
ATOM    120  F   UNL A   1      52.273  25.534  27.537  1.00  0.00    -0.200 F 
ATOM    121  F   UNL A   1      52.893  25.983  24.918  1.00  0.00    -0.200 F 
ENDBRANCH  83 111
BRANCH  98 122
ATOM    122  C   UNL A   1      45.949  32.500  28.855  1.00  0.00     0.064 A 
ATOM    123  C   UNL A   1      46.561  32.812  30.077  1.00  0.00     0.173 A 
ATOM    124  C   UNL A   1      45.873  33.507  27.880  1.00  0.00     0.173 A 
ATOM    125  F   UNL A   1      46.643  31.886  31.045  1.00  0.00    -0.203 F 
ATOM    126  C   UNL A   1      47.067  34.086  30.317  1.00  0.00     0.198 A 
ATOM    127  C   UNL A   1      46.405  34.772  28.113  1.00  0.00     0.198 A 
ATOM    128  F   UNL A   1      45.301  33.257  26.692  1.00  0.00    -0.203 F 
ATOM    129  F   UNL A   1      47.618  34.373  31.504  1.00  0.00    -0.200 F 
ATOM    130  C   UNL A   1      46.999  35.061  29.332  1.00  0.00     0.200 A 
ATOM    131  F   UNL A   1      46.349  35.708  27.156  1.00  0.00    -0.200 F 
ATOM    132  F   UNL A   1      47.502  36.282  29.561  1.00  0.00    -0.200 F 
ENDBRANCH  98 122
ENDBRANCH  63  66
ENDBRANCH  53  56
ENDBRANCH  49  52
ENDBRANCH  46  49
ENDBRANCH  43  46
ENDBRANCH  40  43
ENDBRANCH   1  40
TORSDOF 18
ENDMDL
MODEL 5
REMARK VINA RESULT:     -12.1      4.103      6.972
REMARK SMILES NS(=O)(=O)c1ccc(/N=N/c2ccc(O)c(C(=O)NCCCCCCNC(=O)c3ccc(-c4c5nc(c(-c6c(F)c(F)c(F)c(F)c6F)c6ccc([nH]6)c(-c6c(F)c(F)c(F)c(F)c6F)c6nc(c(-c7c(F)c(F)c(F)c(F)c7F)c7ccc4[nH]7)C=C6)C=C5)cc3)c2)cc1
REMARK SMILES IDX 21 1 20 4 19 7 17 8 18 9 16 11 11 12 12 13 92 14 13 15 14 18
REMARK SMILES IDX 10 20 9 21 8 22 5 23 6 24 94 25 7 26 93 28 2 32 3 33 4 34
REMARK SMILES IDX 1 35 15 38 22 40 23 43 24 46 25 49 26 52 27 53 28 55 29 56
REMARK SMILES IDX 30 57 91 58 31 59 90 61 32 63 33 66 34 67 84 68 35 69 89 70
REMARK SMILES IDX 83 71 85 72 36 73 88 74 82 76 81 78 37 80 69 83 49 84 68 85
REMARK SMILES IDX 50 86 53 87 67 88 86 89 51 90 52 92 66 94 87 95 54 98 38 100
REMARK SMILES IDX 39 101 47 102 40 103 41 104 45 105 48 106 42 107 43 108
REMARK SMILES IDX 46 109 44 110 70 111 71 112 79 113 72 114 73 115 77 116
REMARK SMILES IDX 80 117 74 118 75 119 78 120 76 121 55 122 56 123 64 124
REMARK SMILES IDX 57 125 58 126 62 127 65 128 59 129 60 130 63 131 61 132
REMARK H PARENT 21 2 21 3 20 5 20 6 19 10 12 16 92 17 13 19 6 27 94 29 7 30
REMARK H PARENT 93 31 1 36 1 37 15 39 22 41 22 42 23 44 23 45 24 47 24 48
REMARK H PARENT 25 50 25 51 26 54 30 60 91 62 31 64 90 65 89 75 83 77 85 79
REMARK H PARENT 88 81 82 82 50 91 53 93 86 96 51 97 87 99
REMARK Flexibility Score: inf
ROOT
ATOM      1  C   UNL A   1      35.415  24.284  25.726  1.00  0.00    -0.036 C 
ATOM      2  H   UNL A   1      35.614  23.989  24.717  1.00  0.00     0.028 H 
ATOM      3  H   UNL A   1      36.138  24.952  26.148  1.00  0.00     0.028 H 
ENDROOT
BRANCH   1   4
ATOM      4  C   UNL A   1      35.471  23.032  26.595  1.00  0.00     0.018 C 
ATOM      5  H   UNL A   1      35.830  23.313  27.563  1.00  0.00     0.049 H 
ATOM      6  H   UNL A   1      34.478  22.632  26.617  1.00  0.00     0.049 H 
BRANCH   4   7
ATOM      7  N   UNL A   1      36.330  21.982  26.077  1.00  0.00    -0.352 N 
ATOM      8  C   UNL A   1      36.049  20.934  25.229  1.00  0.00     0.255 C 
ATOM      9  O   UNL A   1      36.925  20.101  24.991  1.00  0.00    -0.269 OA
ATOM     10  H   UNL A   1      37.266  22.027  26.380  1.00  0.00     0.163 HD
BRANCH   8  11
ATOM     11  C   UNL A   1      34.698  20.713  24.653  1.00  0.00     0.083 A 
ATOM     12  C   UNL A   1      32.576  21.598  23.840  1.00  0.00     0.087 A 
ATOM     13  C   UNL A   1      32.037  20.309  23.879  1.00  0.00    -0.031 A 
ATOM     14  C   UNL A   1      33.938  21.763  24.135  1.00  0.00    -0.018 A 
ATOM     15  C   UNL A   1      32.829  19.219  24.254  1.00  0.00    -0.017 A 
ATOM     16  H   UNL A   1      31.047  20.160  23.628  1.00  0.00     0.065 H 
ATOM     17  H   UNL A   1      34.386  22.677  23.966  1.00  0.00     0.066 H 
ATOM     18  C   UNL A   1      34.147  19.425  24.653  1.00  0.00     0.128 A 
ATOM     19  H   UNL A   1      32.437  18.263  24.235  1.00  0.00     0.066 H 
BRANCH  12  20
ATOM     20  N   UNL A   1      31.724  22.700  23.583  1.00  0.00    -0.151 NA
ATOM     21  N   UNL A   1      32.353  23.579  22.947  1.00  0.00    -0.151 NA
BRANCH  21  22
ATOM     22  C   UNL A   1      31.655  24.791  22.836  1.00  0.00     0.086 A 
ATOM     23  C   UNL A   1      30.528  27.356  22.780  1.00  0.00     0.082 A 
ATOM     24  C   UNL A   1      31.514  27.015  21.852  1.00  0.00    -0.040 A 
ATOM     25  C   UNL A   1      30.096  26.427  23.732  1.00  0.00    -0.040 A 
ATOM     26  C   UNL A   1      32.075  25.734  21.888  1.00  0.00    -0.033 A 
ATOM     27  H   UNL A   1      31.825  27.700  21.147  1.00  0.00     0.064 H 
ATOM     28  C   UNL A   1      30.660  25.149  23.755  1.00  0.00    -0.033 A 
ATOM     29  H   UNL A   1      29.365  26.684  24.414  1.00  0.00     0.064 H 
ATOM     30  H   UNL A   1      32.808  25.481  21.207  1.00  0.00     0.065 H 
ATOM     31  H   UNL A   1      30.341  24.462  24.457  1.00  0.00     0.065 H 
BRANCH  23  32
ATOM     32  S   UNL A   1      29.840  28.987  22.835  1.00  0.00     0.238 S 
ATOM     33  O   UNL A   1      30.321  29.638  24.030  1.00  0.00    -0.207 OA
ATOM     34  O   UNL A   1      28.440  28.895  22.497  1.00  0.00    -0.207 OA
BRANCH  32  35
ATOM     35  N   UNL A   1      30.575  29.801  21.561  1.00  0.00    -0.225 NA
ATOM     36  H   UNL A   1      30.006  29.701  20.720  1.00  0.00     0.137 HD
ATOM     37  H   UNL A   1      31.501  29.407  21.394  1.00  0.00     0.137 HD
ENDBRANCH  32  35
ENDBRANCH  23  32
ENDBRANCH  21  22
ENDBRANCH  12  20
BRANCH  18  38
ATOM     38  O   UNL A   1      34.846  18.315  25.049  1.00  0.00    -0.507 OA
ATOM     39  H   UNL A   1      34.636  17.476  24.688  1.00  0.00     0.293 HD
ENDBRANCH  18  38
ENDBRANCH   8  11
ENDBRANCH   4   7
ENDBRANCH   1   4
BRANCH   1  40
ATOM     40  C   UNL A   1      34.100  25.066  25.727  1.00  0.00    -0.052 C 
ATOM     41  H   UNL A   1      33.866  25.304  26.744  1.00  0.00     0.027 H 
ATOM     42  H   UNL A   1      33.393  24.427  25.243  1.00  0.00     0.027 H 
BRANCH  40  43
ATOM     43  C   UNL A   1      34.075  26.371  24.928  1.00  0.00    -0.052 C 
ATOM     44  H   UNL A   1      33.583  26.174  23.998  1.00  0.00     0.027 H 
ATOM     45  H   UNL A   1      35.099  26.666  24.835  1.00  0.00     0.027 H 
BRANCH  43  46
ATOM     46  C   UNL A   1      33.369  27.559  25.583  1.00  0.00    -0.036 C 
ATOM     47  H   UNL A   1      32.371  27.257  25.822  1.00  0.00     0.028 H 
ATOM     48  H   UNL A   1      33.424  28.357  24.872  1.00  0.00     0.028 H 
BRANCH  46  49
ATOM     49  C   UNL A   1      34.012  28.095  26.856  1.00  0.00     0.018 C 
ATOM     50  H   UNL A   1      35.072  27.967  26.782  1.00  0.00     0.049 H 
ATOM     51  H   UNL A   1      33.598  27.548  27.677  1.00  0.00     0.049 H 
BRANCH  49  52
ATOM     52  N   UNL A   1      33.732  29.502  27.087  1.00  0.00    -0.352 N 
ATOM     53  C   UNL A   1      34.495  30.443  27.734  1.00  0.00     0.251 C 
ATOM     54  H   UNL A   1      32.874  29.826  26.729  1.00  0.00     0.163 HD
ATOM     55  O   UNL A   1      34.047  31.564  27.955  1.00  0.00    -0.269 OA
BRANCH  53  56
ATOM     56  C   UNL A   1      35.859  30.096  28.194  1.00  0.00     0.039 A 
ATOM     57  C   UNL A   1      36.036  29.641  29.504  1.00  0.00    -0.049 A 
ATOM     58  C   UNL A   1      36.957  30.222  27.339  1.00  0.00    -0.049 A 
ATOM     59  C   UNL A   1      37.306  29.253  29.939  1.00  0.00    -0.053 A 
ATOM     60  H   UNL A   1      35.232  29.593  30.149  1.00  0.00     0.063 H 
ATOM     61  C   UNL A   1      38.208  29.769  27.750  1.00  0.00    -0.053 A 
ATOM     62  H   UNL A   1      36.841  30.649  26.408  1.00  0.00     0.063 H 
ATOM     63  C   UNL A   1      38.396  29.285  29.055  1.00  0.00    -0.014 A 
ATOM     64  H   UNL A   1      37.444  28.941  30.913  1.00  0.00     0.063 H 
ATOM     65  H   UNL A   1      39.001  29.789  27.091  1.00  0.00     0.063 H 
BRANCH  63  66
ATOM     66  C   UNL A   1      39.755  28.850  29.471  1.00  0.00     0.031 A 
ATOM     67  C   UNL A   1      40.582  29.744  30.351  1.00  0.00     0.074 A 
ATOM     68  C   UNL A   1      40.274  27.704  28.990  1.00  0.00     0.049 A 
ATOM     69  N   UNL A   1      41.837  29.629  30.706  1.00  0.00    -0.248 NA
ATOM     70  C   UNL A   1      39.917  30.946  30.876  1.00  0.00    -0.034 C 
ATOM     71  C   UNL A   1      39.582  26.764  28.110  1.00  0.00    -0.036 A 
ATOM     72  N   UNL A   1      41.517  27.145  29.164  1.00  0.00    -0.354 N 
ATOM     73  C   UNL A   1      42.116  30.754  31.471  1.00  0.00     0.074 A 
ATOM     74  C   UNL A   1      40.916  31.563  31.489  1.00  0.00    -0.034 C 
ATOM     75  H   UNL A   1      38.929  31.235  30.788  1.00  0.00     0.065 H 
ATOM     76  C   UNL A   1      40.404  25.738  27.829  1.00  0.00    -0.036 A 
ATOM     77  H   UNL A   1      38.618  26.870  27.760  1.00  0.00     0.065 H 
ATOM     78  C   UNL A   1      41.693  25.970  28.474  1.00  0.00     0.049 A 
ATOM     79  H   UNL A   1      42.216  27.548  29.729  1.00  0.00     0.167 HD
ATOM     80  C   UNL A   1      43.262  31.074  32.116  1.00  0.00     0.037 A 
ATOM     81  H   UNL A   1      40.848  32.497  31.923  1.00  0.00     0.065 H 
ATOM     82  H   UNL A   1      40.161  24.919  27.251  1.00  0.00     0.065 H 
ATOM     83  C   UNL A   1      42.778  25.179  28.362  1.00  0.00     0.037 A 
ATOM     84  C   UNL A   1      44.441  30.250  32.124  1.00  0.00     0.049 A 
ATOM     85  C   UNL A   1      44.044  25.557  29.084  1.00  0.00     0.074 A 
ATOM     86  C   UNL A   1      45.639  30.461  32.786  1.00  0.00    -0.036 A 
ATOM     87  N   UNL A   1      44.568  29.049  31.441  1.00  0.00    -0.354 N 
ATOM     88  N   UNL A   1      44.284  26.606  29.832  1.00  0.00    -0.248 NA
ATOM     89  C   UNL A   1      45.187  24.645  28.947  1.00  0.00    -0.034 C 
ATOM     90  C   UNL A   1      46.505  29.411  32.466  1.00  0.00    -0.036 A 
ATOM     91  H   UNL A   1      45.854  31.256  33.407  1.00  0.00     0.065 H 
ATOM     92  C   UNL A   1      45.829  28.518  31.650  1.00  0.00     0.049 A 
ATOM     93  H   UNL A   1      43.865  28.636  30.888  1.00  0.00     0.167 HD
ATOM     94  C   UNL A   1      45.587  26.458  30.290  1.00  0.00     0.074 A 
ATOM     95  C   UNL A   1      46.089  25.220  29.731  1.00  0.00    -0.034 C 
ATOM     96  H   UNL A   1      45.268  23.781  28.387  1.00  0.00     0.065 H 
ATOM     97  H   UNL A   1      47.482  29.317  32.784  1.00  0.00     0.065 H 
ATOM     98  C   UNL A   1      46.301  27.272  31.104  1.00  0.00     0.037 A 
ATOM     99  H   UNL A   1      47.027  24.834  29.918  1.00  0.00     0.065 H 
BRANCH  80 100
ATOM    100  C   UNL A   1      43.300  32.375  32.865  1.00  0.00     0.064 A 
ATOM    101  C   UNL A   1      43.694  33.571  32.246  1.00  0.00     0.173 A 
ATOM    102  C   UNL A   1      42.907  32.433  34.211  1.00  0.00     0.173 A 
ATOM    103  F   UNL A   1      44.091  33.569  30.965  1.00  0.00    -0.203 F 
ATOM    104  C   UNL A   1      43.722  34.770  32.955  1.00  0.00     0.198 A 
ATOM    105  C   UNL A   1      42.904  33.638  34.906  1.00  0.00     0.198 A 
ATOM    106  F   UNL A   1      42.514  31.320  34.850  1.00  0.00    -0.203 F 
ATOM    107  F   UNL A   1      44.153  35.889  32.356  1.00  0.00    -0.200 F 
ATOM    108  C   UNL A   1      43.321  34.805  34.281  1.00  0.00     0.200 A 
ATOM    109  F   UNL A   1      42.502  33.673  36.184  1.00  0.00    -0.200 F 
ATOM    110  F   UNL A   1      43.341  35.960  34.959  1.00  0.00    -0.200 F 
ENDBRANCH  80 100
BRANCH  83 111
ATOM    111  C   UNL A   1      42.711  23.938  27.546  1.00  0.00     0.064 A 
ATOM    112  C   UNL A   1      42.310  22.722  28.118  1.00  0.00     0.173 A 
ATOM    113  C   UNL A   1      43.050  23.939  26.185  1.00  0.00     0.173 A 
ATOM    114  F   UNL A   1      41.998  22.666  29.421  1.00  0.00    -0.203 F 
ATOM    115  C   UNL A   1      42.270  21.551  27.365  1.00  0.00     0.198 A 
ATOM    116  C   UNL A   1      42.980  22.772  25.426  1.00  0.00     0.198 A 
ATOM    117  F   UNL A   1      43.441  25.077  25.592  1.00  0.00    -0.203 F 
ATOM    118  F   UNL A   1      41.928  20.393  27.948  1.00  0.00    -0.200 F 
ATOM    119  C   UNL A   1      42.599  21.578  26.018  1.00  0.00     0.200 A 
ATOM    120  F   UNL A   1      43.285  22.807  24.122  1.00  0.00    -0.200 F 
ATOM    121  F   UNL A   1      42.555  20.453  25.293  1.00  0.00    -0.200 F 
ENDBRANCH  83 111
BRANCH  98 122
ATOM    122  C   UNL A   1      47.682  26.830  31.492  1.00  0.00     0.064 A 
ATOM    123  C   UNL A   1      47.908  25.968  32.574  1.00  0.00     0.173 A 
ATOM    124  C   UNL A   1      48.788  27.221  30.720  1.00  0.00     0.173 A 
ATOM    125  F   UNL A   1      46.884  25.579  33.349  1.00  0.00    -0.203 F 
ATOM    126  C   UNL A   1      49.191  25.523  32.877  1.00  0.00     0.198 A 
ATOM    127  C   UNL A   1      50.066  26.752  31.009  1.00  0.00     0.198 A 
ATOM    128  F   UNL A   1      48.624  28.042  29.671  1.00  0.00    -0.203 F 
ATOM    129  F   UNL A   1      49.389  24.726  33.936  1.00  0.00    -0.200 F 
ATOM    130  C   UNL A   1      50.267  25.906  32.089  1.00  0.00     0.200 A 
ATOM    131  F   UNL A   1      51.101  27.113  30.238  1.00  0.00    -0.200 F 
ATOM    132  F   UNL A   1      51.499  25.462  32.374  1.00  0.00    -0.200 F 
ENDBRANCH  98 122
ENDBRANCH  63  66
ENDBRANCH  53  56
ENDBRANCH  49  52
ENDBRANCH  46  49
ENDBRANCH  43  46
ENDBRANCH  40  43
ENDBRANCH   1  40
TORSDOF 18
ENDMDL
MODEL 6
REMARK VINA RESULT:     -12.0      2.668      7.912
REMARK SMILES NS(=O)(=O)c1ccc(/N=N/c2ccc(O)c(C(=O)NCCCCCCNC(=O)c3ccc(-c4c5nc(c(-c6c(F)c(F)c(F)c(F)c6F)c6ccc([nH]6)c(-c6c(F)c(F)c(F)c(F)c6F)c6nc(c(-c7c(F)c(F)c(F)c(F)c7F)c7ccc4[nH]7)C=C6)C=C5)cc3)c2)cc1
REMARK SMILES IDX 21 1 20 4 19 7 17 8 18 9 16 11 11 12 12 13 92 14 13 15 14 18
REMARK SMILES IDX 10 20 9 21 8 22 5 23 6 24 94 25 7 26 93 28 2 32 3 33 4 34
REMARK SMILES IDX 1 35 15 38 22 40 23 43 24 46 25 49 26 52 27 53 28 55 29 56
REMARK SMILES IDX 30 57 91 58 31 59 90 61 32 63 33 66 34 67 84 68 35 69 89 70
REMARK SMILES IDX 83 71 85 72 36 73 88 74 82 76 81 78 37 80 69 83 49 84 68 85
REMARK SMILES IDX 50 86 53 87 67 88 86 89 51 90 52 92 66 94 87 95 54 98 38 100
REMARK SMILES IDX 39 101 47 102 40 103 41 104 45 105 48 106 42 107 43 108
REMARK SMILES IDX 46 109 44 110 70 111 71 112 79 113 72 114 73 115 77 116
REMARK SMILES IDX 80 117 74 118 75 119 78 120 76 121 55 122 56 123 64 124
REMARK SMILES IDX 57 125 58 126 62 127 65 128 59 129 60 130 63 131 61 132
REMARK H PARENT 21 2 21 3 20 5 20 6 19 10 12 16 92 17 13 19 6 27 94 29 7 30
REMARK H PARENT 93 31 1 36 1 37 15 39 22 41 22 42 23 44 23 45 24 47 24 48
REMARK H PARENT 25 50 25 51 26 54 30 60 91 62 31 64 90 65 89 75 83 77 85 79
REMARK H PARENT 88 81 82 82 50 91 53 93 86 96 51 97 87 99
REMARK Flexibility Score: inf
ROOT
ATOM      1  C   UNL A   1      33.099  27.729  26.382  1.00  0.00    -0.036 C 
ATOM      2  H   UNL A   1      33.976  27.384  25.875  1.00  0.00     0.028 H 
ATOM      3  H   UNL A   1      33.096  27.560  27.439  1.00  0.00     0.028 H 
ENDROOT
BRANCH   1   4
ATOM      4  C   UNL A   1      31.913  26.933  25.847  1.00  0.00     0.018 C 
ATOM      5  H   UNL A   1      31.093  27.607  25.709  1.00  0.00     0.049 H 
ATOM      6  H   UNL A   1      32.238  26.480  24.933  1.00  0.00     0.049 H 
BRANCH   4   7
ATOM      7  N   UNL A   1      31.475  25.853  26.714  1.00  0.00    -0.352 N 
ATOM      8  C   UNL A   1      31.562  24.488  26.554  1.00  0.00     0.255 C 
ATOM      9  O   UNL A   1      31.037  23.751  27.390  1.00  0.00    -0.269 OA
ATOM     10  H   UNL A   1      31.049  26.143  27.552  1.00  0.00     0.163 HD
BRANCH   8  11
ATOM     11  C   UNL A   1      32.191  23.861  25.363  1.00  0.00     0.083 A 
ATOM     12  C   UNL A   1      34.155  22.943  24.247  1.00  0.00     0.087 A 
ATOM     13  C   UNL A   1      33.469  22.986  23.029  1.00  0.00    -0.031 A 
ATOM     14  C   UNL A   1      33.464  23.291  25.418  1.00  0.00    -0.018 A 
ATOM     15  C   UNL A   1      32.139  23.416  22.979  1.00  0.00    -0.017 A 
ATOM     16  H   UNL A   1      33.946  22.698  22.162  1.00  0.00     0.065 H 
ATOM     17  H   UNL A   1      33.904  23.122  26.335  1.00  0.00     0.066 H 
ATOM     18  C   UNL A   1      31.511  23.865  24.139  1.00  0.00     0.128 A 
ATOM     19  H   UNL A   1      31.623  23.401  22.084  1.00  0.00     0.066 H 
BRANCH  12  20
ATOM     20  N   UNL A   1      35.536  22.629  24.255  1.00  0.00    -0.151 NA
ATOM     21  N   UNL A   1      35.712  21.518  24.809  1.00  0.00    -0.151 NA
BRANCH  21  22
ATOM     22  C   UNL A   1      37.061  21.226  25.053  1.00  0.00     0.086 A 
ATOM     23  C   UNL A   1      39.652  20.493  25.834  1.00  0.00     0.082 A 
ATOM     24  C   UNL A   1      38.814  19.544  25.244  1.00  0.00    -0.040 A 
ATOM     25  C   UNL A   1      39.210  21.805  26.033  1.00  0.00    -0.040 A 
ATOM     26  C   UNL A   1      37.521  19.916  24.860  1.00  0.00    -0.033 A 
ATOM     27  H   UNL A   1      39.145  18.579  25.092  1.00  0.00     0.064 H 
ATOM     28  C   UNL A   1      37.919  22.165  25.641  1.00  0.00    -0.033 A 
ATOM     29  H   UNL A   1      39.835  22.502  26.467  1.00  0.00     0.064 H 
ATOM     30  H   UNL A   1      36.897  19.215  24.429  1.00  0.00     0.065 H 
ATOM     31  H   UNL A   1      37.592  23.134  25.786  1.00  0.00     0.065 H 
BRANCH  23  32
ATOM     32  S   UNL A   1      41.268  20.060  26.414  1.00  0.00     0.238 S 
ATOM     33  O   UNL A   1      42.089  21.247  26.382  1.00  0.00    -0.207 OA
ATOM     34  O   UNL A   1      41.653  18.819  25.785  1.00  0.00    -0.207 OA
BRANCH  32  35
ATOM     35  N   UNL A   1      41.056  19.712  28.044  1.00  0.00    -0.225 NA
ATOM     36  H   UNL A   1      40.233  20.203  28.392  1.00  0.00     0.137 HD
ATOM     37  H   UNL A   1      41.878  20.014  28.567  1.00  0.00     0.137 HD
ENDBRANCH  32  35
ENDBRANCH  23  32
ENDBRANCH  21  22
ENDBRANCH  12  20
BRANCH  18  38
ATOM     38  O   UNL A   1      30.222  24.312  24.002  1.00  0.00    -0.507 OA
ATOM     39  H   UNL A   1      29.905  24.576  23.161  1.00  0.00     0.293 HD
ENDBRANCH  18  38
ENDBRANCH   8  11
ENDBRANCH   4   7
ENDBRANCH   1   4
BRANCH   1  40
ATOM     40  C   UNL A   1      33.039  29.248  26.219  1.00  0.00    -0.052 C 
ATOM     41  H   UNL A   1      33.172  29.468  25.181  1.00  0.00     0.027 H 
ATOM     42  H   UNL A   1      33.806  29.629  26.860  1.00  0.00     0.027 H 
BRANCH  40  43
ATOM     43  C   UNL A   1      31.753  29.939  26.678  1.00  0.00    -0.052 C 
ATOM     44  H   UNL A   1      31.604  29.698  27.710  1.00  0.00     0.027 H 
ATOM     45  H   UNL A   1      30.989  29.579  26.022  1.00  0.00     0.027 H 
BRANCH  43  46
ATOM     46  C   UNL A   1      31.713  31.463  26.548  1.00  0.00    -0.036 C 
ATOM     47  H   UNL A   1      30.816  31.809  27.018  1.00  0.00     0.028 H 
ATOM     48  H   UNL A   1      31.763  31.666  25.500  1.00  0.00     0.028 H 
BRANCH  46  49
ATOM     49  C   UNL A   1      32.884  32.213  27.170  1.00  0.00     0.018 C 
ATOM     50  H   UNL A   1      33.697  32.212  26.474  1.00  0.00     0.049 H 
ATOM     51  H   UNL A   1      33.136  31.713  28.082  1.00  0.00     0.049 H 
BRANCH  49  52
ATOM     52  N   UNL A   1      32.566  33.591  27.505  1.00  0.00    -0.352 N 
ATOM     53  C   UNL A   1      33.124  34.401  28.463  1.00  0.00     0.251 C 
ATOM     54  H   UNL A   1      31.849  34.000  26.969  1.00  0.00     0.163 HD
ATOM     55  O   UNL A   1      32.644  35.505  28.701  1.00  0.00    -0.269 OA
BRANCH  53  56
ATOM     56  C   UNL A   1      34.296  33.931  29.235  1.00  0.00     0.039 A 
ATOM     57  C   UNL A   1      34.090  33.097  30.338  1.00  0.00    -0.049 A 
ATOM     58  C   UNL A   1      35.591  34.312  28.874  1.00  0.00    -0.049 A 
ATOM     59  C   UNL A   1      35.187  32.594  31.043  1.00  0.00    -0.053 A 
ATOM     60  H   UNL A   1      33.131  32.853  30.632  1.00  0.00     0.063 H 
ATOM     61  C   UNL A   1      36.684  33.755  29.533  1.00  0.00    -0.053 A 
ATOM     62  H   UNL A   1      35.737  35.003  28.123  1.00  0.00     0.063 H 
ATOM     63  C   UNL A   1      36.493  32.895  30.627  1.00  0.00    -0.014 A 
ATOM     64  H   UNL A   1      35.037  31.999  31.873  1.00  0.00     0.063 H 
ATOM     65  H   UNL A   1      37.640  33.976  29.216  1.00  0.00     0.063 H 
BRANCH  63  66
ATOM     66  C   UNL A   1      37.684  32.354  31.332  1.00  0.00     0.031 A 
ATOM     67  C   UNL A   1      38.450  31.213  30.723  1.00  0.00     0.074 A 
ATOM     68  C   UNL A   1      38.022  32.823  32.548  1.00  0.00     0.049 A 
ATOM     69  N   UNL A   1      39.419  30.497  31.235  1.00  0.00    -0.248 NA
ATOM     70  C   UNL A   1      38.049  30.802  29.369  1.00  0.00    -0.034 C 
ATOM     71  C   UNL A   1      37.344  33.909  33.255  1.00  0.00    -0.036 A 
ATOM     72  N   UNL A   1      39.014  32.431  33.413  1.00  0.00    -0.354 N 
ATOM     73  C   UNL A   1      39.724  29.538  30.277  1.00  0.00     0.074 A 
ATOM     74  C   UNL A   1      38.806  29.731  29.176  1.00  0.00    -0.034 C 
ATOM     75  H   UNL A   1      37.358  31.233  28.735  1.00  0.00     0.065 H 
ATOM     76  C   UNL A   1      37.946  34.105  34.440  1.00  0.00    -0.036 A 
ATOM     77  H   UNL A   1      36.533  34.439  32.901  1.00  0.00     0.065 H 
ATOM     78  C   UNL A   1      39.023  33.133  34.594  1.00  0.00     0.049 A 
ATOM     79  H   UNL A   1      39.658  31.716  33.206  1.00  0.00     0.167 HD
ATOM     80  C   UNL A   1      40.694  28.594  30.306  1.00  0.00     0.037 A 
ATOM     81  H   UNL A   1      38.748  29.117  28.348  1.00  0.00     0.065 H 
ATOM     82  H   UNL A   1      37.687  34.828  35.130  1.00  0.00     0.065 H 
ATOM     83  C   UNL A   1      39.804  32.994  35.684  1.00  0.00     0.037 A 
ATOM     84  C   UNL A   1      41.627  28.428  31.388  1.00  0.00     0.049 A 
ATOM     85  C   UNL A   1      40.872  31.934  35.696  1.00  0.00     0.074 A 
ATOM     86  C   UNL A   1      42.678  27.532  31.494  1.00  0.00    -0.036 A 
ATOM     87  N   UNL A   1      41.625  29.181  32.552  1.00  0.00    -0.354 N 
ATOM     88  N   UNL A   1      41.173  31.055  34.771  1.00  0.00    -0.248 NA
ATOM     89  C   UNL A   1      41.709  31.845  36.900  1.00  0.00    -0.034 C 
ATOM     90  C   UNL A   1      43.282  27.714  32.741  1.00  0.00    -0.036 A 
ATOM     91  H   UNL A   1      42.964  26.849  30.775  1.00  0.00     0.065 H 
ATOM     92  C   UNL A   1      42.644  28.759  33.390  1.00  0.00     0.049 A 
ATOM     93  H   UNL A   1      40.993  29.908  32.755  1.00  0.00     0.167 HD
ATOM     94  C   UNL A   1      42.258  30.341  35.261  1.00  0.00     0.074 A 
ATOM     95  C   UNL A   1      42.561  30.885  36.568  1.00  0.00    -0.034 C 
ATOM     96  H   UNL A   1      41.650  32.388  37.776  1.00  0.00     0.065 H 
ATOM     97  H   UNL A   1      44.071  27.163  33.115  1.00  0.00     0.065 H 
ATOM     98  C   UNL A   1      42.945  29.329  34.677  1.00  0.00     0.037 A 
ATOM     99  H   UNL A   1      43.340  30.566  37.165  1.00  0.00     0.065 H 
BRANCH  80 100
ATOM    100  C   UNL A   1      40.794  27.662  29.133  1.00  0.00     0.064 A 
ATOM    101  C   UNL A   1      39.923  26.572  28.981  1.00  0.00     0.173 A 
ATOM    102  C   UNL A   1      41.751  27.880  28.130  1.00  0.00     0.173 A 
ATOM    103  F   UNL A   1      38.998  26.312  29.917  1.00  0.00    -0.203 F 
ATOM    104  C   UNL A   1      40.028  25.718  27.886  1.00  0.00     0.198 A 
ATOM    105  C   UNL A   1      41.831  27.044  27.020  1.00  0.00     0.198 A 
ATOM    106  F   UNL A   1      42.604  28.912  28.222  1.00  0.00    -0.203 F 
ATOM    107  F   UNL A   1      39.220  24.653  27.791  1.00  0.00    -0.200 F 
ATOM    108  C   UNL A   1      40.976  25.958  26.903  1.00  0.00     0.200 A 
ATOM    109  F   UNL A   1      42.739  27.286  26.064  1.00  0.00    -0.200 F 
ATOM    110  F   UNL A   1      41.071  25.139  25.847  1.00  0.00    -0.200 F 
ENDBRANCH  80 100
BRANCH  83 111
ATOM    111  C   UNL A   1      39.614  33.895  36.852  1.00  0.00     0.064 A 
ATOM    112  C   UNL A   1      40.221  35.159  36.891  1.00  0.00     0.173 A 
ATOM    113  C   UNL A   1      38.833  33.512  37.951  1.00  0.00     0.173 A 
ATOM    114  F   UNL A   1      40.996  35.560  35.872  1.00  0.00    -0.203 F 
ATOM    115  C   UNL A   1      40.069  35.997  37.992  1.00  0.00     0.198 A 
ATOM    116  C   UNL A   1      38.657  34.365  39.040  1.00  0.00     0.198 A 
ATOM    117  F   UNL A   1      38.233  32.312  37.963  1.00  0.00    -0.203 F 
ATOM    118  F   UNL A   1      40.697  37.181  38.023  1.00  0.00    -0.200 F 
ATOM    119  C   UNL A   1      39.282  35.602  39.064  1.00  0.00     0.200 A 
ATOM    120  F   UNL A   1      37.884  33.984  40.065  1.00  0.00    -0.200 F 
ATOM    121  F   UNL A   1      39.130  36.411  40.120  1.00  0.00    -0.200 F 
ENDBRANCH  83 111
BRANCH  98 122
ATOM    122  C   UNL A   1      44.129  28.776  35.415  1.00  0.00     0.064 A 
ATOM    123  C   UNL A   1      45.412  29.321  35.271  1.00  0.00     0.173 A 
ATOM    124  C   UNL A   1      43.957  27.731  36.337  1.00  0.00     0.173 A 
ATOM    125  F   UNL A   1      45.628  30.311  34.392  1.00  0.00    -0.203 F 
ATOM    126  C   UNL A   1      46.483  28.830  36.012  1.00  0.00     0.198 A 
ATOM    127  C   UNL A   1      45.025  27.261  37.096  1.00  0.00     0.198 A 
ATOM    128  F   UNL A   1      42.747  27.179  36.515  1.00  0.00    -0.203 F 
ATOM    129  F   UNL A   1      47.709  29.343  35.833  1.00  0.00    -0.200 F 
ATOM    130  C   UNL A   1      46.288  27.809  36.931  1.00  0.00     0.200 A 
ATOM    131  F   UNL A   1      44.830  26.284  37.992  1.00  0.00    -0.200 F 
ATOM    132  F   UNL A   1      47.318  27.351  37.654  1.00  0.00    -0.200 F 
ENDBRANCH  98 122
ENDBRANCH  63  66
ENDBRANCH  53  56
ENDBRANCH  49  52
ENDBRANCH  46  49
ENDBRANCH  43  46
ENDBRANCH  40  43
ENDBRANCH   1  40
TORSDOF 18
ENDMDL
MODEL 7
REMARK VINA RESULT:     -12.0      6.339     11.184
REMARK SMILES NS(=O)(=O)c1ccc(/N=N/c2ccc(O)c(C(=O)NCCCCCCNC(=O)c3ccc(-c4c5nc(c(-c6c(F)c(F)c(F)c(F)c6F)c6ccc([nH]6)c(-c6c(F)c(F)c(F)c(F)c6F)c6nc(c(-c7c(F)c(F)c(F)c(F)c7F)c7ccc4[nH]7)C=C6)C=C5)cc3)c2)cc1
REMARK SMILES IDX 21 1 20 4 19 7 17 8 18 9 16 11 11 12 12 13 92 14 13 15 14 18
REMARK SMILES IDX 10 20 9 21 8 22 5 23 6 24 94 25 7 26 93 28 2 32 3 33 4 34
REMARK SMILES IDX 1 35 15 38 22 40 23 43 24 46 25 49 26 52 27 53 28 55 29 56
REMARK SMILES IDX 30 57 91 58 31 59 90 61 32 63 33 66 34 67 84 68 35 69 89 70
REMARK SMILES IDX 83 71 85 72 36 73 88 74 82 76 81 78 37 80 69 83 49 84 68 85
REMARK SMILES IDX 50 86 53 87 67 88 86 89 51 90 52 92 66 94 87 95 54 98 38 100
REMARK SMILES IDX 39 101 47 102 40 103 41 104 45 105 48 106 42 107 43 108
REMARK SMILES IDX 46 109 44 110 70 111 71 112 79 113 72 114 73 115 77 116
REMARK SMILES IDX 80 117 74 118 75 119 78 120 76 121 55 122 56 123 64 124
REMARK SMILES IDX 57 125 58 126 62 127 65 128 59 129 60 130 63 131 61 132
REMARK H PARENT 21 2 21 3 20 5 20 6 19 10 12 16 92 17 13 19 6 27 94 29 7 30
REMARK H PARENT 93 31 1 36 1 37 15 39 22 41 22 42 23 44 23 45 24 47 24 48
REMARK H PARENT 25 50 25 51 26 54 30 60 91 62 31 64 90 65 89 75 83 77 85 79
REMARK H PARENT 88 81 82 82 50 91 53 93 86 96 51 97 87 99
REMARK Flexibility Score: inf
ROOT
ATOM      1  C   UNL A   1      36.402  22.836  23.499  1.00  0.00    -0.036 C 
ATOM      2  H   UNL A   1      36.936  23.735  23.273  1.00  0.00     0.028 H 
ATOM      3  H   UNL A   1      36.430  22.092  22.729  1.00  0.00     0.028 H 
ENDROOT
BRANCH   1   4
ATOM      4  C   UNL A   1      34.929  23.200  23.650  1.00  0.00     0.018 C 
ATOM      5  H   UNL A   1      34.722  23.334  24.692  1.00  0.00     0.049 H 
ATOM      6  H   UNL A   1      34.774  24.090  23.077  1.00  0.00     0.049 H 
BRANCH   4   7
ATOM      7  N   UNL A   1      34.009  22.204  23.128  1.00  0.00    -0.352 N 
ATOM      8  C   UNL A   1      32.731  21.874  23.523  1.00  0.00     0.255 C 
ATOM      9  O   UNL A   1      32.163  20.922  22.985  1.00  0.00    -0.269 OA
ATOM     10  H   UNL A   1      34.353  21.681  22.369  1.00  0.00     0.163 HD
BRANCH   8  11
ATOM     11  C   UNL A   1      32.035  22.565  24.638  1.00  0.00     0.083 A 
ATOM     12  C   UNL A   1      30.641  24.395  25.448  1.00  0.00     0.087 A 
ATOM     13  C   UNL A   1      30.992  24.065  26.761  1.00  0.00    -0.031 A 
ATOM     14  C   UNL A   1      31.093  23.570  24.407  1.00  0.00    -0.018 A 
ATOM     15  C   UNL A   1      31.819  22.967  27.021  1.00  0.00    -0.017 A 
ATOM     16  H   UNL A   1      30.638  24.635  27.544  1.00  0.00     0.065 H 
ATOM     17  H   UNL A   1      30.723  23.708  23.454  1.00  0.00     0.066 H 
ATOM     18  C   UNL A   1      32.348  22.233  25.962  1.00  0.00     0.128 A 
ATOM     19  H   UNL A   1      32.035  22.701  27.995  1.00  0.00     0.066 H 
BRANCH  12  20
ATOM     20  N   UNL A   1      29.911  25.583  25.202  1.00  0.00    -0.151 NA
ATOM     21  N   UNL A   1      30.150  25.991  24.041  1.00  0.00    -0.151 NA
BRANCH  21  22
ATOM     22  C   UNL A   1      29.641  27.273  23.786  1.00  0.00     0.086 A 
ATOM     23  C   UNL A   1      28.629  29.747  22.943  1.00  0.00     0.082 A 
ATOM     24  C   UNL A   1      27.775  28.646  23.031  1.00  0.00    -0.040 A 
ATOM     25  C   UNL A   1      29.982  29.626  23.276  1.00  0.00    -0.040 A 
ATOM     26  C   UNL A   1      28.287  27.414  23.449  1.00  0.00    -0.033 A 
ATOM     27  H   UNL A   1      26.776  28.741  22.791  1.00  0.00     0.064 H 
ATOM     28  C   UNL A   1      30.481  28.390  23.698  1.00  0.00    -0.033 A 
ATOM     29  H   UNL A   1      30.608  30.443  23.212  1.00  0.00     0.064 H 
ATOM     30  H   UNL A   1      27.659  26.596  23.509  1.00  0.00     0.065 H 
ATOM     31  H   UNL A   1      31.479  28.300  23.946  1.00  0.00     0.065 H 
BRANCH  23  32
ATOM     32  S   UNL A   1      28.056  31.312  22.343  1.00  0.00     0.238 S 
ATOM     33  O   UNL A   1      27.229  31.908  23.365  1.00  0.00    -0.207 OA
ATOM     34  O   UNL A   1      27.619  31.137  20.979  1.00  0.00    -0.207 OA
BRANCH  32  35
ATOM     35  N   UNL A   1      29.434  32.271  22.273  1.00  0.00    -0.225 NA
ATOM     36  H   UNL A   1      29.326  33.067  22.903  1.00  0.00     0.137 HD
ATOM     37  H   UNL A   1      29.566  32.609  21.320  1.00  0.00     0.137 HD
ENDBRANCH  32  35
ENDBRANCH  23  32
ENDBRANCH  21  22
ENDBRANCH  12  20
BRANCH  18  38
ATOM     38  O   UNL A   1      33.184  21.199  26.294  1.00  0.00    -0.507 OA
ATOM     39  H   UNL A   1      32.978  20.644  27.020  1.00  0.00     0.293 HD
ENDBRANCH  18  38
ENDBRANCH   8  11
ENDBRANCH   4   7
ENDBRANCH   1   4
BRANCH   1  40
ATOM     40  C   UNL A   1      37.079  22.188  24.706  1.00  0.00    -0.052 C 
ATOM     41  H   UNL A   1      36.806  22.752  25.573  1.00  0.00     0.027 H 
ATOM     42  H   UNL A   1      38.124  22.193  24.479  1.00  0.00     0.027 H 
BRANCH  40  43
ATOM     43  C   UNL A   1      36.737  20.721  24.982  1.00  0.00    -0.052 C 
ATOM     44  H   UNL A   1      36.039  20.404  24.235  1.00  0.00     0.027 H 
ATOM     45  H   UNL A   1      36.357  20.702  25.981  1.00  0.00     0.027 H 
BRANCH  43  46
ATOM     46  C   UNL A   1      37.905  19.734  24.974  1.00  0.00    -0.036 C 
ATOM     47  H   UNL A   1      38.181  19.561  23.955  1.00  0.00     0.028 H 
ATOM     48  H   UNL A   1      37.552  18.863  25.484  1.00  0.00     0.028 H 
BRANCH  46  49
ATOM     49  C   UNL A   1      39.154  20.176  25.726  1.00  0.00     0.018 C 
ATOM     50  H   UNL A   1      38.868  20.476  26.713  1.00  0.00     0.049 H 
ATOM     51  H   UNL A   1      39.591  20.982  25.174  1.00  0.00     0.049 H 
BRANCH  49  52
ATOM     52  N   UNL A   1      40.156  19.129  25.833  1.00  0.00    -0.352 N 
ATOM     53  C   UNL A   1      41.502  19.240  26.082  1.00  0.00     0.251 C 
ATOM     54  H   UNL A   1      39.822  18.211  25.710  1.00  0.00     0.163 HD
ATOM     55  O   UNL A   1      42.231  18.256  26.010  1.00  0.00    -0.269 OA
BRANCH  53  56
ATOM     56  C   UNL A   1      42.084  20.560  26.413  1.00  0.00     0.039 A 
ATOM     57  C   UNL A   1      42.441  21.423  25.373  1.00  0.00    -0.049 A 
ATOM     58  C   UNL A   1      42.281  20.943  27.742  1.00  0.00    -0.049 A 
ATOM     59  C   UNL A   1      42.937  22.696  25.665  1.00  0.00    -0.053 A 
ATOM     60  H   UNL A   1      42.339  21.120  24.391  1.00  0.00     0.063 H 
ATOM     61  C   UNL A   1      42.708  22.237  28.032  1.00  0.00    -0.053 A 
ATOM     62  H   UNL A   1      42.109  20.272  28.505  1.00  0.00     0.063 H 
ATOM     63  C   UNL A   1      43.045  23.124  26.997  1.00  0.00    -0.014 A 
ATOM     64  H   UNL A   1      43.224  23.325  24.899  1.00  0.00     0.063 H 
ATOM     65  H   UNL A   1      42.777  22.544  29.014  1.00  0.00     0.063 H 
BRANCH  63  66
ATOM     66  C   UNL A   1      43.538  24.481  27.347  1.00  0.00     0.031 A 
ATOM     67  C   UNL A   1      42.576  25.501  27.888  1.00  0.00     0.074 A 
ATOM     68  C   UNL A   1      44.817  24.822  27.098  1.00  0.00     0.049 A 
ATOM     69  N   UNL A   1      42.760  26.778  28.114  1.00  0.00    -0.248 NA
ATOM     70  C   UNL A   1      41.215  25.029  28.183  1.00  0.00    -0.034 C 
ATOM     71  C   UNL A   1      45.839  23.931  26.552  1.00  0.00    -0.036 A 
ATOM     72  N   UNL A   1      45.469  26.020  27.256  1.00  0.00    -0.354 N 
ATOM     73  C   UNL A   1      41.534  27.262  28.553  1.00  0.00     0.074 A 
ATOM     74  C   UNL A   1      40.603  26.156  28.514  1.00  0.00    -0.034 C 
ATOM     75  H   UNL A   1      40.835  24.070  28.143  1.00  0.00     0.065 H 
ATOM     76  C   UNL A   1      46.994  24.607  26.432  1.00  0.00    -0.036 A 
ATOM     77  H   UNL A   1      45.698  22.941  26.298  1.00  0.00     0.065 H 
ATOM     78  C   UNL A   1      46.782  25.990  26.851  1.00  0.00     0.049 A 
ATOM     79  H   UNL A   1      45.038  26.824  27.626  1.00  0.00     0.167 HD
ATOM     80  C   UNL A   1      41.220  28.512  28.968  1.00  0.00     0.037 A 
ATOM     81  H   UNL A   1      39.594  26.235  28.717  1.00  0.00     0.065 H 
ATOM     82  H   UNL A   1      47.887  24.213  26.097  1.00  0.00     0.065 H 
ATOM     83  C   UNL A   1      47.704  26.971  26.809  1.00  0.00     0.037 A 
ATOM     84  C   UNL A   1      42.158  29.600  29.038  1.00  0.00     0.049 A 
ATOM     85  C   UNL A   1      47.330  28.355  27.271  1.00  0.00     0.074 A 
ATOM     86  C   UNL A   1      41.951  30.892  29.489  1.00  0.00    -0.036 A 
ATOM     87  N   UNL A   1      43.487  29.519  28.650  1.00  0.00    -0.354 N 
ATOM     88  N   UNL A   1      46.177  28.792  27.714  1.00  0.00    -0.248 NA
ATOM     89  C   UNL A   1      48.382  29.379  27.225  1.00  0.00    -0.034 C 
ATOM     90  C   UNL A   1      43.143  31.605  29.332  1.00  0.00    -0.036 A 
ATOM     91  H   UNL A   1      41.068  31.263  29.874  1.00  0.00     0.065 H 
ATOM     92  C   UNL A   1      44.107  30.744  28.835  1.00  0.00     0.049 A 
ATOM     93  H   UNL A   1      43.926  28.712  28.296  1.00  0.00     0.167 HD
ATOM     94  C   UNL A   1      46.376  30.127  28.043  1.00  0.00     0.074 A 
ATOM     95  C   UNL A   1      47.759  30.430  27.742  1.00  0.00    -0.034 C 
ATOM     96  H   UNL A   1      49.352  29.302  26.882  1.00  0.00     0.065 H 
ATOM     97  H   UNL A   1      43.281  32.604  29.550  1.00  0.00     0.065 H 
ATOM     98  C   UNL A   1      45.493  31.019  28.552  1.00  0.00     0.037 A 
ATOM     99  H   UNL A   1      48.204  31.346  27.907  1.00  0.00     0.065 H 
BRANCH  80 100
ATOM    100  C   UNL A   1      39.798  28.773  29.375  1.00  0.00     0.064 A 
ATOM    101  C   UNL A   1      38.841  29.233  28.458  1.00  0.00     0.173 A 
ATOM    102  C   UNL A   1      39.379  28.529  30.692  1.00  0.00     0.173 A 
ATOM    103  F   UNL A   1      39.191  29.494  27.190  1.00  0.00    -0.203 F 
ATOM    104  C   UNL A   1      37.526  29.468  28.853  1.00  0.00     0.198 A 
ATOM    105  C   UNL A   1      38.057  28.733  31.074  1.00  0.00     0.198 A 
ATOM    106  F   UNL A   1      40.252  28.081  31.608  1.00  0.00    -0.203 F 
ATOM    107  F   UNL A   1      36.643  29.959  27.971  1.00  0.00    -0.200 F 
ATOM    108  C   UNL A   1      37.132  29.212  30.157  1.00  0.00     0.200 A 
ATOM    109  F   UNL A   1      37.675  28.471  32.332  1.00  0.00    -0.200 F 
ATOM    110  F   UNL A   1      35.866  29.432  30.532  1.00  0.00    -0.200 F 
ENDBRANCH  80 100
BRANCH  83 111
ATOM    111  C   UNL A   1      49.079  26.678  26.325  1.00  0.00     0.064 A 
ATOM    112  C   UNL A   1      50.055  26.173  27.196  1.00  0.00     0.173 A 
ATOM    113  C   UNL A   1      49.447  26.900  24.991  1.00  0.00     0.173 A 
ATOM    114  F   UNL A   1      49.756  25.966  28.487  1.00  0.00    -0.203 F 
ATOM    115  C   UNL A   1      51.352  25.920  26.756  1.00  0.00     0.198 A 
ATOM    116  C   UNL A   1      50.737  26.618  24.544  1.00  0.00     0.198 A 
ATOM    117  F   UNL A   1      48.550  27.383  24.118  1.00  0.00    -0.203 F 
ATOM    118  F   UNL A   1      52.278  25.482  27.621  1.00  0.00    -0.200 F 
ATOM    119  C   UNL A   1      51.691  26.137  25.429  1.00  0.00     0.200 A 
ATOM    120  F   UNL A   1      51.054  26.815  23.258  1.00  0.00    -0.200 F 
ATOM    121  F   UNL A   1      52.936  25.888  25.004  1.00  0.00    -0.200 F 
ENDBRANCH  83 111
BRANCH  98 122
ATOM    122  C   UNL A   1      46.000  32.394  28.874  1.00  0.00     0.064 A 
ATOM    123  C   UNL A   1      45.934  33.443  27.946  1.00  0.00     0.173 A 
ATOM    124  C   UNL A   1      46.492  32.680  30.157  1.00  0.00     0.173 A 
ATOM    125  F   UNL A   1      45.485  33.215  26.702  1.00  0.00    -0.203 F 
ATOM    126  C   UNL A   1      46.354  34.725  28.288  1.00  0.00     0.198 A 
ATOM    127  C   UNL A   1      46.885  33.970  30.503  1.00  0.00     0.198 A 
ATOM    128  F   UNL A   1      46.570  31.711  31.082  1.00  0.00    -0.203 F 
ATOM    129  F   UNL A   1      46.314  35.706  27.375  1.00  0.00    -0.200 F 
ATOM    130  C   UNL A   1      46.819  34.990  29.568  1.00  0.00     0.200 A 
ATOM    131  F   UNL A   1      47.321  34.225  31.745  1.00  0.00    -0.200 F 
ATOM    132  F   UNL A   1      47.207  36.230  29.897  1.00  0.00    -0.200 F 
ENDBRANCH  98 122
ENDBRANCH  63  66
ENDBRANCH  53  56
ENDBRANCH  49  52
ENDBRANCH  46  49
ENDBRANCH  43  46
ENDBRANCH  40  43
ENDBRANCH   1  40
TORSDOF 18
ENDMDL
MODEL 8
REMARK VINA RESULT:     -12.0      4.295      7.378
REMARK SMILES NS(=O)(=O)c1ccc(/N=N/c2ccc(O)c(C(=O)NCCCCCCNC(=O)c3ccc(-c4c5nc(c(-c6c(F)c(F)c(F)c(F)c6F)c6ccc([nH]6)c(-c6c(F)c(F)c(F)c(F)c6F)c6nc(c(-c7c(F)c(F)c(F)c(F)c7F)c7ccc4[nH]7)C=C6)C=C5)cc3)c2)cc1
REMARK SMILES IDX 21 1 20 4 19 7 17 8 18 9 16 11 11 12 12 13 92 14 13 15 14 18
REMARK SMILES IDX 10 20 9 21 8 22 5 23 6 24 94 25 7 26 93 28 2 32 3 33 4 34
REMARK SMILES IDX 1 35 15 38 22 40 23 43 24 46 25 49 26 52 27 53 28 55 29 56
REMARK SMILES IDX 30 57 91 58 31 59 90 61 32 63 33 66 34 67 84 68 35 69 89 70
REMARK SMILES IDX 83 71 85 72 36 73 88 74 82 76 81 78 37 80 69 83 49 84 68 85
REMARK SMILES IDX 50 86 53 87 67 88 86 89 51 90 52 92 66 94 87 95 54 98 38 100
REMARK SMILES IDX 39 101 47 102 40 103 41 104 45 105 48 106 42 107 43 108
REMARK SMILES IDX 46 109 44 110 70 111 71 112 79 113 72 114 73 115 77 116
REMARK SMILES IDX 80 117 74 118 75 119 78 120 76 121 55 122 56 123 64 124
REMARK SMILES IDX 57 125 58 126 62 127 65 128 59 129 60 130 63 131 61 132
REMARK H PARENT 21 2 21 3 20 5 20 6 19 10 12 16 92 17 13 19 6 27 94 29 7 30
REMARK H PARENT 93 31 1 36 1 37 15 39 22 41 22 42 23 44 23 45 24 47 24 48
REMARK H PARENT 25 50 25 51 26 54 30 60 91 62 31 64 90 65 89 75 83 77 85 79
REMARK H PARENT 88 81 82 82 50 91 53 93 86 96 51 97 87 99
REMARK Flexibility Score: inf
ROOT
ATOM      1  C   UNL A   1      33.641  25.153  22.492  1.00  0.00    -0.036 C 
ATOM      2  H   UNL A   1      32.640  24.878  22.230  1.00  0.00     0.028 H 
ATOM      3  H   UNL A   1      34.265  25.416  21.662  1.00  0.00     0.028 H 
ENDROOT
BRANCH   1   4
ATOM      4  C   UNL A   1      34.305  23.933  23.121  1.00  0.00     0.018 C 
ATOM      5  H   UNL A   1      35.319  23.891  22.781  1.00  0.00     0.049 H 
ATOM      6  H   UNL A   1      34.226  24.055  24.182  1.00  0.00     0.049 H 
BRANCH   4   7
ATOM      7  N   UNL A   1      33.665  22.669  22.800  1.00  0.00    -0.352 N 
ATOM      8  C   UNL A   1      32.549  22.070  23.341  1.00  0.00     0.255 C 
ATOM      9  O   UNL A   1      32.233  20.939  22.968  1.00  0.00    -0.269 OA
ATOM     10  H   UNL A   1      34.097  22.158  22.079  1.00  0.00     0.163 HD
BRANCH   8  11
ATOM     11  C   UNL A   1      31.751  22.697  24.426  1.00  0.00     0.083 A 
ATOM     12  C   UNL A   1      30.391  24.546  25.251  1.00  0.00     0.087 A 
ATOM     13  C   UNL A   1      30.525  24.048  26.551  1.00  0.00    -0.031 A 
ATOM     14  C   UNL A   1      30.928  23.800  24.190  1.00  0.00    -0.018 A 
ATOM     15  C   UNL A   1      31.223  22.860  26.788  1.00  0.00    -0.017 A 
ATOM     16  H   UNL A   1      30.104  24.560  27.341  1.00  0.00     0.065 H 
ATOM     17  H   UNL A   1      30.710  24.071  23.219  1.00  0.00     0.066 H 
ATOM     18  C   UNL A   1      31.845  22.199  25.731  1.00  0.00     0.128 A 
ATOM     19  H   UNL A   1      31.278  22.474  27.744  1.00  0.00     0.066 H 
BRANCH  12  20
ATOM     20  N   UNL A   1      29.792  25.814  25.050  1.00  0.00    -0.151 NA
ATOM     21  N   UNL A   1      29.781  26.085  23.826  1.00  0.00    -0.151 NA
BRANCH  21  22
ATOM     22  C   UNL A   1      29.403  27.408  23.554  1.00  0.00     0.086 A 
ATOM     23  C   UNL A   1      28.582  29.944  22.688  1.00  0.00     0.082 A 
ATOM     24  C   UNL A   1      27.623  28.986  23.027  1.00  0.00    -0.040 A 
ATOM     25  C   UNL A   1      29.946  29.650  22.783  1.00  0.00    -0.040 A 
ATOM     26  C   UNL A   1      28.041  27.721  23.454  1.00  0.00    -0.033 A 
ATOM     27  H   UNL A   1      26.618  29.209  22.962  1.00  0.00     0.064 H 
ATOM     28  C   UNL A   1      30.350  28.384  23.217  1.00  0.00    -0.033 A 
ATOM     29  H   UNL A   1      30.649  30.362  22.535  1.00  0.00     0.064 H 
ATOM     30  H   UNL A   1      27.335  27.009  23.699  1.00  0.00     0.065 H 
ATOM     31  H   UNL A   1      31.357  28.166  23.289  1.00  0.00     0.065 H 
BRANCH  23  32
ATOM     32  S   UNL A   1      28.114  31.534  22.064  1.00  0.00     0.238 S 
ATOM     33  O   UNL A   1      27.330  32.200  23.077  1.00  0.00    -0.207 OA
ATOM     34  O   UNL A   1      27.665  31.368  20.703  1.00  0.00    -0.207 OA
BRANCH  32  35
ATOM     35  N   UNL A   1      29.553  32.398  21.980  1.00  0.00    -0.225 NA
ATOM     36  H   UNL A   1      30.178  31.952  21.308  1.00  0.00     0.137 HD
ATOM     37  H   UNL A   1      29.996  32.412  22.898  1.00  0.00     0.137 HD
ENDBRANCH  32  35
ENDBRANCH  23  32
ENDBRANCH  21  22
ENDBRANCH  12  20
BRANCH  18  38
ATOM     38  O   UNL A   1      32.548  21.066  26.048  1.00  0.00    -0.507 OA
ATOM     39  H   UNL A   1      32.721  20.858  26.945  1.00  0.00     0.293 HD
ENDBRANCH  18  38
ENDBRANCH   8  11
ENDBRANCH   4   7
ENDBRANCH   1   4
BRANCH   1  40
ATOM     40  C   UNL A   1      33.564  26.415  23.351  1.00  0.00    -0.052 C 
ATOM     41  H   UNL A   1      32.626  26.888  23.147  1.00  0.00     0.027 H 
ATOM     42  H   UNL A   1      34.424  26.991  23.082  1.00  0.00     0.027 H 
BRANCH  40  43
ATOM     43  C   UNL A   1      33.666  26.224  24.866  1.00  0.00    -0.052 C 
ATOM     44  H   UNL A   1      34.702  26.115  25.111  1.00  0.00     0.027 H 
ATOM     45  H   UNL A   1      33.065  25.368  25.085  1.00  0.00     0.027 H 
BRANCH  43  46
ATOM     46  C   UNL A   1      33.101  27.349  25.736  1.00  0.00    -0.036 C 
ATOM     47  H   UNL A   1      32.300  26.943  26.317  1.00  0.00     0.028 H 
ATOM     48  H   UNL A   1      32.801  28.118  25.056  1.00  0.00     0.028 H 
BRANCH  46  49
ATOM     49  C   UNL A   1      34.086  28.006  26.694  1.00  0.00     0.018 C 
ATOM     50  H   UNL A   1      35.059  27.990  26.247  1.00  0.00     0.049 H 
ATOM     51  H   UNL A   1      34.058  27.454  27.610  1.00  0.00     0.049 H 
BRANCH  49  52
ATOM     52  N   UNL A   1      33.744  29.384  27.007  1.00  0.00    -0.352 N 
ATOM     53  C   UNL A   1      34.460  30.314  27.720  1.00  0.00     0.251 C 
ATOM     54  H   UNL A   1      32.878  29.693  26.657  1.00  0.00     0.163 HD
ATOM     55  O   UNL A   1      33.962  31.399  28.002  1.00  0.00    -0.269 OA
BRANCH  53  56
ATOM     56  C   UNL A   1      35.832  29.997  28.176  1.00  0.00     0.039 A 
ATOM     57  C   UNL A   1      36.022  29.544  29.486  1.00  0.00    -0.049 A 
ATOM     58  C   UNL A   1      36.925  30.147  27.320  1.00  0.00    -0.049 A 
ATOM     59  C   UNL A   1      37.301  29.183  29.918  1.00  0.00    -0.053 A 
ATOM     60  H   UNL A   1      35.220  29.478  30.133  1.00  0.00     0.063 H 
ATOM     61  C   UNL A   1      38.187  29.720  27.728  1.00  0.00    -0.053 A 
ATOM     62  H   UNL A   1      36.798  30.571  26.389  1.00  0.00     0.063 H 
ATOM     63  C   UNL A   1      38.388  29.240  29.032  1.00  0.00    -0.014 A 
ATOM     64  H   UNL A   1      37.447  28.874  30.891  1.00  0.00     0.063 H 
ATOM     65  H   UNL A   1      38.977  29.759  27.067  1.00  0.00     0.063 H 
BRANCH  63  66
ATOM     66  C   UNL A   1      39.757  28.834  29.444  1.00  0.00     0.031 A 
ATOM     67  C   UNL A   1      40.567  29.746  30.321  1.00  0.00     0.074 A 
ATOM     68  C   UNL A   1      40.299  27.699  28.964  1.00  0.00     0.049 A 
ATOM     69  N   UNL A   1      41.825  29.658  30.672  1.00  0.00    -0.248 NA
ATOM     70  C   UNL A   1      39.878  30.935  30.847  1.00  0.00    -0.034 C 
ATOM     71  C   UNL A   1      39.625  26.743  28.086  1.00  0.00    -0.036 A 
ATOM     72  N   UNL A   1      41.554  27.166  29.134  1.00  0.00    -0.354 N 
ATOM     73  C   UNL A   1      42.082  30.790  31.436  1.00  0.00     0.074 A 
ATOM     74  C   UNL A   1      40.866  31.573  31.456  1.00  0.00    -0.034 C 
ATOM     75  H   UNL A   1      38.885  31.203  30.761  1.00  0.00     0.065 H 
ATOM     76  C   UNL A   1      40.467  25.735  27.805  1.00  0.00    -0.036 A 
ATOM     77  H   UNL A   1      38.657  26.829  27.739  1.00  0.00     0.065 H 
ATOM     78  C   UNL A   1      41.753  25.994  28.445  1.00  0.00     0.049 A 
ATOM     79  H   UNL A   1      42.245  27.584  29.697  1.00  0.00     0.167 HD
ATOM     80  C   UNL A   1      43.224  31.135  32.078  1.00  0.00     0.037 A 
ATOM     81  H   UNL A   1      40.779  32.506  31.889  1.00  0.00     0.065 H 
ATOM     82  H   UNL A   1      40.240  24.910  27.228  1.00  0.00     0.065 H 
ATOM     83  C   UNL A   1      42.854  25.226  28.332  1.00  0.00     0.037 A 
ATOM     84  C   UNL A   1      44.419  30.336  32.083  1.00  0.00     0.049 A 
ATOM     85  C   UNL A   1      44.113  25.632  29.050  1.00  0.00     0.074 A 
ATOM     86  C   UNL A   1      45.614  30.573  32.741  1.00  0.00    -0.036 A 
ATOM     87  N   UNL A   1      44.569  29.138  31.401  1.00  0.00    -0.354 N 
ATOM     88  N   UNL A   1      44.334  26.687  29.796  1.00  0.00    -0.248 NA
ATOM     89  C   UNL A   1      45.275  24.744  28.910  1.00  0.00    -0.034 C 
ATOM     90  C   UNL A   1      46.501  29.541  32.420  1.00  0.00    -0.036 A 
ATOM     91  H   UNL A   1      45.814  31.374  33.361  1.00  0.00     0.065 H 
ATOM     92  C   UNL A   1      45.843  28.634  31.607  1.00  0.00     0.049 A 
ATOM     93  H   UNL A   1      43.875  28.709  30.851  1.00  0.00     0.167 HD
ATOM     94  C   UNL A   1      45.640  26.567  30.251  1.00  0.00     0.074 A 
ATOM     95  C   UNL A   1      46.167  25.339  29.691  1.00  0.00    -0.034 C 
ATOM     96  H   UNL A   1      45.373  23.882  28.351  1.00  0.00     0.065 H 
ATOM     97  H   UNL A   1      47.481  29.469  32.736  1.00  0.00     0.065 H 
ATOM     98  C   UNL A   1      46.340  27.397  31.062  1.00  0.00     0.037 A 
ATOM     99  H   UNL A   1      47.114  24.974  29.877  1.00  0.00     0.065 H 
BRANCH  80 100
ATOM    100  C   UNL A   1      43.236  32.437  32.825  1.00  0.00     0.064 A 
ATOM    101  C   UNL A   1      42.890  32.511  34.183  1.00  0.00     0.173 A 
ATOM    102  C   UNL A   1      43.628  33.622  32.184  1.00  0.00     0.173 A 
ATOM    103  F   UNL A   1      42.496  31.411  34.840  1.00  0.00    -0.203 F 
ATOM    104  C   UNL A   1      42.908  33.727  34.862  1.00  0.00     0.198 A 
ATOM    105  C   UNL A   1      43.677  34.830  32.874  1.00  0.00     0.198 A 
ATOM    106  F   UNL A   1      43.975  33.607  30.888  1.00  0.00    -0.203 F 
ATOM    107  F   UNL A   1      42.523  33.781  36.145  1.00  0.00    -0.200 F 
ATOM    108  C   UNL A   1      43.308  34.884  34.210  1.00  0.00     0.200 A 
ATOM    109  F   UNL A   1      44.077  35.944  32.246  1.00  0.00    -0.200 F 
ATOM    110  F   UNL A   1      43.331  36.051  34.867  1.00  0.00    -0.200 F 
ENDBRANCH  80 100
BRANCH  83 111
ATOM    111  C   UNL A   1      42.811  23.983  27.517  1.00  0.00     0.064 A 
ATOM    112  C   UNL A   1      42.443  22.758  28.093  1.00  0.00     0.173 A 
ATOM    113  C   UNL A   1      43.141  23.991  26.154  1.00  0.00     0.173 A 
ATOM    114  F   UNL A   1      42.141  22.697  29.398  1.00  0.00    -0.203 F 
ATOM    115  C   UNL A   1      42.426  21.586  27.341  1.00  0.00     0.198 A 
ATOM    116  C   UNL A   1      43.093  22.822  25.397  1.00  0.00     0.198 A 
ATOM    117  F   UNL A   1      43.501  25.137  25.557  1.00  0.00    -0.203 F 
ATOM    118  F   UNL A   1      42.115  20.421  27.928  1.00  0.00    -0.200 F 
ATOM    119  C   UNL A   1      42.745  21.619  25.992  1.00  0.00     0.200 A 
ATOM    120  F   UNL A   1      43.389  22.863  24.091  1.00  0.00    -0.200 F 
ATOM    121  F   UNL A   1      42.722  20.493  25.268  1.00  0.00    -0.200 F 
ENDBRANCH  83 111
BRANCH  98 122
ATOM    122  C   UNL A   1      47.731  26.985  31.446  1.00  0.00     0.064 A 
ATOM    123  C   UNL A   1      47.974  26.087  32.495  1.00  0.00     0.173 A 
ATOM    124  C   UNL A   1      48.830  27.442  30.702  1.00  0.00     0.173 A 
ATOM    125  F   UNL A   1      46.957  25.635  33.243  1.00  0.00    -0.203 F 
ATOM    126  C   UNL A   1      49.269  25.673  32.793  1.00  0.00     0.198 A 
ATOM    127  C   UNL A   1      50.120  27.004  30.986  1.00  0.00     0.198 A 
ATOM    128  F   UNL A   1      48.649  28.299  29.685  1.00  0.00    -0.203 F 
ATOM    129  F   UNL A   1      49.482  24.840  33.822  1.00  0.00    -0.200 F 
ATOM    130  C   UNL A   1      50.339  26.122  32.033  1.00  0.00     0.200 A 
ATOM    131  F   UNL A   1      51.150  27.429  30.241  1.00  0.00    -0.200 F 
ATOM    132  F   UNL A   1      51.582  25.707  32.313  1.00  0.00    -0.200 F 
ENDBRANCH  98 122
ENDBRANCH  63  66
ENDBRANCH  53  56
ENDBRANCH  49  52
ENDBRANCH  46  49
ENDBRANCH  43  46
ENDBRANCH  40  43
ENDBRANCH   1  40
TORSDOF 18
ENDMDL
MODEL 9
REMARK VINA RESULT:     -11.9      5.959     11.305
REMARK SMILES NS(=O)(=O)c1ccc(/N=N/c2ccc(O)c(C(=O)NCCCCCCNC(=O)c3ccc(-c4c5nc(c(-c6c(F)c(F)c(F)c(F)c6F)c6ccc([nH]6)c(-c6c(F)c(F)c(F)c(F)c6F)c6nc(c(-c7c(F)c(F)c(F)c(F)c7F)c7ccc4[nH]7)C=C6)C=C5)cc3)c2)cc1
REMARK SMILES IDX 21 1 20 4 19 7 17 8 18 9 16 11 11 12 12 13 92 14 13 15 14 18
REMARK SMILES IDX 10 20 9 21 8 22 5 23 6 24 94 25 7 26 93 28 2 32 3 33 4 34
REMARK SMILES IDX 1 35 15 38 22 40 23 43 24 46 25 49 26 52 27 53 28 55 29 56
REMARK SMILES IDX 30 57 91 58 31 59 90 61 32 63 33 66 34 67 84 68 35 69 89 70
REMARK SMILES IDX 83 71 85 72 36 73 88 74 82 76 81 78 37 80 69 83 49 84 68 85
REMARK SMILES IDX 50 86 53 87 67 88 86 89 51 90 52 92 66 94 87 95 54 98 38 100
REMARK SMILES IDX 39 101 47 102 40 103 41 104 45 105 48 106 42 107 43 108
REMARK SMILES IDX 46 109 44 110 70 111 71 112 79 113 72 114 73 115 77 116
REMARK SMILES IDX 80 117 74 118 75 119 78 120 76 121 55 122 56 123 64 124
REMARK SMILES IDX 57 125 58 126 62 127 65 128 59 129 60 130 63 131 61 132
REMARK H PARENT 21 2 21 3 20 5 20 6 19 10 12 16 92 17 13 19 6 27 94 29 7 30
REMARK H PARENT 93 31 1 36 1 37 15 39 22 41 22 42 23 44 23 45 24 47 24 48
REMARK H PARENT 25 50 25 51 26 54 30 60 91 62 31 64 90 65 89 75 83 77 85 79
REMARK H PARENT 88 81 82 82 50 91 53 93 86 96 51 97 87 99
REMARK Flexibility Score: inf
ROOT
ATOM      1  C   UNL A   1      35.177  22.841  25.069  1.00  0.00    -0.036 C 
ATOM      2  H   UNL A   1      34.962  23.061  26.094  1.00  0.00     0.028 H 
ATOM      3  H   UNL A   1      35.924  23.466  24.623  1.00  0.00     0.028 H 
ENDROOT
BRANCH   1   4
ATOM      4  C   UNL A   1      33.907  23.099  24.264  1.00  0.00     0.018 C 
ATOM      5  H   UNL A   1      33.508  22.155  23.957  1.00  0.00     0.049 H 
ATOM      6  H   UNL A   1      33.245  23.643  24.906  1.00  0.00     0.049 H 
BRANCH   4   7
ATOM      7  N   UNL A   1      34.104  23.917  23.080  1.00  0.00    -0.352 N 
ATOM      8  C   UNL A   1      33.466  25.067  22.673  1.00  0.00     0.255 C 
ATOM      9  O   UNL A   1      33.740  25.549  21.573  1.00  0.00    -0.269 OA
ATOM     10  H   UNL A   1      34.807  23.598  22.470  1.00  0.00     0.163 HD
BRANCH   8  11
ATOM     11  C   UNL A   1      32.390  25.710  23.470  1.00  0.00     0.083 A 
ATOM     12  C   UNL A   1      31.687  27.326  25.157  1.00  0.00     0.087 A 
ATOM     13  C   UNL A   1      30.437  26.703  25.215  1.00  0.00    -0.031 A 
ATOM     14  C   UNL A   1      32.615  26.876  24.205  1.00  0.00    -0.018 A 
ATOM     15  C   UNL A   1      30.142  25.623  24.377  1.00  0.00    -0.017 A 
ATOM     16  H   UNL A   1      29.726  27.044  25.880  1.00  0.00     0.065 H 
ATOM     17  H   UNL A   1      33.480  27.416  24.045  1.00  0.00     0.066 H 
ATOM     18  C   UNL A   1      31.120  25.122  23.522  1.00  0.00     0.128 A 
ATOM     19  H   UNL A   1      29.200  25.198  24.392  1.00  0.00     0.066 H 
BRANCH  12  20
ATOM     20  N   UNL A   1      32.008  28.331  26.101  1.00  0.00    -0.151 NA
ATOM     21  N   UNL A   1      31.551  29.433  25.716  1.00  0.00    -0.151 NA
BRANCH  21  22
ATOM     22  C   UNL A   1      32.002  30.520  26.478  1.00  0.00     0.086 A 
ATOM     23  C   UNL A   1      33.028  32.822  27.706  1.00  0.00     0.082 A 
ATOM     24  C   UNL A   1      31.809  32.886  27.028  1.00  0.00    -0.040 A 
ATOM     25  C   UNL A   1      33.737  31.618  27.781  1.00  0.00    -0.040 A 
ATOM     26  C   UNL A   1      31.305  31.734  26.414  1.00  0.00    -0.033 A 
ATOM     27  H   UNL A   1      31.286  33.773  26.980  1.00  0.00     0.064 H 
ATOM     28  C   UNL A   1      33.220  30.473  27.169  1.00  0.00    -0.033 A 
ATOM     29  H   UNL A   1      34.635  31.576  28.287  1.00  0.00     0.064 H 
ATOM     30  H   UNL A   1      30.407  31.780  25.906  1.00  0.00     0.065 H 
ATOM     31  H   UNL A   1      33.742  29.584  27.225  1.00  0.00     0.065 H 
BRANCH  23  32
ATOM     32  S   UNL A   1      33.755  34.264  28.432  1.00  0.00     0.238 S 
ATOM     33  O   UNL A   1      34.733  33.834  29.402  1.00  0.00    -0.207 OA
ATOM     34  O   UNL A   1      32.695  35.193  28.741  1.00  0.00    -0.207 OA
BRANCH  32  35
ATOM     35  N   UNL A   1      34.643  34.965  27.189  1.00  0.00    -0.225 NA
ATOM     36  H   UNL A   1      35.022  34.232  26.589  1.00  0.00     0.137 HD
ATOM     37  H   UNL A   1      35.408  35.511  27.583  1.00  0.00     0.137 HD
ENDBRANCH  32  35
ENDBRANCH  23  32
ENDBRANCH  21  22
ENDBRANCH  12  20
BRANCH  18  38
ATOM     38  O   UNL A   1      30.771  24.035  22.764  1.00  0.00    -0.507 OA
ATOM     39  H   UNL A   1      30.216  24.143  22.017  1.00  0.00     0.293 HD
ENDBRANCH  18  38
ENDBRANCH   8  11
ENDBRANCH   4   7
ENDBRANCH   1   4
BRANCH   1  40
ATOM     40  C   UNL A   1      35.753  21.426  25.011  1.00  0.00    -0.052 C 
ATOM     41  H   UNL A   1      35.144  20.855  24.342  1.00  0.00     0.027 H 
ATOM     42  H   UNL A   1      35.751  21.080  26.023  1.00  0.00     0.027 H 
BRANCH  40  43
ATOM     43  C   UNL A   1      37.205  21.293  24.545  1.00  0.00    -0.052 C 
ATOM     44  H   UNL A   1      37.744  22.141  24.913  1.00  0.00     0.027 H 
ATOM     45  H   UNL A   1      37.155  21.226  23.479  1.00  0.00     0.027 H 
BRANCH  43  46
ATOM     46  C   UNL A   1      37.954  20.037  24.994  1.00  0.00    -0.036 C 
ATOM     47  H   UNL A   1      38.374  19.577  24.125  1.00  0.00     0.028 H 
ATOM     48  H   UNL A   1      37.231  19.434  25.501  1.00  0.00     0.028 H 
BRANCH  46  49
ATOM     49  C   UNL A   1      39.081  20.259  25.995  1.00  0.00     0.018 C 
ATOM     50  H   UNL A   1      38.667  20.247  26.982  1.00  0.00     0.049 H 
ATOM     51  H   UNL A   1      39.535  21.199  25.762  1.00  0.00     0.049 H 
BRANCH  49  52
ATOM     52  N   UNL A   1      40.120  19.245  25.918  1.00  0.00    -0.352 N 
ATOM     53  C   UNL A   1      41.478  19.382  26.072  1.00  0.00     0.251 C 
ATOM     54  H   UNL A   1      39.805  18.332  25.730  1.00  0.00     0.163 HD
ATOM     55  O   UNL A   1      42.227  18.438  25.845  1.00  0.00    -0.269 OA
BRANCH  53  56
ATOM     56  C   UNL A   1      42.045  20.684  26.488  1.00  0.00     0.039 A 
ATOM     57  C   UNL A   1      42.419  21.605  25.504  1.00  0.00    -0.049 A 
ATOM     58  C   UNL A   1      42.210  20.995  27.840  1.00  0.00    -0.049 A 
ATOM     59  C   UNL A   1      42.901  22.863  25.877  1.00  0.00    -0.053 A 
ATOM     60  H   UNL A   1      42.340  21.357  24.505  1.00  0.00     0.063 H 
ATOM     61  C   UNL A   1      42.624  22.272  28.210  1.00  0.00    -0.053 A 
ATOM     62  H   UNL A   1      42.026  20.281  28.561  1.00  0.00     0.063 H 
ATOM     63  C   UNL A   1      42.978  23.217  27.233  1.00  0.00    -0.014 A 
ATOM     64  H   UNL A   1      43.201  23.534  25.153  1.00  0.00     0.063 H 
ATOM     65  H   UNL A   1      42.670  22.525  29.208  1.00  0.00     0.063 H 
BRANCH  63  66
ATOM     66  C   UNL A   1      43.455  24.555  27.667  1.00  0.00     0.031 A 
ATOM     67  C   UNL A   1      42.455  25.609  28.050  1.00  0.00     0.074 A 
ATOM     68  C   UNL A   1      44.769  24.848  27.634  1.00  0.00     0.049 A 
ATOM     69  N   UNL A   1      42.645  26.878  28.311  1.00  0.00    -0.248 NA
ATOM     70  C   UNL A   1      41.047  25.187  28.114  1.00  0.00    -0.034 C 
ATOM     71  C   UNL A   1      45.834  23.920  27.258  1.00  0.00    -0.036 A 
ATOM     72  N   UNL A   1      45.429  26.021  27.906  1.00  0.00    -0.354 N 
ATOM     73  C   UNL A   1      41.382  27.407  28.545  1.00  0.00     0.074 A 
ATOM     74  C   UNL A   1      40.430  26.336  28.346  1.00  0.00    -0.034 C 
ATOM     75  H   UNL A   1      40.645  24.242  28.005  1.00  0.00     0.065 H 
ATOM     76  C   UNL A   1      47.016  24.554  27.334  1.00  0.00    -0.036 A 
ATOM     77  H   UNL A   1      45.701  22.936  26.979  1.00  0.00     0.065 H 
ATOM     78  C   UNL A   1      46.789  25.943  27.722  1.00  0.00     0.049 A 
ATOM     79  H   UNL A   1      44.972  26.841  28.205  1.00  0.00     0.167 HD
ATOM     80  C   UNL A   1      41.049  28.667  28.911  1.00  0.00     0.037 A 
ATOM     81  H   UNL A   1      39.405  26.451  28.382  1.00  0.00     0.065 H 
ATOM     82  H   UNL A   1      47.938  24.127  27.148  1.00  0.00     0.065 H 
ATOM     83  C   UNL A   1      47.740  26.890  27.838  1.00  0.00     0.037 A 
ATOM     84  C   UNL A   1      42.001  29.720  29.141  1.00  0.00     0.049 A 
ATOM     85  C   UNL A   1      47.345  28.286  28.240  1.00  0.00     0.074 A 
ATOM     86  C   UNL A   1      41.770  31.019  29.560  1.00  0.00    -0.036 A 
ATOM     87  N   UNL A   1      43.373  29.591  28.977  1.00  0.00    -0.354 N 
ATOM     88  N   UNL A   1      46.151  28.766  28.491  1.00  0.00    -0.248 NA
ATOM     89  C   UNL A   1      48.426  29.272  28.375  1.00  0.00    -0.034 C 
ATOM     90  C   UNL A   1      42.996  31.687  29.606  1.00  0.00    -0.036 A 
ATOM     91  H   UNL A   1      40.850  31.422  29.797  1.00  0.00     0.065 H 
ATOM     92  C   UNL A   1      43.998  30.792  29.269  1.00  0.00     0.049 A 
ATOM     93  H   UNL A   1      43.834  28.768  28.695  1.00  0.00     0.167 HD
ATOM     94  C   UNL A   1      46.342  30.092  28.857  1.00  0.00     0.074 A 
ATOM     95  C   UNL A   1      47.766  30.344  28.789  1.00  0.00    -0.034 C 
ATOM     96  H   UNL A   1      49.437  29.159  28.196  1.00  0.00     0.065 H 
ATOM     97  H   UNL A   1      43.133  32.681  29.850  1.00  0.00     0.065 H 
ATOM     98  C   UNL A   1      45.420  31.016  29.220  1.00  0.00     0.037 A 
ATOM     99  H   UNL A   1      48.210  31.244  29.031  1.00  0.00     0.065 H 
BRANCH  80 100
ATOM    100  C   UNL A   1      39.590  28.980  29.081  1.00  0.00     0.064 A 
ATOM    101  C   UNL A   1      38.794  29.394  28.002  1.00  0.00     0.173 A 
ATOM    102  C   UNL A   1      38.971  28.832  30.332  1.00  0.00     0.173 A 
ATOM    103  F   UNL A   1      39.338  29.562  26.787  1.00  0.00    -0.203 F 
ATOM    104  C   UNL A   1      37.442  29.678  28.176  1.00  0.00     0.198 A 
ATOM    105  C   UNL A   1      37.613  29.085  30.495  1.00  0.00     0.198 A 
ATOM    106  F   UNL A   1      39.684  28.433  31.396  1.00  0.00    -0.203 F 
ATOM    107  F   UNL A   1      36.715  30.124  27.141  1.00  0.00    -0.200 F 
ATOM    108  C   UNL A   1      36.850  29.518  29.420  1.00  0.00     0.200 A 
ATOM    109  F   UNL A   1      37.040  28.916  31.695  1.00  0.00    -0.200 F 
ATOM    110  F   UNL A   1      35.548  29.785  29.584  1.00  0.00    -0.200 F 
ENDBRANCH  80 100
BRANCH  83 111
ATOM    111  C   UNL A   1      49.164  26.547  27.585  1.00  0.00     0.064 A 
ATOM    112  C   UNL A   1      50.016  26.189  28.640  1.00  0.00     0.173 A 
ATOM    113  C   UNL A   1      49.704  26.575  26.291  1.00  0.00     0.173 A 
ATOM    114  F   UNL A   1      49.550  26.170  29.898  1.00  0.00    -0.203 F 
ATOM    115  C   UNL A   1      51.357  25.891  28.414  1.00  0.00     0.198 A 
ATOM    116  C   UNL A   1      51.039  26.247  26.062  1.00  0.00     0.198 A 
ATOM    117  F   UNL A   1      48.931  26.913  25.248  1.00  0.00    -0.203 F 
ATOM    118  F   UNL A   1      52.160  25.597  29.446  1.00  0.00    -0.200 F 
ATOM    119  C   UNL A   1      51.867  25.914  27.124  1.00  0.00     0.200 A 
ATOM    120  F   UNL A   1      51.522  26.257  24.813  1.00  0.00    -0.200 F 
ATOM    121  F   UNL A   1      53.155  25.622  26.905  1.00  0.00    -0.200 F 
ENDBRANCH  83 111
BRANCH  98 122
ATOM    122  C   UNL A   1      45.916  32.372  29.629  1.00  0.00     0.064 A 
ATOM    123  C   UNL A   1      46.301  32.652  30.948  1.00  0.00     0.173 A 
ATOM    124  C   UNL A   1      46.079  33.381  28.667  1.00  0.00     0.173 A 
ATOM    125  F   UNL A   1      46.151  31.723  31.905  1.00  0.00    -0.203 F 
ATOM    126  C   UNL A   1      46.816  33.898  31.291  1.00  0.00     0.198 A 
ATOM    127  C   UNL A   1      46.621  34.617  29.009  1.00  0.00     0.198 A 
ATOM    128  F   UNL A   1      45.730  33.160  27.390  1.00  0.00    -0.203 F 
ATOM    129  F   UNL A   1      47.146  34.156  32.565  1.00  0.00    -0.200 F 
ATOM    130  C   UNL A   1      46.986  34.875  30.321  1.00  0.00     0.200 A 
ATOM    131  F   UNL A   1      46.795  35.554  28.067  1.00  0.00    -0.200 F 
ATOM    132  F   UNL A   1      47.499  36.068  30.652  1.00  0.00    -0.200 F 
ENDBRANCH  98 122
ENDBRANCH  63  66
ENDBRANCH  53  56
ENDBRANCH  49  52
ENDBRANCH  46  49
ENDBRANCH  43  46
ENDBRANCH  40  43
ENDBRANCH   1  40
TORSDOF 18
ENDMDL
MODEL 10
REMARK VINA RESULT:     -11.9      2.741      7.915
REMARK SMILES NS(=O)(=O)c1ccc(/N=N/c2ccc(O)c(C(=O)NCCCCCCNC(=O)c3ccc(-c4c5nc(c(-c6c(F)c(F)c(F)c(F)c6F)c6ccc([nH]6)c(-c6c(F)c(F)c(F)c(F)c6F)c6nc(c(-c7c(F)c(F)c(F)c(F)c7F)c7ccc4[nH]7)C=C6)C=C5)cc3)c2)cc1
REMARK SMILES IDX 21 1 20 4 19 7 17 8 18 9 16 11 11 12 12 13 92 14 13 15 14 18
REMARK SMILES IDX 10 20 9 21 8 22 5 23 6 24 94 25 7 26 93 28 2 32 3 33 4 34
REMARK SMILES IDX 1 35 15 38 22 40 23 43 24 46 25 49 26 52 27 53 28 55 29 56
REMARK SMILES IDX 30 57 91 58 31 59 90 61 32 63 33 66 34 67 84 68 35 69 89 70
REMARK SMILES IDX 83 71 85 72 36 73 88 74 82 76 81 78 37 80 69 83 49 84 68 85
REMARK SMILES IDX 50 86 53 87 67 88 86 89 51 90 52 92 66 94 87 95 54 98 38 100
REMARK SMILES IDX 39 101 47 102 40 103 41 104 45 105 48 106 42 107 43 108
REMARK SMILES IDX 46 109 44 110 70 111 71 112 79 113 72 114 73 115 77 116
REMARK SMILES IDX 80 117 74 118 75 119 78 120 76 121 55 122 56 123 64 124
REMARK SMILES IDX 57 125 58 126 62 127 65 128 59 129 60 130 63 131 61 132
REMARK H PARENT 21 2 21 3 20 5 20 6 19 10 12 16 92 17 13 19 6 27 94 29 7 30
REMARK H PARENT 93 31 1 36 1 37 15 39 22 41 22 42 23 44 23 45 24 47 24 48
REMARK H PARENT 25 50 25 51 26 54 30 60 91 62 31 64 90 65 89 75 83 77 85 79
REMARK H PARENT 88 81 82 82 50 91 53 93 86 96 51 97 87 99
REMARK Flexibility Score: inf
ROOT
ATOM      1  C   UNL A   1      33.430  28.905  25.359  1.00  0.00    -0.036 C 
ATOM      2  H   UNL A   1      32.634  28.786  24.654  1.00  0.00     0.028 H 
ATOM      3  H   UNL A   1      34.380  29.144  24.925  1.00  0.00     0.028 H 
ENDROOT
BRANCH   1   4
ATOM      4  C   UNL A   1      33.633  27.565  26.057  1.00  0.00     0.018 C 
ATOM      5  H   UNL A   1      34.129  26.905  25.376  1.00  0.00     0.049 H 
ATOM      6  H   UNL A   1      34.209  27.764  26.938  1.00  0.00     0.049 H 
BRANCH   4   7
ATOM      7  N   UNL A   1      32.405  26.927  26.498  1.00  0.00    -0.352 N 
ATOM      8  C   UNL A   1      31.942  25.646  26.297  1.00  0.00     0.255 C 
ATOM      9  O   UNL A   1      30.815  25.345  26.694  1.00  0.00    -0.269 OA
ATOM     10  H   UNL A   1      31.808  27.502  27.028  1.00  0.00     0.163 HD
BRANCH   8  11
ATOM     11  C   UNL A   1      32.712  24.627  25.538  1.00  0.00     0.083 A 
ATOM     12  C   UNL A   1      34.711  23.256  25.270  1.00  0.00     0.087 A 
ATOM     13  C   UNL A   1      34.319  22.963  23.960  1.00  0.00    -0.031 A 
ATOM     14  C   UNL A   1      33.843  24.009  26.075  1.00  0.00    -0.018 A 
ATOM     15  C   UNL A   1      33.112  23.454  23.452  1.00  0.00    -0.017 A 
ATOM     16  H   UNL A   1      34.924  22.378  23.363  1.00  0.00     0.065 H 
ATOM     17  H   UNL A   1      34.043  24.107  27.083  1.00  0.00     0.066 H 
ATOM     18  C   UNL A   1      32.322  24.294  24.234  1.00  0.00     0.128 A 
ATOM     19  H   UNL A   1      32.807  23.195  22.501  1.00  0.00     0.066 H 
BRANCH  12  20
ATOM     20  N   UNL A   1      35.994  22.857  25.718  1.00  0.00    -0.151 NA
ATOM     21  N   UNL A   1      36.491  22.045  24.903  1.00  0.00    -0.151 NA
BRANCH  21  22
ATOM     22  C   UNL A   1      37.663  21.434  25.371  1.00  0.00     0.086 A 
ATOM     23  C   UNL A   1      40.164  20.359  26.038  1.00  0.00     0.082 A 
ATOM     24  C   UNL A   1      39.872  21.685  26.368  1.00  0.00    -0.040 A 
ATOM     25  C   UNL A   1      39.218  19.564  25.384  1.00  0.00    -0.040 A 
ATOM     26  C   UNL A   1      38.623  22.215  26.028  1.00  0.00    -0.033 A 
ATOM     27  H   UNL A   1      40.570  22.266  26.856  1.00  0.00     0.064 H 
ATOM     28  C   UNL A   1      37.972  20.104  25.055  1.00  0.00    -0.033 A 
ATOM     29  H   UNL A   1      39.438  18.585  25.146  1.00  0.00     0.064 H 
ATOM     30  H   UNL A   1      38.407  23.197  26.265  1.00  0.00     0.065 H 
ATOM     31  H   UNL A   1      37.272  19.518  24.573  1.00  0.00     0.065 H 
BRANCH  23  32
ATOM     32  S   UNL A   1      41.757  19.658  26.370  1.00  0.00     0.238 S 
ATOM     33  O   UNL A   1      42.743  20.704  26.244  1.00  0.00    -0.207 OA
ATOM     34  O   UNL A   1      41.848  18.400  25.668  1.00  0.00    -0.207 OA
BRANCH  32  35
ATOM     35  N   UNL A   1      41.721  19.278  28.007  1.00  0.00    -0.225 NA
ATOM     36  H   UNL A   1      40.873  19.662  28.426  1.00  0.00     0.137 HD
ATOM     37  H   UNL A   1      42.538  19.678  28.467  1.00  0.00     0.137 HD
ENDBRANCH  32  35
ENDBRANCH  23  32
ENDBRANCH  21  22
ENDBRANCH  12  20
BRANCH  18  38
ATOM     38  O   UNL A   1      31.177  24.771  23.653  1.00  0.00    -0.507 OA
ATOM     39  H   UNL A   1      31.229  25.413  22.973  1.00  0.00     0.293 HD
ENDBRANCH  18  38
ENDBRANCH   8  11
ENDBRANCH   4   7
ENDBRANCH   1   4
BRANCH   1  40
ATOM     40  C   UNL A   1      33.085  30.101  26.247  1.00  0.00    -0.052 C 
ATOM     41  H   UNL A   1      33.740  30.903  25.979  1.00  0.00     0.027 H 
ATOM     42  H   UNL A   1      33.198  29.747  27.250  1.00  0.00     0.027 H 
BRANCH  40  43
ATOM     43  C   UNL A   1      31.650  30.627  26.167  1.00  0.00    -0.052 C 
ATOM     44  H   UNL A   1      31.036  29.991  26.770  1.00  0.00     0.027 H 
ATOM     45  H   UNL A   1      31.405  30.624  25.126  1.00  0.00     0.027 H 
BRANCH  43  46
ATOM     46  C   UNL A   1      31.423  32.066  26.632  1.00  0.00    -0.036 C 
ATOM     47  H   UNL A   1      30.639  32.056  27.360  1.00  0.00     0.028 H 
ATOM     48  H   UNL A   1      31.191  32.623  25.749  1.00  0.00     0.028 H 
BRANCH  46  49
ATOM     49  C   UNL A   1      32.628  32.761  27.253  1.00  0.00     0.018 C 
ATOM     50  H   UNL A   1      33.432  32.745  26.547  1.00  0.00     0.049 H 
ATOM     51  H   UNL A   1      32.874  32.233  28.151  1.00  0.00     0.049 H 
BRANCH  49  52
ATOM     52  N   UNL A   1      32.363  34.142  27.621  1.00  0.00    -0.352 N 
ATOM     53  C   UNL A   1      32.976  34.918  28.575  1.00  0.00     0.251 C 
ATOM     54  H   UNL A   1      31.644  34.583  27.115  1.00  0.00     0.163 HD
ATOM     55  O   UNL A   1      32.538  36.031  28.846  1.00  0.00    -0.269 OA
BRANCH  53  56
ATOM     56  C   UNL A   1      34.156  34.398  29.301  1.00  0.00     0.039 A 
ATOM     57  C   UNL A   1      33.962  33.705  30.500  1.00  0.00    -0.049 A 
ATOM     58  C   UNL A   1      35.447  34.594  28.805  1.00  0.00    -0.049 A 
ATOM     59  C   UNL A   1      35.058  33.155  31.171  1.00  0.00    -0.053 A 
ATOM     60  H   UNL A   1      33.012  33.600  30.890  1.00  0.00     0.063 H 
ATOM     61  C   UNL A   1      36.530  33.987  29.435  1.00  0.00    -0.053 A 
ATOM     62  H   UNL A   1      35.598  35.187  27.975  1.00  0.00     0.063 H 
ATOM     63  C   UNL A   1      36.347  33.266  30.627  1.00  0.00    -0.014 A 
ATOM     64  H   UNL A   1      34.920  32.665  32.068  1.00  0.00     0.063 H 
ATOM     65  H   UNL A   1      37.472  34.068  29.024  1.00  0.00     0.063 H 
BRANCH  63  66
ATOM     66  C   UNL A   1      37.533  32.667  31.293  1.00  0.00     0.031 A 
ATOM     67  C   UNL A   1      38.256  31.527  30.633  1.00  0.00     0.074 A 
ATOM     68  C   UNL A   1      37.903  33.086  32.519  1.00  0.00     0.049 A 
ATOM     69  N   UNL A   1      39.212  30.766  31.105  1.00  0.00    -0.248 NA
ATOM     70  C   UNL A   1      37.822  31.173  29.274  1.00  0.00    -0.034 C 
ATOM     71  C   UNL A   1      37.268  34.166  33.272  1.00  0.00    -0.036 A 
ATOM     72  N   UNL A   1      38.897  32.637  33.353  1.00  0.00    -0.354 N 
ATOM     73  C   UNL A   1      39.473  29.832  30.111  1.00  0.00     0.074 A 
ATOM     74  C   UNL A   1      38.544  30.089  29.033  1.00  0.00    -0.034 C 
ATOM     75  H   UNL A   1      37.134  31.645  28.666  1.00  0.00     0.065 H 
ATOM     76  C   UNL A   1      37.894  34.305  34.453  1.00  0.00    -0.036 A 
ATOM     77  H   UNL A   1      36.467  34.730  32.950  1.00  0.00     0.065 H 
ATOM     78  C   UNL A   1      38.945  33.297  34.557  1.00  0.00     0.049 A 
ATOM     79  H   UNL A   1      39.517  31.910  33.112  1.00  0.00     0.167 HD
ATOM     80  C   UNL A   1      40.416  28.860  30.093  1.00  0.00     0.037 A 
ATOM     81  H   UNL A   1      38.456  29.504  28.186  1.00  0.00     0.065 H 
ATOM     82  H   UNL A   1      37.667  35.011  35.171  1.00  0.00     0.065 H 
ATOM     83  C   UNL A   1      39.738  33.100  35.629  1.00  0.00     0.037 A 
ATOM     84  C   UNL A   1      41.360  28.631  31.153  1.00  0.00     0.049 A 
ATOM     85  C   UNL A   1      40.775  32.010  35.587  1.00  0.00     0.074 A 
ATOM     86  C   UNL A   1      42.386  27.703  31.211  1.00  0.00    -0.036 A 
ATOM     87  N   UNL A   1      41.398  29.345  32.342  1.00  0.00    -0.354 N 
ATOM     88  N   UNL A   1      41.035  31.155  34.629  1.00  0.00    -0.248 NA
ATOM     89  C   UNL A   1      41.628  31.856  36.774  1.00  0.00    -0.034 C 
ATOM     90  C   UNL A   1      43.015  27.825  32.454  1.00  0.00    -0.036 A 
ATOM     91  H   UNL A   1      42.641  27.036  30.465  1.00  0.00     0.065 H 
ATOM     92  C   UNL A   1      42.418  28.865  33.148  1.00  0.00     0.049 A 
ATOM     93  H   UNL A   1      40.791  30.082  32.579  1.00  0.00     0.167 HD
ATOM     94  C   UNL A   1      42.107  30.394  35.076  1.00  0.00     0.074 A 
ATOM     95  C   UNL A   1      42.446  30.884  36.396  1.00  0.00    -0.034 C 
ATOM     96  H   UNL A   1      41.598  32.371  37.668  1.00  0.00     0.065 H 
ATOM     97  H   UNL A   1      43.793  27.240  32.796  1.00  0.00     0.065 H 
ATOM     98  C   UNL A   1      42.755  29.383  34.448  1.00  0.00     0.037 A 
ATOM     99  H   UNL A   1      43.224  30.523  36.969  1.00  0.00     0.065 H 
BRANCH  80 100
ATOM    100  C   UNL A   1      40.470  27.966  28.888  1.00  0.00     0.064 A 
ATOM    101  C   UNL A   1      41.258  28.282  27.770  1.00  0.00     0.173 A 
ATOM    102  C   UNL A   1      39.750  26.762  28.862  1.00  0.00     0.173 A 
ATOM    103  F   UNL A   1      41.957  29.426  27.739  1.00  0.00    -0.203 F 
ATOM    104  C   UNL A   1      41.299  27.441  26.661  1.00  0.00     0.198 A 
ATOM    105  C   UNL A   1      39.819  25.908  27.765  1.00  0.00     0.198 A 
ATOM    106  F   UNL A   1      38.986  26.408  29.906  1.00  0.00    -0.203 F 
ATOM    107  F   UNL A   1      42.017  27.790  25.584  1.00  0.00    -0.200 F 
ATOM    108  C   UNL A   1      40.585  26.252  26.661  1.00  0.00     0.200 A 
ATOM    109  F   UNL A   1      39.140  24.752  27.773  1.00  0.00    -0.200 F 
ATOM    110  F   UNL A   1      40.631  25.441  25.596  1.00  0.00    -0.200 F 
ENDBRANCH  80 100
BRANCH  83 111
ATOM    111  C   UNL A   1      39.593  33.966  36.829  1.00  0.00     0.064 A 
ATOM    112  C   UNL A   1      40.227  35.215  36.895  1.00  0.00     0.173 A 
ATOM    113  C   UNL A   1      38.827  33.563  37.932  1.00  0.00     0.173 A 
ATOM    114  F   UNL A   1      40.988  35.633  35.873  1.00  0.00    -0.203 F 
ATOM    115  C   UNL A   1      40.116  36.020  38.026  1.00  0.00     0.198 A 
ATOM    116  C   UNL A   1      38.693  34.383  39.051  1.00  0.00     0.198 A 
ATOM    117  F   UNL A   1      38.202  32.376  37.919  1.00  0.00    -0.203 F 
ATOM    118  F   UNL A   1      40.770  37.188  38.080  1.00  0.00    -0.200 F 
ATOM    119  C   UNL A   1      39.344  35.606  39.101  1.00  0.00     0.200 A 
ATOM    120  F   UNL A   1      37.934  33.985  40.081  1.00  0.00    -0.200 F 
ATOM    121  F   UNL A   1      39.233  36.382  40.186  1.00  0.00    -0.200 F 
ENDBRANCH  83 111
BRANCH  98 122
ATOM    122  C   UNL A   1      43.934  28.771  35.148  1.00  0.00     0.064 A 
ATOM    123  C   UNL A   1      43.796  27.669  36.003  1.00  0.00     0.173 A 
ATOM    124  C   UNL A   1      45.228  29.252  34.897  1.00  0.00     0.173 A 
ATOM    125  F   UNL A   1      42.578  27.183  36.285  1.00  0.00    -0.203 F 
ATOM    126  C   UNL A   1      44.911  27.080  36.593  1.00  0.00     0.198 A 
ATOM    127  C   UNL A   1      46.342  28.643  35.466  1.00  0.00     0.198 A 
ATOM    128  F   UNL A   1      45.412  30.302  34.081  1.00  0.00    -0.203 F 
ATOM    129  F   UNL A   1      44.754  26.048  37.434  1.00  0.00    -0.200 F 
ATOM    130  C   UNL A   1      46.183  27.560  36.316  1.00  0.00     0.200 A 
ATOM    131  F   UNL A   1      47.571  29.101  35.186  1.00  0.00    -0.200 F 
ATOM    132  F   UNL A   1      47.255  26.979  36.872  1.00  0.00    -0.200 F 
ENDBRANCH  98 122
ENDBRANCH  63  66
ENDBRANCH  53  56
ENDBRANCH  49  52
ENDBRANCH  46  49
ENDBRANCH  43  46
ENDBRANCH  40  43
ENDBRANCH   1  40
TORSDOF 18
ENDMDL
