MODEL 1
REMARK VINA RESULT:     -13.6      0.000      0.000
REMARK SMILES Cc1ccc(-c2nn(-c3ccccc3)cc2[C@@H]2[NH2+][C@H](C(=O)NCCCCCCNC(=O)c3ccc(-c4c5nc(c(-c6c(F)c(F)c(F)c(F)c6F)c6ccc([nH]6)c(-c6c(F)c(F)c(F)c(F)c6F)c6nc(c(-c7c(F)c(F)c(F)c(F)c7F)c7ccc4[nH]7)C=C6)C=C5)cc3)CS2)cc1
REMARK SMILES IDX 25 1 24 4 23 7 22 10 20 11 21 12 19 14 17 15 18 16 96 17
REMARK SMILES IDX 95 21 16 25 6 26 7 27 8 28 15 29 5 31 2 32 3 33 98 34 4 35
REMARK SMILES IDX 97 37 1 41 9 45 10 46 14 47 11 48 13 50 12 52 26 56 27 59
REMARK SMILES IDX 28 62 29 65 30 66 31 68 32 69 33 70 94 71 34 72 93 74 35 76
REMARK SMILES IDX 36 79 37 80 87 81 38 82 92 83 86 84 88 85 39 86 91 87 85 89
REMARK SMILES IDX 84 91 40 93 72 96 52 97 71 98 53 99 56 100 70 101 89 102
REMARK SMILES IDX 54 103 55 105 69 107 90 108 57 111 41 113 42 114 50 115
REMARK SMILES IDX 43 116 44 117 48 118 51 119 45 120 46 121 49 122 47 123
REMARK SMILES IDX 73 124 74 125 82 126 75 127 76 128 80 129 83 130 77 131
REMARK SMILES IDX 78 132 81 133 79 134 58 135 59 136 67 137 60 138 61 139
REMARK SMILES IDX 65 140 68 141 62 142 63 143 66 144 64 145
REMARK H PARENT 25 2 25 3 24 5 24 6 23 8 23 9 22 13 17 18 18 19 18 20 19 22
REMARK H PARENT 95 23 95 24 15 30 3 36 98 38 4 39 97 40 1 42 1 43 1 44 10 49
REMARK H PARENT 14 51 11 53 13 54 12 55 26 57 26 58 27 60 27 61 28 63 28 64
REMARK H PARENT 29 67 33 73 94 75 34 77 93 78 92 88 86 90 88 92 91 94 85 95
REMARK H PARENT 53 104 56 106 89 109 54 110 90 112
REMARK Flexibility Score: inf
ROOT
ATOM      1  C   UNL A   1      33.161  28.286  24.585  1.00  0.00    -0.052 C 
ATOM      2  H   UNL A   1      33.870  28.936  24.117  1.00  0.00     0.027 H 
ATOM      3  H   UNL A   1      33.456  27.532  25.285  1.00  0.00     0.027 H 
ENDROOT
BRANCH   1   4
ATOM      4  C   UNL A   1      32.602  27.394  23.441  1.00  0.00    -0.036 C 
ATOM      5  H   UNL A   1      32.279  26.488  23.911  1.00  0.00     0.028 H 
ATOM      6  H   UNL A   1      31.895  28.057  22.990  1.00  0.00     0.028 H 
BRANCH   4   7
ATOM      7  C   UNL A   1      33.419  26.961  22.222  1.00  0.00     0.018 C 
ATOM      8  H   UNL A   1      32.904  27.309  21.350  1.00  0.00     0.049 H 
ATOM      9  H   UNL A   1      34.389  27.383  22.375  1.00  0.00     0.049 H 
BRANCH   7  10
ATOM     10  N   UNL A   1      33.653  25.535  22.050  1.00  0.00    -0.351 N 
ATOM     11  C   UNL A   1      34.031  24.554  22.927  1.00  0.00     0.279 C 
ATOM     12  O   UNL A   1      33.855  23.394  22.518  1.00  0.00    -0.268 OA
ATOM     13  H   UNL A   1      33.512  25.214  21.130  1.00  0.00     0.163 HD
BRANCH  11  14
ATOM     14  C   UNL A   1      34.692  24.716  24.327  1.00  0.00     0.176 C 
ATOM     15  C   UNL A   1      34.093  23.628  26.410  1.00  0.00     0.163 C 
ATOM     16  N   UNL A   1      33.795  24.745  25.508  1.00  0.00    -0.320 N 
ATOM     17  S   UNL A   1      35.867  23.341  26.274  1.00  0.00    -0.087 SA
ATOM     18  H   UNL A   1      33.862  23.817  27.437  1.00  0.00     0.115 H 
ATOM     19  H   UNL A   1      33.927  25.625  26.008  1.00  0.00     0.348 HD
ATOM     20  H   UNL A   1      32.829  24.663  25.190  1.00  0.00     0.348 HD
ATOM     21  C   UNL A   1      35.871  23.750  24.512  1.00  0.00     0.061 C 
ATOM     22  H   UNL A   1      35.059  25.720  24.303  1.00  0.00     0.108 H 
ATOM     23  H   UNL A   1      36.791  24.223  24.238  1.00  0.00     0.045 H 
ATOM     24  H   UNL A   1      35.779  22.880  23.896  1.00  0.00     0.045 H 
BRANCH  15  25
ATOM     25  C   UNL A   1      33.247  22.461  26.012  1.00  0.00     0.067 A 
ATOM     26  C   UNL A   1      31.925  22.464  25.430  1.00  0.00     0.103 A 
ATOM     27  N   UNL A   1      31.503  21.194  25.213  1.00  0.00    -0.167 NA
ATOM     28  N   UNL A   1      32.593  20.420  25.458  1.00  0.00    -0.240 N 
ATOM     29  C   UNL A   1      33.590  21.125  26.057  1.00  0.00     0.041 A 
ATOM     30  H   UNL A   1      34.449  20.731  26.473  1.00  0.00     0.085 H 
BRANCH  26  31
ATOM     31  C   UNL A   1      31.098  23.637  25.050  1.00  0.00     0.003 A 
ATOM     32  C   UNL A   1      29.594  25.940  24.303  1.00  0.00    -0.051 A 
ATOM     33  C   UNL A   1      29.984  25.011  23.344  1.00  0.00    -0.059 A 
ATOM     34  C   UNL A   1      29.915  25.690  25.642  1.00  0.00    -0.059 A 
ATOM     35  C   UNL A   1      30.724  23.884  23.716  1.00  0.00    -0.052 A 
ATOM     36  H   UNL A   1      29.727  25.153  22.355  1.00  0.00     0.063 H 
ATOM     37  C   UNL A   1      30.652  24.548  26.012  1.00  0.00    -0.052 A 
ATOM     38  H   UNL A   1      29.607  26.353  26.370  1.00  0.00     0.063 H 
ATOM     39  H   UNL A   1      31.005  23.208  22.988  1.00  0.00     0.063 H 
ATOM     40  H   UNL A   1      30.865  24.382  27.008  1.00  0.00     0.063 H 
BRANCH  32  41
ATOM     41  C   UNL A   1      28.847  27.170  23.876  1.00  0.00    -0.040 C 
ATOM     42  H   UNL A   1      28.107  26.904  23.150  1.00  0.00     0.028 H 
ATOM     43  H   UNL A   1      29.531  27.872  23.447  1.00  0.00     0.028 H 
ATOM     44  H   UNL A   1      28.370  27.611  24.726  1.00  0.00     0.028 H 
ENDBRANCH  32  41
ENDBRANCH  26  31
BRANCH  28  45
ATOM     45  C   UNL A   1      32.768  19.126  24.914  1.00  0.00     0.065 A 
ATOM     46  C   UNL A   1      32.813  18.969  23.514  1.00  0.00    -0.036 A 
ATOM     47  C   UNL A   1      32.903  18.021  25.748  1.00  0.00    -0.036 A 
ATOM     48  C   UNL A   1      32.901  17.695  22.954  1.00  0.00    -0.060 A 
ATOM     49  H   UNL A   1      32.783  19.799  22.902  1.00  0.00     0.065 H 
ATOM     50  C   UNL A   1      33.083  16.756  25.175  1.00  0.00    -0.060 A 
ATOM     51  H   UNL A   1      32.873  18.131  26.773  1.00  0.00     0.065 H 
ATOM     52  C   UNL A   1      33.049  16.590  23.786  1.00  0.00    -0.062 A 
ATOM     53  H   UNL A   1      32.856  17.574  21.931  1.00  0.00     0.062 H 
ATOM     54  H   UNL A   1      33.242  15.939  25.783  1.00  0.00     0.062 H 
ATOM     55  H   UNL A   1      33.134  15.646  23.378  1.00  0.00     0.062 H 
ENDBRANCH  28  45
ENDBRANCH  15  25
ENDBRANCH  11  14
ENDBRANCH   7  10
ENDBRANCH   4   7
ENDBRANCH   1   4
BRANCH   1  56
ATOM     56  C   UNL A   1      32.318  29.191  25.499  1.00  0.00    -0.052 C 
ATOM     57  H   UNL A   1      31.971  28.586  26.310  1.00  0.00     0.027 H 
ATOM     58  H   UNL A   1      31.561  29.585  24.853  1.00  0.00     0.027 H 
BRANCH  56  59
ATOM     59  C   UNL A   1      32.980  30.430  26.106  1.00  0.00    -0.036 C 
ATOM     60  H   UNL A   1      32.396  31.277  25.808  1.00  0.00     0.028 H 
ATOM     61  H   UNL A   1      33.984  30.398  25.739  1.00  0.00     0.028 H 
BRANCH  59  62
ATOM     62  C   UNL A   1      33.136  30.503  27.625  1.00  0.00     0.018 C 
ATOM     63  H   UNL A   1      33.575  29.585  27.955  1.00  0.00     0.049 H 
ATOM     64  H   UNL A   1      32.154  30.678  28.012  1.00  0.00     0.049 H 
BRANCH  62  65
ATOM     65  N   UNL A   1      33.969  31.610  28.126  1.00  0.00    -0.352 N 
ATOM     66  C   UNL A   1      35.266  31.549  28.638  1.00  0.00     0.251 C 
ATOM     67  H   UNL A   1      33.559  32.505  28.097  1.00  0.00     0.163 HD
ATOM     68  O   UNL A   1      35.860  32.529  29.039  1.00  0.00    -0.269 OA
BRANCH  66  69
ATOM     69  C   UNL A   1      35.949  30.237  28.570  1.00  0.00     0.039 A 
ATOM     70  C   UNL A   1      36.252  29.628  29.792  1.00  0.00    -0.049 A 
ATOM     71  C   UNL A   1      36.643  29.923  27.404  1.00  0.00    -0.049 A 
ATOM     72  C   UNL A   1      37.461  28.955  29.912  1.00  0.00    -0.053 A 
ATOM     73  H   UNL A   1      35.593  29.677  30.584  1.00  0.00     0.063 H 
ATOM     74  C   UNL A   1      37.884  29.335  27.547  1.00  0.00    -0.053 A 
ATOM     75  H   UNL A   1      36.247  30.123  26.474  1.00  0.00     0.063 H 
ATOM     76  C   UNL A   1      38.328  28.948  28.821  1.00  0.00    -0.014 A 
ATOM     77  H   UNL A   1      37.711  28.471  30.788  1.00  0.00     0.063 H 
ATOM     78  H   UNL A   1      38.481  29.180  26.720  1.00  0.00     0.063 H 
BRANCH  76  79
ATOM     79  C   UNL A   1      39.755  28.676  28.946  1.00  0.00     0.031 A 
ATOM     80  C   UNL A   1      40.264  27.324  28.660  1.00  0.00     0.074 A 
ATOM     81  C   UNL A   1      40.620  29.659  29.286  1.00  0.00     0.049 A 
ATOM     82  N   UNL A   1      41.419  26.892  29.041  1.00  0.00    -0.248 NA
ATOM     83  C   UNL A   1      39.452  26.302  28.012  1.00  0.00    -0.034 C 
ATOM     84  C   UNL A   1      42.077  29.631  29.174  1.00  0.00    -0.036 A 
ATOM     85  N   UNL A   1      40.353  30.829  30.015  1.00  0.00    -0.354 N 
ATOM     86  C   UNL A   1      41.615  25.658  28.472  1.00  0.00     0.074 A 
ATOM     87  C   UNL A   1      40.316  25.285  27.969  1.00  0.00    -0.034 C 
ATOM     88  H   UNL A   1      38.478  26.352  27.676  1.00  0.00     0.065 H 
ATOM     89  C   UNL A   1      42.597  30.521  30.031  1.00  0.00    -0.036 A 
ATOM     90  H   UNL A   1      42.617  29.023  28.538  1.00  0.00     0.065 H 
ATOM     91  C   UNL A   1      41.503  31.059  30.813  1.00  0.00     0.049 A 
ATOM     92  H   UNL A   1      39.536  31.377  29.980  1.00  0.00     0.167 HD
ATOM     93  C   UNL A   1      42.887  25.172  28.401  1.00  0.00     0.037 A 
ATOM     94  H   UNL A   1      40.082  24.343  27.619  1.00  0.00     0.065 H 
ATOM     95  H   UNL A   1      43.593  30.775  30.117  1.00  0.00     0.065 H 
ATOM     96  C   UNL A   1      41.431  31.060  32.176  1.00  0.00     0.037 A 
ATOM     97  C   UNL A   1      43.787  25.938  29.271  1.00  0.00     0.049 A 
ATOM     98  C   UNL A   1      42.260  29.991  32.856  1.00  0.00     0.074 A 
ATOM     99  C   UNL A   1      44.775  26.889  29.077  1.00  0.00    -0.036 A 
ATOM    100  N   UNL A   1      43.535  25.928  30.634  1.00  0.00    -0.354 N 
ATOM    101  N   UNL A   1      42.962  29.093  32.223  1.00  0.00    -0.248 NA
ATOM    102  C   UNL A   1      42.273  29.784  34.307  1.00  0.00    -0.034 C 
ATOM    103  C   UNL A   1      45.088  27.468  30.346  1.00  0.00    -0.036 A 
ATOM    104  H   UNL A   1      45.209  27.136  28.175  1.00  0.00     0.065 H 
ATOM    105  C   UNL A   1      44.300  26.859  31.306  1.00  0.00     0.049 A 
ATOM    106  H   UNL A   1      42.889  25.329  31.071  1.00  0.00     0.167 HD
ATOM    107  C   UNL A   1      43.428  28.171  33.119  1.00  0.00     0.074 A 
ATOM    108  C   UNL A   1      42.990  28.653  34.414  1.00  0.00    -0.034 C 
ATOM    109  H   UNL A   1      41.844  30.357  35.050  1.00  0.00     0.065 H 
ATOM    110  H   UNL A   1      45.782  28.212  30.515  1.00  0.00     0.065 H 
ATOM    111  C   UNL A   1      44.092  27.044  32.733  1.00  0.00     0.037 A 
ATOM    112  H   UNL A   1      43.201  28.184  35.310  1.00  0.00     0.065 H 
BRANCH  93 113
ATOM    113  C   UNL A   1      43.379  24.114  27.425  1.00  0.00     0.064 A 
ATOM    114  C   UNL A   1      44.175  24.494  26.321  1.00  0.00     0.173 A 
ATOM    115  C   UNL A   1      43.027  22.747  27.433  1.00  0.00     0.173 A 
ATOM    116  F   UNL A   1      44.626  25.748  26.181  1.00  0.00    -0.203 F 
ATOM    117  C   UNL A   1      44.527  23.605  25.297  1.00  0.00     0.198 A 
ATOM    118  C   UNL A   1      43.396  21.855  26.423  1.00  0.00     0.198 A 
ATOM    119  F   UNL A   1      42.291  22.193  28.395  1.00  0.00    -0.203 F 
ATOM    120  F   UNL A   1      45.238  24.045  24.250  1.00  0.00    -0.200 F 
ATOM    121  C   UNL A   1      44.131  22.286  25.344  1.00  0.00     0.200 A 
ATOM    122  F   UNL A   1      43.005  20.574  26.501  1.00  0.00    -0.200 F 
ATOM    123  F   UNL A   1      44.448  21.437  24.359  1.00  0.00    -0.200 F 
ENDBRANCH  93 113
BRANCH  96 124
ATOM    124  C   UNL A   1      40.130  31.577  32.670  1.00  0.00     0.064 A 
ATOM    125  C   UNL A   1      39.876  32.957  32.542  1.00  0.00     0.173 A 
ATOM    126  C   UNL A   1      39.035  30.727  32.857  1.00  0.00     0.173 A 
ATOM    127  F   UNL A   1      40.894  33.812  32.359  1.00  0.00    -0.203 F 
ATOM    128  C   UNL A   1      38.575  33.445  32.469  1.00  0.00     0.198 A 
ATOM    129  C   UNL A   1      37.733  31.223  32.799  1.00  0.00     0.198 A 
ATOM    130  F   UNL A   1      39.216  29.403  32.968  1.00  0.00    -0.203 F 
ATOM    131  F   UNL A   1      38.362  34.745  32.222  1.00  0.00    -0.200 F 
ATOM    132  C   UNL A   1      37.504  32.572  32.567  1.00  0.00     0.200 A 
ATOM    133  F   UNL A   1      36.697  30.376  32.872  1.00  0.00    -0.200 F 
ATOM    134  F   UNL A   1      36.254  33.023  32.396  1.00  0.00    -0.200 F 
ENDBRANCH  96 124
BRANCH 111 135
ATOM    135  C   UNL A   1      44.589  26.015  33.700  1.00  0.00     0.064 A 
ATOM    136  C   UNL A   1      45.954  25.736  33.856  1.00  0.00     0.173 A 
ATOM    137  C   UNL A   1      43.694  25.187  34.407  1.00  0.00     0.173 A 
ATOM    138  F   UNL A   1      46.877  26.460  33.203  1.00  0.00    -0.203 F 
ATOM    139  C   UNL A   1      46.398  24.696  34.675  1.00  0.00     0.198 A 
ATOM    140  C   UNL A   1      44.135  24.118  35.184  1.00  0.00     0.198 A 
ATOM    141  F   UNL A   1      42.371  25.410  34.377  1.00  0.00    -0.203 F 
ATOM    142  F   UNL A   1      47.712  24.482  34.826  1.00  0.00    -0.200 F 
ATOM    143  C   UNL A   1      45.488  23.876  35.322  1.00  0.00     0.200 A 
ATOM    144  F   UNL A   1      43.243  23.328  35.797  1.00  0.00    -0.200 F 
ATOM    145  F   UNL A   1      45.915  22.858  36.082  1.00  0.00    -0.200 F 
ENDBRANCH 111 135
ENDBRANCH  76  79
ENDBRANCH  66  69
ENDBRANCH  62  65
ENDBRANCH  59  62
ENDBRANCH  56  59
ENDBRANCH   1  56
TORSDOF 17
ENDMDL
MODEL 2
REMARK VINA RESULT:     -13.5      1.950      3.410
REMARK SMILES Cc1ccc(-c2nn(-c3ccccc3)cc2[C@@H]2[NH2+][C@H](C(=O)NCCCCCCNC(=O)c3ccc(-c4c5nc(c(-c6c(F)c(F)c(F)c(F)c6F)c6ccc([nH]6)c(-c6c(F)c(F)c(F)c(F)c6F)c6nc(c(-c7c(F)c(F)c(F)c(F)c7F)c7ccc4[nH]7)C=C6)C=C5)cc3)CS2)cc1
REMARK SMILES IDX 25 1 24 4 23 7 22 10 20 11 21 12 19 14 17 15 18 16 96 17
REMARK SMILES IDX 95 21 16 25 6 26 7 27 8 28 15 29 5 31 2 32 3 33 98 34 4 35
REMARK SMILES IDX 97 37 1 41 9 45 10 46 14 47 11 48 13 50 12 52 26 56 27 59
REMARK SMILES IDX 28 62 29 65 30 66 31 68 32 69 33 70 94 71 34 72 93 74 35 76
REMARK SMILES IDX 36 79 37 80 87 81 38 82 92 83 86 84 88 85 39 86 91 87 85 89
REMARK SMILES IDX 84 91 40 93 72 96 52 97 71 98 53 99 56 100 70 101 89 102
REMARK SMILES IDX 54 103 55 105 69 107 90 108 57 111 41 113 42 114 50 115
REMARK SMILES IDX 43 116 44 117 48 118 51 119 45 120 46 121 49 122 47 123
REMARK SMILES IDX 73 124 74 125 82 126 75 127 76 128 80 129 83 130 77 131
REMARK SMILES IDX 78 132 81 133 79 134 58 135 59 136 67 137 60 138 61 139
REMARK SMILES IDX 65 140 68 141 62 142 63 143 66 144 64 145
REMARK H PARENT 25 2 25 3 24 5 24 6 23 8 23 9 22 13 17 18 18 19 18 20 19 22
REMARK H PARENT 95 23 95 24 15 30 3 36 98 38 4 39 97 40 1 42 1 43 1 44 10 49
REMARK H PARENT 14 51 11 53 13 54 12 55 26 57 26 58 27 60 27 61 28 63 28 64
REMARK H PARENT 29 67 33 73 94 75 34 77 93 78 92 88 86 90 88 92 91 94 85 95
REMARK H PARENT 53 104 56 106 89 109 54 110 90 112
REMARK Flexibility Score: inf
ROOT
ATOM      1  C   UNL A   1      32.114  28.193  27.076  1.00  0.00    -0.052 C 
ATOM      2  H   UNL A   1      33.022  27.785  26.686  1.00  0.00     0.027 H 
ATOM      3  H   UNL A   1      31.965  28.351  28.124  1.00  0.00     0.027 H 
ENDROOT
BRANCH   1   4
ATOM      4  C   UNL A   1      31.027  27.115  26.805  1.00  0.00    -0.036 C 
ATOM      5  H   UNL A   1      30.600  26.887  27.760  1.00  0.00     0.028 H 
ATOM      6  H   UNL A   1      30.445  27.595  26.047  1.00  0.00     0.028 H 
BRANCH   4   7
ATOM      7  C   UNL A   1      31.313  25.764  26.145  1.00  0.00     0.018 C 
ATOM      8  H   UNL A   1      30.445  25.493  25.579  1.00  0.00     0.049 H 
ATOM      9  H   UNL A   1      32.200  25.921  25.569  1.00  0.00     0.049 H 
BRANCH   7  10
ATOM     10  N   UNL A   1      31.628  24.648  27.024  1.00  0.00    -0.351 N 
ATOM     11  C   UNL A   1      31.791  23.310  26.787  1.00  0.00     0.279 C 
ATOM     12  O   UNL A   1      32.343  22.682  27.707  1.00  0.00    -0.268 OA
ATOM     13  H   UNL A   1      31.747  24.903  27.967  1.00  0.00     0.163 HD
BRANCH  11  14
ATOM     14  C   UNL A   1      31.330  22.488  25.548  1.00  0.00     0.176 C 
ATOM     15  C   UNL A   1      32.350  22.376  23.351  1.00  0.00     0.163 C 
ATOM     16  N   UNL A   1      31.442  23.133  24.218  1.00  0.00    -0.320 N 
ATOM     17  S   UNL A   1      32.153  20.646  23.818  1.00  0.00    -0.087 SA
ATOM     18  H   UNL A   1      32.140  22.466  22.306  1.00  0.00     0.115 H 
ATOM     19  H   UNL A   1      30.519  23.172  23.785  1.00  0.00     0.348 HD
ATOM     20  H   UNL A   1      31.812  24.076  24.339  1.00  0.00     0.348 HD
ATOM     21  C   UNL A   1      31.917  21.068  25.561  1.00  0.00     0.061 C 
ATOM     22  H   UNL A   1      30.271  22.432  25.680  1.00  0.00     0.108 H 
ATOM     23  H   UNL A   1      31.238  20.385  26.025  1.00  0.00     0.045 H 
ATOM     24  H   UNL A   1      32.830  21.016  26.115  1.00  0.00     0.045 H 
BRANCH  15  25
ATOM     25  C   UNL A   1      33.734  22.910  23.535  1.00  0.00     0.067 A 
ATOM     26  C   UNL A   1      34.195  24.274  23.420  1.00  0.00     0.103 A 
ATOM     27  N   UNL A   1      35.527  24.343  23.666  1.00  0.00    -0.167 NA
ATOM     28  N   UNL A   1      35.860  23.106  24.119  1.00  0.00    -0.240 N 
ATOM     29  C   UNL A   1      34.857  22.208  23.924  1.00  0.00     0.041 A 
ATOM     30  H   UNL A   1      34.923  21.185  24.045  1.00  0.00     0.085 H 
BRANCH  26  31
ATOM     31  C   UNL A   1      33.392  25.487  23.127  1.00  0.00     0.003 A 
ATOM     32  C   UNL A   1      31.789  27.794  22.641  1.00  0.00    -0.051 A 
ATOM     33  C   UNL A   1      32.876  27.860  23.508  1.00  0.00    -0.059 A 
ATOM     34  C   UNL A   1      31.536  26.586  21.981  1.00  0.00    -0.059 A 
ATOM     35  C   UNL A   1      33.657  26.724  23.743  1.00  0.00    -0.052 A 
ATOM     36  H   UNL A   1      33.107  28.749  23.977  1.00  0.00     0.063 H 
ATOM     37  C   UNL A   1      32.332  25.448  22.216  1.00  0.00    -0.052 A 
ATOM     38  H   UNL A   1      30.753  26.528  21.312  1.00  0.00     0.063 H 
ATOM     39  H   UNL A   1      34.457  26.795  24.392  1.00  0.00     0.063 H 
ATOM     40  H   UNL A   1      32.130  24.574  21.707  1.00  0.00     0.063 H 
BRANCH  32  41
ATOM     41  C   UNL A   1      30.932  29.010  22.443  1.00  0.00    -0.040 C 
ATOM     42  H   UNL A   1      31.554  29.875  22.351  1.00  0.00     0.028 H 
ATOM     43  H   UNL A   1      30.280  29.127  23.283  1.00  0.00     0.028 H 
ATOM     44  H   UNL A   1      30.349  28.894  21.553  1.00  0.00     0.028 H 
ENDBRANCH  32  41
ENDBRANCH  26  31
BRANCH  28  45
ATOM     45  C   UNL A   1      36.992  22.851  24.930  1.00  0.00     0.065 A 
ATOM     46  C   UNL A   1      37.489  23.877  25.757  1.00  0.00    -0.036 A 
ATOM     47  C   UNL A   1      37.602  21.600  24.918  1.00  0.00    -0.036 A 
ATOM     48  C   UNL A   1      38.651  23.676  26.501  1.00  0.00    -0.060 A 
ATOM     49  H   UNL A   1      36.991  24.779  25.813  1.00  0.00     0.065 H 
ATOM     50  C   UNL A   1      38.714  21.382  25.739  1.00  0.00    -0.060 A 
ATOM     51  H   UNL A   1      37.240  20.846  24.315  1.00  0.00     0.065 H 
ATOM     52  C   UNL A   1      39.256  22.423  26.501  1.00  0.00    -0.062 A 
ATOM     53  H   UNL A   1      39.059  24.451  27.046  1.00  0.00     0.062 H 
ATOM     54  H   UNL A   1      39.139  20.443  25.783  1.00  0.00     0.062 H 
ATOM     55  H   UNL A   1      40.106  22.261  27.064  1.00  0.00     0.062 H 
ENDBRANCH  28  45
ENDBRANCH  15  25
ENDBRANCH  11  14
ENDBRANCH   7  10
ENDBRANCH   4   7
ENDBRANCH   1   4
BRANCH   1  56
ATOM     56  C   UNL A   1      32.069  29.645  26.572  1.00  0.00    -0.052 C 
ATOM     57  H   UNL A   1      31.060  29.986  26.678  1.00  0.00     0.027 H 
ATOM     58  H   UNL A   1      32.441  29.588  25.570  1.00  0.00     0.027 H 
BRANCH  56  59
ATOM     59  C   UNL A   1      32.971  30.678  27.251  1.00  0.00    -0.036 C 
ATOM     60  H   UNL A   1      32.491  30.966  28.164  1.00  0.00     0.028 H 
ATOM     61  H   UNL A   1      33.087  31.448  26.518  1.00  0.00     0.028 H 
BRANCH  59  62
ATOM     62  C   UNL A   1      34.403  30.276  27.604  1.00  0.00     0.018 C 
ATOM     63  H   UNL A   1      34.972  30.255  26.698  1.00  0.00     0.049 H 
ATOM     64  H   UNL A   1      34.329  29.326  28.091  1.00  0.00     0.049 H 
BRANCH  62  65
ATOM     65  N   UNL A   1      35.098  31.163  28.554  1.00  0.00    -0.352 N 
ATOM     66  C   UNL A   1      36.306  30.940  29.215  1.00  0.00     0.251 C 
ATOM     67  H   UNL A   1      34.652  32.020  28.747  1.00  0.00     0.163 HD
ATOM     68  O   UNL A   1      36.785  31.740  29.993  1.00  0.00    -0.269 OA
BRANCH  66  69
ATOM     69  C   UNL A   1      37.057  29.720  28.841  1.00  0.00     0.039 A 
ATOM     70  C   UNL A   1      37.284  28.791  29.861  1.00  0.00    -0.049 A 
ATOM     71  C   UNL A   1      37.863  29.772  27.707  1.00  0.00    -0.049 A 
ATOM     72  C   UNL A   1      38.509  28.139  29.900  1.00  0.00    -0.053 A 
ATOM     73  H   UNL A   1      36.557  28.594  30.566  1.00  0.00     0.063 H 
ATOM     74  C   UNL A   1      39.115  29.196  27.794  1.00  0.00    -0.053 A 
ATOM     75  H   UNL A   1      37.538  30.224  26.838  1.00  0.00     0.063 H 
ATOM     76  C   UNL A   1      39.466  28.468  28.941  1.00  0.00    -0.014 A 
ATOM     77  H   UNL A   1      38.707  27.428  30.621  1.00  0.00     0.063 H 
ATOM     78  H   UNL A   1      39.787  29.301  27.019  1.00  0.00     0.063 H 
BRANCH  76  79
ATOM     79  C   UNL A   1      40.889  28.203  29.120  1.00  0.00     0.031 A 
ATOM     80  C   UNL A   1      41.482  26.990  28.532  1.00  0.00     0.074 A 
ATOM     81  C   UNL A   1      41.677  29.077  29.789  1.00  0.00     0.049 A 
ATOM     82  N   UNL A   1      42.619  26.496  28.888  1.00  0.00    -0.248 NA
ATOM     83  C   UNL A   1      40.774  26.165  27.561  1.00  0.00    -0.034 C 
ATOM     84  C   UNL A   1      43.137  29.111  29.809  1.00  0.00    -0.036 A 
ATOM     85  N   UNL A   1      41.296  29.999  30.778  1.00  0.00    -0.354 N 
ATOM     86  C   UNL A   1      42.918  25.467  28.030  1.00  0.00     0.074 A 
ATOM     87  C   UNL A   1      41.684  25.216  27.328  1.00  0.00    -0.034 C 
ATOM     88  H   UNL A   1      39.830  26.282  27.163  1.00  0.00     0.065 H 
ATOM     89  C   UNL A   1      43.543  29.747  30.917  1.00  0.00    -0.036 A 
ATOM     90  H   UNL A   1      43.756  28.710  29.087  1.00  0.00     0.065 H 
ATOM     91  C   UNL A   1      42.363  30.029  31.711  1.00  0.00     0.049 A 
ATOM     92  H   UNL A   1      40.460  30.518  30.815  1.00  0.00     0.167 HD
ATOM     93  C   UNL A   1      44.212  25.047  27.949  1.00  0.00     0.037 A 
ATOM     94  H   UNL A   1      41.524  24.399  26.718  1.00  0.00     0.065 H 
ATOM     95  H   UNL A   1      44.516  29.990  31.160  1.00  0.00     0.065 H 
ATOM     96  C   UNL A   1      42.179  29.660  33.011  1.00  0.00     0.037 A 
ATOM     97  C   UNL A   1      45.001  25.568  29.073  1.00  0.00     0.049 A 
ATOM     98  C   UNL A   1      42.996  28.465  33.454  1.00  0.00     0.074 A 
ATOM     99  C   UNL A   1      45.957  26.557  29.232  1.00  0.00    -0.036 A 
ATOM    100  N   UNL A   1      44.638  25.185  30.353  1.00  0.00    -0.354 N 
ATOM    101  N   UNL A   1      43.789  27.787  32.672  1.00  0.00    -0.248 NA
ATOM    102  C   UNL A   1      42.898  27.874  34.791  1.00  0.00    -0.034 C 
ATOM    103  C   UNL A   1      46.137  26.778  30.633  1.00  0.00    -0.036 A 
ATOM    104  H   UNL A   1      46.453  27.049  28.473  1.00  0.00     0.065 H 
ATOM    105  C   UNL A   1      45.300  25.915  31.318  1.00  0.00     0.049 A 
ATOM    106  H   UNL A   1      43.985  24.475  30.553  1.00  0.00     0.167 HD
ATOM    107  C   UNL A   1      44.222  26.667  33.327  1.00  0.00     0.074 A 
ATOM    108  C   UNL A   1      43.655  26.771  34.658  1.00  0.00    -0.034 C 
ATOM    109  H   UNL A   1      42.383  28.215  35.618  1.00  0.00     0.065 H 
ATOM    110  H   UNL A   1      46.780  27.463  31.059  1.00  0.00     0.065 H 
ATOM    111  C   UNL A   1      44.966  25.702  32.717  1.00  0.00     0.037 A 
ATOM    112  H   UNL A   1      43.813  26.082  35.411  1.00  0.00     0.065 H 
BRANCH  93 113
ATOM    113  C   UNL A   1      44.832  24.303  26.776  1.00  0.00     0.064 A 
ATOM    114  C   UNL A   1      44.504  22.947  26.552  1.00  0.00     0.173 A 
ATOM    115  C   UNL A   1      45.827  24.802  25.908  1.00  0.00     0.173 A 
ATOM    116  F   UNL A   1      43.552  22.329  27.266  1.00  0.00    -0.203 F 
ATOM    117  C   UNL A   1      45.155  22.156  25.597  1.00  0.00     0.198 A 
ATOM    118  C   UNL A   1      46.462  24.018  24.940  1.00  0.00     0.198 A 
ATOM    119  F   UNL A   1      46.265  26.058  25.952  1.00  0.00    -0.203 F 
ATOM    120  F   UNL A   1      44.831  20.861  25.474  1.00  0.00    -0.200 F 
ATOM    121  C   UNL A   1      46.140  22.690  24.794  1.00  0.00     0.200 A 
ATOM    122  F   UNL A   1      47.409  24.568  24.166  1.00  0.00    -0.200 F 
ATOM    123  F   UNL A   1      46.778  21.934  23.893  1.00  0.00    -0.200 F 
ENDBRANCH  93 113
BRANCH  96 124
ATOM    124  C   UNL A   1      40.818  29.996  33.503  1.00  0.00     0.064 A 
ATOM    125  C   UNL A   1      40.529  31.347  33.775  1.00  0.00     0.173 A 
ATOM    126  C   UNL A   1      39.742  29.124  33.310  1.00  0.00     0.173 A 
ATOM    127  F   UNL A   1      41.530  32.221  33.966  1.00  0.00    -0.203 F 
ATOM    128  C   UNL A   1      39.224  31.828  33.721  1.00  0.00     0.198 A 
ATOM    129  C   UNL A   1      38.434  29.608  33.273  1.00  0.00     0.198 A 
ATOM    130  F   UNL A   1      39.958  27.830  33.031  1.00  0.00    -0.203 F 
ATOM    131  F   UNL A   1      38.991  33.141  33.860  1.00  0.00    -0.200 F 
ATOM    132  C   UNL A   1      38.181  30.962  33.439  1.00  0.00     0.200 A 
ATOM    133  F   UNL A   1      37.427  28.775  32.978  1.00  0.00    -0.200 F 
ATOM    134  F   UNL A   1      36.938  31.438  33.286  1.00  0.00    -0.200 F 
ENDBRANCH  96 124
BRANCH 111 135
ATOM    135  C   UNL A   1      45.427  24.461  33.415  1.00  0.00     0.064 A 
ATOM    136  C   UNL A   1      44.584  23.357  33.608  1.00  0.00     0.173 A 
ATOM    137  C   UNL A   1      46.696  24.397  34.025  1.00  0.00     0.173 A 
ATOM    138  F   UNL A   1      43.350  23.342  33.082  1.00  0.00    -0.203 F 
ATOM    139  C   UNL A   1      44.988  22.253  34.361  1.00  0.00     0.198 A 
ATOM    140  C   UNL A   1      47.079  23.316  34.817  1.00  0.00     0.198 A 
ATOM    141  F   UNL A   1      47.601  25.371  33.848  1.00  0.00    -0.203 F 
ATOM    142  F   UNL A   1      44.168  21.201  34.494  1.00  0.00    -0.200 F 
ATOM    143  C   UNL A   1      46.227  22.242  34.980  1.00  0.00     0.200 A 
ATOM    144  F   UNL A   1      48.278  23.323  35.417  1.00  0.00    -0.200 F 
ATOM    145  F   UNL A   1      46.602  21.194  35.729  1.00  0.00    -0.200 F 
ENDBRANCH 111 135
ENDBRANCH  76  79
ENDBRANCH  66  69
ENDBRANCH  62  65
ENDBRANCH  59  62
ENDBRANCH  56  59
ENDBRANCH   1  56
TORSDOF 17
ENDMDL
MODEL 3
REMARK VINA RESULT:     -13.3      3.142      9.484
REMARK SMILES Cc1ccc(-c2nn(-c3ccccc3)cc2[C@@H]2[NH2+][C@H](C(=O)NCCCCCCNC(=O)c3ccc(-c4c5nc(c(-c6c(F)c(F)c(F)c(F)c6F)c6ccc([nH]6)c(-c6c(F)c(F)c(F)c(F)c6F)c6nc(c(-c7c(F)c(F)c(F)c(F)c7F)c7ccc4[nH]7)C=C6)C=C5)cc3)CS2)cc1
REMARK SMILES IDX 25 1 24 4 23 7 22 10 20 11 21 12 19 14 17 15 18 16 96 17
REMARK SMILES IDX 95 21 16 25 6 26 7 27 8 28 15 29 5 31 2 32 3 33 98 34 4 35
REMARK SMILES IDX 97 37 1 41 9 45 10 46 14 47 11 48 13 50 12 52 26 56 27 59
REMARK SMILES IDX 28 62 29 65 30 66 31 68 32 69 33 70 94 71 34 72 93 74 35 76
REMARK SMILES IDX 36 79 37 80 87 81 38 82 92 83 86 84 88 85 39 86 91 87 85 89
REMARK SMILES IDX 84 91 40 93 72 96 52 97 71 98 53 99 56 100 70 101 89 102
REMARK SMILES IDX 54 103 55 105 69 107 90 108 57 111 41 113 42 114 50 115
REMARK SMILES IDX 43 116 44 117 48 118 51 119 45 120 46 121 49 122 47 123
REMARK SMILES IDX 73 124 74 125 82 126 75 127 76 128 80 129 83 130 77 131
REMARK SMILES IDX 78 132 81 133 79 134 58 135 59 136 67 137 60 138 61 139
REMARK SMILES IDX 65 140 68 141 62 142 63 143 66 144 64 145
REMARK H PARENT 25 2 25 3 24 5 24 6 23 8 23 9 22 13 17 18 18 19 18 20 19 22
REMARK H PARENT 95 23 95 24 15 30 3 36 98 38 4 39 97 40 1 42 1 43 1 44 10 49
REMARK H PARENT 14 51 11 53 13 54 12 55 26 57 26 58 27 60 27 61 28 63 28 64
REMARK H PARENT 29 67 33 73 94 75 34 77 93 78 92 88 86 90 88 92 91 94 85 95
REMARK H PARENT 53 104 56 106 89 109 54 110 90 112
REMARK Flexibility Score: inf
ROOT
ATOM      1  C   UNL A   1      34.683  22.514  26.302  1.00  0.00    -0.052 C 
ATOM      2  H   UNL A   1      34.635  21.828  27.121  1.00  0.00     0.027 H 
ATOM      3  H   UNL A   1      35.148  23.474  26.390  1.00  0.00     0.027 H 
ENDROOT
BRANCH   1   4
ATOM      4  C   UNL A   1      33.214  22.946  26.037  1.00  0.00    -0.036 C 
ATOM      5  H   UNL A   1      33.274  23.818  25.420  1.00  0.00     0.028 H 
ATOM      6  H   UNL A   1      32.798  22.036  25.658  1.00  0.00     0.028 H 
BRANCH   4   7
ATOM      7  C   UNL A   1      32.213  23.287  27.143  1.00  0.00     0.018 C 
ATOM      8  H   UNL A   1      31.570  22.442  27.267  1.00  0.00     0.049 H 
ATOM      9  H   UNL A   1      32.815  23.529  27.994  1.00  0.00     0.049 H 
BRANCH   7  10
ATOM     10  N   UNL A   1      31.368  24.454  26.938  1.00  0.00    -0.351 N 
ATOM     11  C   UNL A   1      31.626  25.698  26.430  1.00  0.00     0.279 C 
ATOM     12  O   UNL A   1      30.617  26.356  26.124  1.00  0.00    -0.268 OA
ATOM     13  H   UNL A   1      30.433  24.324  27.216  1.00  0.00     0.163 HD
BRANCH  11  14
ATOM     14  C   UNL A   1      33.007  26.394  26.241  1.00  0.00     0.176 C 
ATOM     15  C   UNL A   1      33.857  27.547  24.285  1.00  0.00     0.163 C 
ATOM     16  N   UNL A   1      33.677  26.241  24.928  1.00  0.00    -0.320 N 
ATOM     17  S   UNL A   1      34.124  28.725  25.623  1.00  0.00    -0.087 SA
ATOM     18  H   UNL A   1      34.695  27.600  23.621  1.00  0.00     0.115 H 
ATOM     19  H   UNL A   1      34.589  25.806  25.065  1.00  0.00     0.348 HD
ATOM     20  H   UNL A   1      33.095  25.656  24.327  1.00  0.00     0.348 HD
ATOM     21  C   UNL A   1      32.973  27.855  26.715  1.00  0.00     0.061 C 
ATOM     22  H   UNL A   1      33.648  25.830  26.885  1.00  0.00     0.108 H 
ATOM     23  H   UNL A   1      33.293  27.928  27.733  1.00  0.00     0.045 H 
ATOM     24  H   UNL A   1      31.988  28.268  26.673  1.00  0.00     0.045 H 
BRANCH  15  25
ATOM     25  C   UNL A   1      32.655  27.830  23.445  1.00  0.00     0.067 A 
ATOM     26  C   UNL A   1      31.807  26.896  22.742  1.00  0.00     0.103 A 
ATOM     27  N   UNL A   1      30.815  27.554  22.094  1.00  0.00    -0.167 NA
ATOM     28  N   UNL A   1      30.907  28.837  22.532  1.00  0.00    -0.240 N 
ATOM     29  C   UNL A   1      32.060  29.055  23.221  1.00  0.00     0.041 A 
ATOM     30  H   UNL A   1      32.425  29.973  23.521  1.00  0.00     0.085 H 
BRANCH  26  31
ATOM     31  C   UNL A   1      31.905  25.414  22.717  1.00  0.00     0.003 A 
ATOM     32  C   UNL A   1      32.138  22.574  22.760  1.00  0.00    -0.051 A 
ATOM     33  C   UNL A   1      31.006  23.197  23.276  1.00  0.00    -0.059 A 
ATOM     34  C   UNL A   1      33.130  23.371  22.179  1.00  0.00    -0.059 A 
ATOM     35  C   UNL A   1      30.899  24.592  23.253  1.00  0.00    -0.052 A 
ATOM     36  H   UNL A   1      30.242  22.629  23.675  1.00  0.00     0.063 H 
ATOM     37  C   UNL A   1      33.012  24.774  22.150  1.00  0.00    -0.052 A 
ATOM     38  H   UNL A   1      33.962  22.924  21.764  1.00  0.00     0.063 H 
ATOM     39  H   UNL A   1      30.051  25.033  23.644  1.00  0.00     0.063 H 
ATOM     40  H   UNL A   1      33.753  25.337  21.706  1.00  0.00     0.063 H 
BRANCH  32  41
ATOM     41  C   UNL A   1      32.257  21.080  22.841  1.00  0.00    -0.040 C 
ATOM     42  H   UNL A   1      32.773  20.811  23.739  1.00  0.00     0.028 H 
ATOM     43  H   UNL A   1      32.803  20.719  21.994  1.00  0.00     0.028 H 
ATOM     44  H   UNL A   1      31.280  20.644  22.847  1.00  0.00     0.028 H 
ENDBRANCH  32  41
ENDBRANCH  26  31
BRANCH  28  45
ATOM     45  C   UNL A   1      29.825  29.749  22.510  1.00  0.00     0.065 A 
ATOM     46  C   UNL A   1      29.413  30.355  23.714  1.00  0.00    -0.036 A 
ATOM     47  C   UNL A   1      29.179  30.051  21.316  1.00  0.00    -0.036 A 
ATOM     48  C   UNL A   1      28.298  31.191  23.732  1.00  0.00    -0.060 A 
ATOM     49  H   UNL A   1      29.940  30.181  24.584  1.00  0.00     0.065 H 
ATOM     50  C   UNL A   1      28.118  30.963  21.331  1.00  0.00    -0.060 A 
ATOM     51  H   UNL A   1      29.479  29.611  20.432  1.00  0.00     0.065 H 
ATOM     52  C   UNL A   1      27.658  31.505  22.537  1.00  0.00    -0.062 A 
ATOM     53  H   UNL A   1      27.949  31.573  24.624  1.00  0.00     0.062 H 
ATOM     54  H   UNL A   1      27.669  31.239  20.444  1.00  0.00     0.062 H 
ATOM     55  H   UNL A   1      26.843  32.138  22.539  1.00  0.00     0.062 H 
ENDBRANCH  28  45
ENDBRANCH  15  25
ENDBRANCH  11  14
ENDBRANCH   7  10
ENDBRANCH   4   7
ENDBRANCH   1   4
BRANCH   1  56
ATOM     56  C   UNL A   1      35.615  21.855  25.272  1.00  0.00    -0.052 C 
ATOM     57  H   UNL A   1      35.724  22.541  24.458  1.00  0.00     0.027 H 
ATOM     58  H   UNL A   1      35.136  20.927  25.039  1.00  0.00     0.027 H 
BRANCH  56  59
ATOM     59  C   UNL A   1      37.023  21.451  25.718  1.00  0.00    -0.036 C 
ATOM     60  H   UNL A   1      37.200  20.463  25.345  1.00  0.00     0.028 H 
ATOM     61  H   UNL A   1      37.001  21.557  26.782  1.00  0.00     0.028 H 
BRANCH  59  62
ATOM     62  C   UNL A   1      38.203  22.317  25.277  1.00  0.00     0.018 C 
ATOM     63  H   UNL A   1      37.920  23.342  25.391  1.00  0.00     0.049 H 
ATOM     64  H   UNL A   1      38.413  22.034  24.267  1.00  0.00     0.049 H 
BRANCH  62  65
ATOM     65  N   UNL A   1      39.457  22.109  26.023  1.00  0.00    -0.352 N 
ATOM     66  C   UNL A   1      40.257  23.066  26.648  1.00  0.00     0.251 C 
ATOM     67  H   UNL A   1      39.770  21.177  26.087  1.00  0.00     0.163 HD
ATOM     68  O   UNL A   1      41.286  22.783  27.228  1.00  0.00    -0.269 OA
BRANCH  66  69
ATOM     69  C   UNL A   1      39.739  24.453  26.678  1.00  0.00     0.039 A 
ATOM     70  C   UNL A   1      40.568  25.440  26.136  1.00  0.00    -0.049 A 
ATOM     71  C   UNL A   1      38.748  24.759  27.607  1.00  0.00    -0.049 A 
ATOM     72  C   UNL A   1      40.626  26.674  26.769  1.00  0.00    -0.053 A 
ATOM     73  H   UNL A   1      41.123  25.255  25.286  1.00  0.00     0.063 H 
ATOM     74  C   UNL A   1      38.872  25.951  28.292  1.00  0.00    -0.053 A 
ATOM     75  H   UNL A   1      37.956  24.121  27.777  1.00  0.00     0.063 H 
ATOM     76  C   UNL A   1      39.881  26.858  27.933  1.00  0.00    -0.014 A 
ATOM     77  H   UNL A   1      41.206  27.437  26.388  1.00  0.00     0.063 H 
ATOM     78  H   UNL A   1      38.224  26.174  29.064  1.00  0.00     0.063 H 
BRANCH  76  79
ATOM     79  C   UNL A   1      40.178  27.903  28.906  1.00  0.00     0.031 A 
ATOM     80  C   UNL A   1      39.326  29.103  28.965  1.00  0.00     0.074 A 
ATOM     81  C   UNL A   1      41.204  27.766  29.778  1.00  0.00     0.049 A 
ATOM     82  N   UNL A   1      39.672  30.206  29.539  1.00  0.00    -0.248 NA
ATOM     83  C   UNL A   1      38.046  29.189  28.274  1.00  0.00    -0.034 C 
ATOM     84  C   UNL A   1      41.454  28.561  30.977  1.00  0.00    -0.036 A 
ATOM     85  N   UNL A   1      42.367  26.994  29.626  1.00  0.00    -0.354 N 
ATOM     86  C   UNL A   1      38.583  31.042  29.532  1.00  0.00     0.074 A 
ATOM     87  C   UNL A   1      37.660  30.421  28.616  1.00  0.00    -0.034 C 
ATOM     88  H   UNL A   1      37.569  28.490  27.684  1.00  0.00     0.065 H 
ATOM     89  C   UNL A   1      42.756  28.484  31.288  1.00  0.00    -0.036 A 
ATOM     90  H   UNL A   1      40.743  29.096  31.501  1.00  0.00     0.065 H 
ATOM     91  C   UNL A   1      43.410  27.744  30.227  1.00  0.00     0.049 A 
ATOM     92  H   UNL A   1      42.443  26.114  29.191  1.00  0.00     0.167 HD
ATOM     93  C   UNL A   1      38.568  32.092  30.402  1.00  0.00     0.037 A 
ATOM     94  H   UNL A   1      36.802  30.876  28.265  1.00  0.00     0.065 H 
ATOM     95  H   UNL A   1      43.208  28.878  32.127  1.00  0.00     0.065 H 
ATOM     96  C   UNL A   1      44.478  28.182  29.500  1.00  0.00     0.037 A 
ATOM     97  C   UNL A   1      39.904  32.325  30.962  1.00  0.00     0.049 A 
ATOM     98  C   UNL A   1      44.630  29.687  29.440  1.00  0.00     0.074 A 
ATOM     99  C   UNL A   1      40.517  32.093  32.182  1.00  0.00    -0.036 A 
ATOM    100  N   UNL A   1      40.923  32.671  30.088  1.00  0.00    -0.354 N 
ATOM    101  N   UNL A   1      43.800  30.531  29.986  1.00  0.00    -0.248 NA
ATOM    102  C   UNL A   1      45.674  30.360  28.662  1.00  0.00    -0.034 C 
ATOM    103  C   UNL A   1      41.924  32.279  32.014  1.00  0.00    -0.036 A 
ATOM    104  H   UNL A   1      40.042  31.833  33.059  1.00  0.00     0.065 H 
ATOM    105  C   UNL A   1      42.160  32.634  30.698  1.00  0.00     0.049 A 
ATOM    106  H   UNL A   1      40.781  32.915  29.145  1.00  0.00     0.167 HD
ATOM    107  C   UNL A   1      44.117  31.800  29.584  1.00  0.00     0.074 A 
ATOM    108  C   UNL A   1      45.308  31.648  28.771  1.00  0.00    -0.034 C 
ATOM    109  H   UNL A   1      46.479  29.951  28.161  1.00  0.00     0.065 H 
ATOM    110  H   UNL A   1      42.640  32.167  32.748  1.00  0.00     0.065 H 
ATOM    111  C   UNL A   1      43.348  32.881  29.897  1.00  0.00     0.037 A 
ATOM    112  H   UNL A   1      45.813  32.434  28.331  1.00  0.00     0.065 H 
BRANCH  93 113
ATOM    113  C   UNL A   1      37.325  32.819  30.893  1.00  0.00     0.064 A 
ATOM    114  C   UNL A   1      36.826  32.558  32.189  1.00  0.00     0.173 A 
ATOM    115  C   UNL A   1      36.511  33.684  30.130  1.00  0.00     0.173 A 
ATOM    116  F   UNL A   1      37.496  31.786  33.056  1.00  0.00    -0.203 F 
ATOM    117  C   UNL A   1      35.603  33.063  32.647  1.00  0.00     0.198 A 
ATOM    118  C   UNL A   1      35.301  34.205  30.595  1.00  0.00     0.198 A 
ATOM    119  F   UNL A   1      36.815  34.060  28.889  1.00  0.00    -0.203 F 
ATOM    120  F   UNL A   1      35.162  32.732  33.869  1.00  0.00    -0.200 F 
ATOM    121  C   UNL A   1      34.835  33.882  31.847  1.00  0.00     0.200 A 
ATOM    122  F   UNL A   1      34.580  35.008  29.797  1.00  0.00    -0.200 F 
ATOM    123  F   UNL A   1      33.656  34.351  32.273  1.00  0.00    -0.200 F 
ENDBRANCH  93 113
BRANCH  96 124
ATOM    124  C   UNL A   1      44.840  27.240  28.410  1.00  0.00     0.064 A 
ATOM    125  C   UNL A   1      45.427  26.011  28.768  1.00  0.00     0.173 A 
ATOM    126  C   UNL A   1      44.263  27.344  27.141  1.00  0.00     0.173 A 
ATOM    127  F   UNL A   1      45.993  25.864  29.976  1.00  0.00    -0.203 F 
ATOM    128  C   UNL A   1      45.318  24.895  27.942  1.00  0.00     0.198 A 
ATOM    129  C   UNL A   1      44.170  26.227  26.310  1.00  0.00     0.198 A 
ATOM    130  F   UNL A   1      43.675  28.485  26.754  1.00  0.00    -0.203 F 
ATOM    131  F   UNL A   1      45.775  23.707  28.362  1.00  0.00    -0.200 F 
ATOM    132  C   UNL A   1      44.662  24.998  26.727  1.00  0.00     0.200 A 
ATOM    133  F   UNL A   1      43.516  26.320  25.144  1.00  0.00    -0.200 F 
ATOM    134  F   UNL A   1      44.466  23.906  25.976  1.00  0.00    -0.200 F 
ENDBRANCH  96 124
BRANCH 111 135
ATOM    135  C   UNL A   1      43.669  34.272  29.446  1.00  0.00     0.064 A 
ATOM    136  C   UNL A   1      43.984  35.295  30.352  1.00  0.00     0.173 A 
ATOM    137  C   UNL A   1      43.543  34.647  28.093  1.00  0.00     0.173 A 
ATOM    138  F   UNL A   1      44.103  35.033  31.662  1.00  0.00    -0.203 F 
ATOM    139  C   UNL A   1      44.169  36.613  29.928  1.00  0.00     0.198 A 
ATOM    140  C   UNL A   1      43.678  35.970  27.679  1.00  0.00     0.198 A 
ATOM    141  F   UNL A   1      43.308  33.733  27.139  1.00  0.00    -0.203 F 
ATOM    142  F   UNL A   1      44.503  37.558  30.818  1.00  0.00    -0.200 F 
ATOM    143  C   UNL A   1      43.996  36.953  28.597  1.00  0.00     0.200 A 
ATOM    144  F   UNL A   1      43.499  36.286  26.389  1.00  0.00    -0.200 F 
ATOM    145  F   UNL A   1      44.142  38.224  28.197  1.00  0.00    -0.200 F 
ENDBRANCH 111 135
ENDBRANCH  76  79
ENDBRANCH  66  69
ENDBRANCH  62  65
ENDBRANCH  59  62
ENDBRANCH  56  59
ENDBRANCH   1  56
TORSDOF 17
ENDMDL
MODEL 4
REMARK VINA RESULT:     -13.0      3.572      9.741
REMARK SMILES Cc1ccc(-c2nn(-c3ccccc3)cc2[C@@H]2[NH2+][C@H](C(=O)NCCCCCCNC(=O)c3ccc(-c4c5nc(c(-c6c(F)c(F)c(F)c(F)c6F)c6ccc([nH]6)c(-c6c(F)c(F)c(F)c(F)c6F)c6nc(c(-c7c(F)c(F)c(F)c(F)c7F)c7ccc4[nH]7)C=C6)C=C5)cc3)CS2)cc1
REMARK SMILES IDX 25 1 24 4 23 7 22 10 20 11 21 12 19 14 17 15 18 16 96 17
REMARK SMILES IDX 95 21 16 25 6 26 7 27 8 28 15 29 5 31 2 32 3 33 98 34 4 35
REMARK SMILES IDX 97 37 1 41 9 45 10 46 14 47 11 48 13 50 12 52 26 56 27 59
REMARK SMILES IDX 28 62 29 65 30 66 31 68 32 69 33 70 94 71 34 72 93 74 35 76
REMARK SMILES IDX 36 79 37 80 87 81 38 82 92 83 86 84 88 85 39 86 91 87 85 89
REMARK SMILES IDX 84 91 40 93 72 96 52 97 71 98 53 99 56 100 70 101 89 102
REMARK SMILES IDX 54 103 55 105 69 107 90 108 57 111 41 113 42 114 50 115
REMARK SMILES IDX 43 116 44 117 48 118 51 119 45 120 46 121 49 122 47 123
REMARK SMILES IDX 73 124 74 125 82 126 75 127 76 128 80 129 83 130 77 131
REMARK SMILES IDX 78 132 81 133 79 134 58 135 59 136 67 137 60 138 61 139
REMARK SMILES IDX 65 140 68 141 62 142 63 143 66 144 64 145
REMARK H PARENT 25 2 25 3 24 5 24 6 23 8 23 9 22 13 17 18 18 19 18 20 19 22
REMARK H PARENT 95 23 95 24 15 30 3 36 98 38 4 39 97 40 1 42 1 43 1 44 10 49
REMARK H PARENT 14 51 11 53 13 54 12 55 26 57 26 58 27 60 27 61 28 63 28 64
REMARK H PARENT 29 67 33 73 94 75 34 77 93 78 92 88 86 90 88 92 91 94 85 95
REMARK H PARENT 53 104 56 106 89 109 54 110 90 112
REMARK Flexibility Score: inf
ROOT
ATOM      1  C   UNL A   1      36.365  23.442  23.544  1.00  0.00    -0.052 C 
ATOM      2  H   UNL A   1      36.354  24.447  23.178  1.00  0.00     0.027 H 
ATOM      3  H   UNL A   1      37.023  22.698  23.144  1.00  0.00     0.027 H 
ENDROOT
BRANCH   1   4
ATOM      4  C   UNL A   1      34.991  22.840  23.138  1.00  0.00    -0.036 C 
ATOM      5  H   UNL A   1      35.173  22.276  22.246  1.00  0.00     0.028 H 
ATOM      6  H   UNL A   1      34.705  22.350  24.045  1.00  0.00     0.028 H 
BRANCH   4   7
ATOM      7  C   UNL A   1      33.744  23.678  22.852  1.00  0.00     0.018 C 
ATOM      8  H   UNL A   1      33.144  23.135  22.152  1.00  0.00     0.049 H 
ATOM      9  H   UNL A   1      33.293  23.838  23.808  1.00  0.00     0.049 H 
BRANCH   7  10
ATOM     10  N   UNL A   1      33.950  25.012  22.307  1.00  0.00    -0.351 N 
ATOM     11  C   UNL A   1      33.120  26.093  22.185  1.00  0.00     0.279 C 
ATOM     12  O   UNL A   1      33.696  27.168  21.943  1.00  0.00    -0.268 OA
ATOM     13  H   UNL A   1      34.859  25.167  21.962  1.00  0.00     0.163 HD
BRANCH  11  14
ATOM     14  C   UNL A   1      31.565  26.127  22.260  1.00  0.00     0.176 C 
ATOM     15  C   UNL A   1      30.154  26.226  24.230  1.00  0.00     0.163 C 
ATOM     16  N   UNL A   1      30.915  25.344  23.338  1.00  0.00    -0.320 N 
ATOM     17  S   UNL A   1      29.532  27.562  23.193  1.00  0.00    -0.087 SA
ATOM     18  H   UNL A   1      29.320  25.757  24.708  1.00  0.00     0.115 H 
ATOM     19  H   UNL A   1      30.281  24.661  22.922  1.00  0.00     0.348 HD
ATOM     20  H   UNL A   1      31.636  24.869  23.881  1.00  0.00     0.348 HD
ATOM     21  C   UNL A   1      31.025  27.562  22.172  1.00  0.00     0.061 C 
ATOM     22  H   UNL A   1      31.272  25.586  21.385  1.00  0.00     0.108 H 
ATOM     23  H   UNL A   1      30.789  27.813  21.160  1.00  0.00     0.045 H 
ATOM     24  H   UNL A   1      31.742  28.282  22.506  1.00  0.00     0.045 H 
BRANCH  15  25
ATOM     25  C   UNL A   1      31.057  26.672  25.335  1.00  0.00     0.067 A 
ATOM     26  C   UNL A   1      31.922  25.872  26.170  1.00  0.00     0.103 A 
ATOM     27  N   UNL A   1      32.581  26.658  27.056  1.00  0.00    -0.167 NA
ATOM     28  N   UNL A   1      32.300  27.930  26.666  1.00  0.00    -0.240 N 
ATOM     29  C   UNL A   1      31.302  27.968  25.743  1.00  0.00     0.041 A 
ATOM     30  H   UNL A   1      30.814  28.813  25.409  1.00  0.00     0.085 H 
BRANCH  26  31
ATOM     31  C   UNL A   1      32.153  24.407  26.105  1.00  0.00     0.003 A 
ATOM     32  C   UNL A   1      32.628  21.605  25.886  1.00  0.00    -0.051 A 
ATOM     33  C   UNL A   1      33.632  22.458  26.333  1.00  0.00    -0.059 A 
ATOM     34  C   UNL A   1      31.372  22.149  25.596  1.00  0.00    -0.059 A 
ATOM     35  C   UNL A   1      33.393  23.832  26.436  1.00  0.00    -0.052 A 
ATOM     36  H   UNL A   1      34.556  22.076  26.590  1.00  0.00     0.063 H 
ATOM     37  C   UNL A   1      31.134  23.533  25.711  1.00  0.00    -0.052 A 
ATOM     38  H   UNL A   1      30.607  21.527  25.293  1.00  0.00     0.063 H 
ATOM     39  H   UNL A   1      34.154  24.447  26.768  1.00  0.00     0.063 H 
ATOM     40  H   UNL A   1      30.196  23.906  25.502  1.00  0.00     0.063 H 
BRANCH  32  41
ATOM     41  C   UNL A   1      32.921  20.141  25.732  1.00  0.00    -0.040 C 
ATOM     42  H   UNL A   1      32.037  19.632  25.407  1.00  0.00     0.028 H 
ATOM     43  H   UNL A   1      33.238  19.740  26.672  1.00  0.00     0.028 H 
ATOM     44  H   UNL A   1      33.697  20.007  25.008  1.00  0.00     0.028 H 
ENDBRANCH  32  41
ENDBRANCH  26  31
BRANCH  28  45
ATOM     45  C   UNL A   1      33.122  29.040  26.975  1.00  0.00     0.065 A 
ATOM     46  C   UNL A   1      34.515  28.853  27.089  1.00  0.00    -0.036 A 
ATOM     47  C   UNL A   1      32.566  30.302  27.156  1.00  0.00    -0.036 A 
ATOM     48  C   UNL A   1      35.334  29.913  27.474  1.00  0.00    -0.060 A 
ATOM     49  H   UNL A   1      34.928  27.929  26.885  1.00  0.00     0.065 H 
ATOM     50  C   UNL A   1      33.411  31.378  27.453  1.00  0.00    -0.060 A 
ATOM     51  H   UNL A   1      31.548  30.444  27.072  1.00  0.00     0.065 H 
ATOM     52  C   UNL A   1      34.783  31.179  27.643  1.00  0.00    -0.062 A 
ATOM     53  H   UNL A   1      36.342  29.758  27.633  1.00  0.00     0.062 H 
ATOM     54  H   UNL A   1      33.018  32.329  27.532  1.00  0.00     0.062 H 
ATOM     55  H   UNL A   1      35.387  31.972  27.910  1.00  0.00     0.062 H 
ENDBRANCH  28  45
ENDBRANCH  15  25
ENDBRANCH  11  14
ENDBRANCH   7  10
ENDBRANCH   4   7
ENDBRANCH   1   4
BRANCH   1  56
ATOM     56  C   UNL A   1      36.905  23.536  24.981  1.00  0.00    -0.052 C 
ATOM     57  H   UNL A   1      36.101  23.277  25.639  1.00  0.00     0.027 H 
ATOM     58  H   UNL A   1      37.268  24.540  25.060  1.00  0.00     0.027 H 
BRANCH  56  59
ATOM     59  C   UNL A   1      38.105  22.668  25.366  1.00  0.00    -0.036 C 
ATOM     60  H   UNL A   1      38.830  22.768  24.583  1.00  0.00     0.028 H 
ATOM     61  H   UNL A   1      37.690  21.692  25.501  1.00  0.00     0.028 H 
BRANCH  59  62
ATOM     62  C   UNL A   1      38.822  22.959  26.684  1.00  0.00     0.018 C 
ATOM     63  H   UNL A   1      38.677  22.118  27.330  1.00  0.00     0.049 H 
ATOM     64  H   UNL A   1      38.398  23.869  27.054  1.00  0.00     0.049 H 
BRANCH  62  65
ATOM     65  N   UNL A   1      40.271  23.204  26.579  1.00  0.00    -0.352 N 
ATOM     66  C   UNL A   1      40.953  24.413  26.717  1.00  0.00     0.251 C 
ATOM     67  H   UNL A   1      40.829  22.415  26.386  1.00  0.00     0.163 HD
ATOM     68  O   UNL A   1      42.158  24.505  26.596  1.00  0.00    -0.269 OA
BRANCH  66  69
ATOM     69  C   UNL A   1      40.153  25.587  27.136  1.00  0.00     0.039 A 
ATOM     70  C   UNL A   1      40.386  26.779  26.444  1.00  0.00    -0.049 A 
ATOM     71  C   UNL A   1      39.606  25.579  28.416  1.00  0.00    -0.049 A 
ATOM     72  C   UNL A   1      40.380  27.970  27.158  1.00  0.00    -0.053 A 
ATOM     73  H   UNL A   1      40.557  26.774  25.426  1.00  0.00     0.063 H 
ATOM     74  C   UNL A   1      39.690  26.748  29.146  1.00  0.00    -0.053 A 
ATOM     75  H   UNL A   1      39.157  24.735  28.802  1.00  0.00     0.063 H 
ATOM     76  C   UNL A   1      40.177  27.915  28.536  1.00  0.00    -0.014 A 
ATOM     77  H   UNL A   1      40.523  28.873  26.681  1.00  0.00     0.063 H 
ATOM     78  H   UNL A   1      39.395  26.763  30.134  1.00  0.00     0.063 H 
BRANCH  76  79
ATOM     79  C   UNL A   1      40.572  28.991  29.438  1.00  0.00     0.031 A 
ATOM     80  C   UNL A   1      39.588  30.021  29.813  1.00  0.00     0.074 A 
ATOM     81  C   UNL A   1      41.819  29.033  29.961  1.00  0.00     0.049 A 
ATOM     82  N   UNL A   1      39.900  31.165  30.323  1.00  0.00    -0.248 NA
ATOM     83  C   UNL A   1      38.165  29.884  29.534  1.00  0.00    -0.034 C 
ATOM     84  C   UNL A   1      42.279  29.853  31.079  1.00  0.00    -0.036 A 
ATOM     85  N   UNL A   1      42.996  28.479  29.431  1.00  0.00    -0.354 N 
ATOM     86  C   UNL A   1      38.736  31.796  30.683  1.00  0.00     0.074 A 
ATOM     87  C   UNL A   1      37.698  31.026  30.044  1.00  0.00    -0.034 C 
ATOM     88  H   UNL A   1      37.657  29.114  29.070  1.00  0.00     0.065 H 
ATOM     89  C   UNL A   1      43.608  30.005  30.989  1.00  0.00    -0.036 A 
ATOM     90  H   UNL A   1      41.678  30.251  31.818  1.00  0.00     0.065 H 
ATOM     91  C   UNL A   1      44.030  29.398  29.743  1.00  0.00     0.049 A 
ATOM     92  H   UNL A   1      43.084  27.629  28.943  1.00  0.00     0.167 HD
ATOM     93  C   UNL A   1      38.805  32.822  31.578  1.00  0.00     0.037 A 
ATOM     94  H   UNL A   1      36.711  31.324  29.986  1.00  0.00     0.065 H 
ATOM     95  H   UNL A   1      44.218  30.469  31.680  1.00  0.00     0.065 H 
ATOM     96  C   UNL A   1      44.743  30.022  28.762  1.00  0.00     0.037 A 
ATOM     97  C   UNL A   1      40.190  33.284  31.735  1.00  0.00     0.049 A 
ATOM     98  C   UNL A   1      44.616  31.531  28.746  1.00  0.00     0.074 A 
ATOM     99  C   UNL A   1      41.169  33.158  32.707  1.00  0.00    -0.036 A 
ATOM    100  N   UNL A   1      40.828  33.809  30.623  1.00  0.00    -0.354 N 
ATOM    101  N   UNL A   1      43.859  32.212  29.559  1.00  0.00    -0.248 NA
ATOM    102  C   UNL A   1      45.253  32.381  27.736  1.00  0.00    -0.034 C 
ATOM    103  C   UNL A   1      42.409  33.590  32.144  1.00  0.00    -0.036 A 
ATOM    104  H   UNL A   1      41.027  32.813  33.668  1.00  0.00     0.065 H 
ATOM    105  C   UNL A   1      42.178  33.989  30.840  1.00  0.00     0.049 A 
ATOM    106  H   UNL A   1      40.372  34.029  29.778  1.00  0.00     0.167 HD
ATOM    107  C   UNL A   1      43.824  33.519  29.156  1.00  0.00     0.074 A 
ATOM    108  C   UNL A   1      44.726  33.584  28.022  1.00  0.00    -0.034 C 
ATOM    109  H   UNL A   1      45.927  32.124  26.999  1.00  0.00     0.065 H 
ATOM    110  H   UNL A   1      43.320  33.603  32.629  1.00  0.00     0.065 H 
ATOM    111  C   UNL A   1      43.014  34.445  29.741  1.00  0.00     0.037 A 
ATOM    112  H   UNL A   1      44.938  34.449  27.499  1.00  0.00     0.065 H 
BRANCH  93 113
ATOM    113  C   UNL A   1      37.663  33.315  32.453  1.00  0.00     0.064 A 
ATOM    114  C   UNL A   1      36.608  34.058  31.876  1.00  0.00     0.173 A 
ATOM    115  C   UNL A   1      37.584  33.206  33.858  1.00  0.00     0.173 A 
ATOM    116  F   UNL A   1      36.512  34.227  30.550  1.00  0.00    -0.203 F 
ATOM    117  C   UNL A   1      35.612  34.681  32.640  1.00  0.00     0.198 A 
ATOM    118  C   UNL A   1      36.579  33.809  34.619  1.00  0.00     0.198 A 
ATOM    119  F   UNL A   1      38.476  32.536  34.585  1.00  0.00    -0.203 F 
ATOM    120  F   UNL A   1      34.671  35.417  32.032  1.00  0.00    -0.200 F 
ATOM    121  C   UNL A   1      35.601  34.562  34.013  1.00  0.00     0.200 A 
ATOM    122  F   UNL A   1      36.588  33.668  35.952  1.00  0.00    -0.200 F 
ATOM    123  F   UNL A   1      34.663  35.172  34.749  1.00  0.00    -0.200 F 
ENDBRANCH  93 113
BRANCH  96 124
ATOM    124  C   UNL A   1      44.915  29.165  27.561  1.00  0.00     0.064 A 
ATOM    125  C   UNL A   1      45.879  28.140  27.614  1.00  0.00     0.173 A 
ATOM    126  C   UNL A   1      43.916  29.071  26.587  1.00  0.00     0.173 A 
ATOM    127  F   UNL A   1      46.857  28.186  28.532  1.00  0.00    -0.203 F 
ATOM    128  C   UNL A   1      45.766  27.004  26.817  1.00  0.00     0.198 A 
ATOM    129  C   UNL A   1      43.816  27.938  25.780  1.00  0.00     0.198 A 
ATOM    130  F   UNL A   1      42.963  30.010  26.501  1.00  0.00    -0.203 F 
ATOM    131  F   UNL A   1      46.626  25.988  26.977  1.00  0.00    -0.200 F 
ATOM    132  C   UNL A   1      44.716  26.891  25.922  1.00  0.00     0.200 A 
ATOM    133  F   UNL A   1      42.787  27.819  24.929  1.00  0.00    -0.200 F 
ATOM    134  F   UNL A   1      44.545  25.759  25.227  1.00  0.00    -0.200 F 
ENDBRANCH  96 124
BRANCH 111 135
ATOM    135  C   UNL A   1      42.949  35.873  29.297  1.00  0.00     0.064 A 
ATOM    136  C   UNL A   1      42.239  36.266  28.153  1.00  0.00     0.173 A 
ATOM    137  C   UNL A   1      43.710  36.872  29.938  1.00  0.00     0.173 A 
ATOM    138  F   UNL A   1      41.506  35.377  27.467  1.00  0.00    -0.203 F 
ATOM    139  C   UNL A   1      42.281  37.581  27.684  1.00  0.00     0.198 A 
ATOM    140  C   UNL A   1      43.790  38.171  29.441  1.00  0.00     0.198 A 
ATOM    141  F   UNL A   1      44.373  36.615  31.076  1.00  0.00    -0.203 F 
ATOM    142  F   UNL A   1      41.561  37.928  26.608  1.00  0.00    -0.200 F 
ATOM    143  C   UNL A   1      43.071  38.526  28.316  1.00  0.00     0.200 A 
ATOM    144  F   UNL A   1      44.566  39.073  30.058  1.00  0.00    -0.200 F 
ATOM    145  F   UNL A   1      43.136  39.780  27.847  1.00  0.00    -0.200 F 
ENDBRANCH 111 135
ENDBRANCH  76  79
ENDBRANCH  66  69
ENDBRANCH  62  65
ENDBRANCH  59  62
ENDBRANCH  56  59
ENDBRANCH   1  56
TORSDOF 17
ENDMDL
MODEL 5
REMARK VINA RESULT:     -12.9      1.149      3.503
REMARK SMILES Cc1ccc(-c2nn(-c3ccccc3)cc2[C@@H]2[NH2+][C@H](C(=O)NCCCCCCNC(=O)c3ccc(-c4c5nc(c(-c6c(F)c(F)c(F)c(F)c6F)c6ccc([nH]6)c(-c6c(F)c(F)c(F)c(F)c6F)c6nc(c(-c7c(F)c(F)c(F)c(F)c7F)c7ccc4[nH]7)C=C6)C=C5)cc3)CS2)cc1
REMARK SMILES IDX 25 1 24 4 23 7 22 10 20 11 21 12 19 14 17 15 18 16 96 17
REMARK SMILES IDX 95 21 16 25 6 26 7 27 8 28 15 29 5 31 2 32 3 33 98 34 4 35
REMARK SMILES IDX 97 37 1 41 9 45 10 46 14 47 11 48 13 50 12 52 26 56 27 59
REMARK SMILES IDX 28 62 29 65 30 66 31 68 32 69 33 70 94 71 34 72 93 74 35 76
REMARK SMILES IDX 36 79 37 80 87 81 38 82 92 83 86 84 88 85 39 86 91 87 85 89
REMARK SMILES IDX 84 91 40 93 72 96 52 97 71 98 53 99 56 100 70 101 89 102
REMARK SMILES IDX 54 103 55 105 69 107 90 108 57 111 41 113 42 114 50 115
REMARK SMILES IDX 43 116 44 117 48 118 51 119 45 120 46 121 49 122 47 123
REMARK SMILES IDX 73 124 74 125 82 126 75 127 76 128 80 129 83 130 77 131
REMARK SMILES IDX 78 132 81 133 79 134 58 135 59 136 67 137 60 138 61 139
REMARK SMILES IDX 65 140 68 141 62 142 63 143 66 144 64 145
REMARK H PARENT 25 2 25 3 24 5 24 6 23 8 23 9 22 13 17 18 18 19 18 20 19 22
REMARK H PARENT 95 23 95 24 15 30 3 36 98 38 4 39 97 40 1 42 1 43 1 44 10 49
REMARK H PARENT 14 51 11 53 13 54 12 55 26 57 26 58 27 60 27 61 28 63 28 64
REMARK H PARENT 29 67 33 73 94 75 34 77 93 78 92 88 86 90 88 92 91 94 85 95
REMARK H PARENT 53 104 56 106 89 109 54 110 90 112
REMARK Flexibility Score: inf
ROOT
ATOM      1  C   UNL A   1      32.817  27.759  25.432  1.00  0.00    -0.052 C 
ATOM      2  H   UNL A   1      32.407  27.466  24.489  1.00  0.00     0.027 H 
ATOM      3  H   UNL A   1      33.838  28.063  25.539  1.00  0.00     0.027 H 
ENDROOT
BRANCH   1   4
ATOM      4  C   UNL A   1      32.825  26.467  26.298  1.00  0.00    -0.036 C 
ATOM      5  H   UNL A   1      33.360  26.719  27.190  1.00  0.00     0.028 H 
ATOM      6  H   UNL A   1      31.781  26.237  26.333  1.00  0.00     0.028 H 
BRANCH   4   7
ATOM      7  C   UNL A   1      33.405  25.131  25.829  1.00  0.00     0.018 C 
ATOM      8  H   UNL A   1      32.733  24.727  25.101  1.00  0.00     0.049 H 
ATOM      9  H   UNL A   1      34.382  25.367  25.464  1.00  0.00     0.049 H 
BRANCH   7  10
ATOM     10  N   UNL A   1      33.620  24.108  26.842  1.00  0.00    -0.351 N 
ATOM     11  C   UNL A   1      34.640  23.220  27.048  1.00  0.00     0.279 C 
ATOM     12  O   UNL A   1      34.648  22.687  28.171  1.00  0.00    -0.268 OA
ATOM     13  H   UNL A   1      32.894  24.043  27.504  1.00  0.00     0.163 HD
BRANCH  11  14
ATOM     14  C   UNL A   1      35.741  22.767  26.045  1.00  0.00     0.176 C 
ATOM     15  C   UNL A   1      35.470  21.965  23.772  1.00  0.00     0.163 C 
ATOM     16  N   UNL A   1      35.448  21.592  25.190  1.00  0.00    -0.320 N 
ATOM     17  S   UNL A   1      36.714  23.261  23.621  1.00  0.00    -0.087 SA
ATOM     18  H   UNL A   1      35.736  21.168  23.110  1.00  0.00     0.115 H 
ATOM     19  H   UNL A   1      36.150  20.871  25.359  1.00  0.00     0.348 HD
ATOM     20  H   UNL A   1      34.519  21.239  25.423  1.00  0.00     0.348 HD
ATOM     21  C   UNL A   1      36.294  23.952  25.240  1.00  0.00     0.061 C 
ATOM     22  H   UNL A   1      36.508  22.390  26.687  1.00  0.00     0.108 H 
ATOM     23  H   UNL A   1      37.164  24.356  25.713  1.00  0.00     0.045 H 
ATOM     24  H   UNL A   1      35.588  24.752  25.165  1.00  0.00     0.045 H 
BRANCH  15  25
ATOM     25  C   UNL A   1      34.092  22.383  23.372  1.00  0.00     0.067 A 
ATOM     26  C   UNL A   1      32.873  21.609  23.397  1.00  0.00     0.103 A 
ATOM     27  N   UNL A   1      31.832  22.356  22.955  1.00  0.00    -0.167 NA
ATOM     28  N   UNL A   1      32.330  23.615  22.845  1.00  0.00    -0.240 N 
ATOM     29  C   UNL A   1      33.686  23.634  22.954  1.00  0.00     0.041 A 
ATOM     30  H   UNL A   1      34.301  24.440  22.758  1.00  0.00     0.085 H 
BRANCH  26  31
ATOM     31  C   UNL A   1      32.689  20.213  23.868  1.00  0.00     0.003 A 
ATOM     32  C   UNL A   1      32.432  17.520  24.766  1.00  0.00    -0.051 A 
ATOM     33  C   UNL A   1      32.598  18.556  25.680  1.00  0.00    -0.059 A 
ATOM     34  C   UNL A   1      32.345  17.839  23.406  1.00  0.00    -0.059 A 
ATOM     35  C   UNL A   1      32.725  19.875  25.232  1.00  0.00    -0.052 A 
ATOM     36  H   UNL A   1      32.627  18.351  26.691  1.00  0.00     0.063 H 
ATOM     37  C   UNL A   1      32.464  19.171  22.962  1.00  0.00    -0.052 A 
ATOM     38  H   UNL A   1      32.191  17.087  22.717  1.00  0.00     0.063 H 
ATOM     39  H   UNL A   1      32.850  20.628  25.928  1.00  0.00     0.063 H 
ATOM     40  H   UNL A   1      32.385  19.379  21.955  1.00  0.00     0.063 H 
BRANCH  32  41
ATOM     41  C   UNL A   1      32.351  16.106  25.263  1.00  0.00    -0.040 C 
ATOM     42  H   UNL A   1      33.257  15.855  25.774  1.00  0.00     0.028 H 
ATOM     43  H   UNL A   1      32.214  15.444  24.433  1.00  0.00     0.028 H 
ATOM     44  H   UNL A   1      31.524  16.011  25.935  1.00  0.00     0.028 H 
ENDBRANCH  32  41
ENDBRANCH  26  31
BRANCH  28  45
ATOM     45  C   UNL A   1      31.526  24.779  22.887  1.00  0.00     0.065 A 
ATOM     46  C   UNL A   1      31.846  25.866  22.049  1.00  0.00    -0.036 A 
ATOM     47  C   UNL A   1      30.427  24.848  23.738  1.00  0.00    -0.036 A 
ATOM     48  C   UNL A   1      31.120  27.053  22.133  1.00  0.00    -0.060 A 
ATOM     49  H   UNL A   1      32.620  25.782  21.371  1.00  0.00     0.065 H 
ATOM     50  C   UNL A   1      29.649  26.012  23.746  1.00  0.00    -0.060 A 
ATOM     51  H   UNL A   1      30.188  24.054  24.351  1.00  0.00     0.065 H 
ATOM     52  C   UNL A   1      30.013  27.120  22.973  1.00  0.00    -0.062 A 
ATOM     53  H   UNL A   1      31.402  27.874  21.577  1.00  0.00     0.062 H 
ATOM     54  H   UNL A   1      28.799  26.053  24.329  1.00  0.00     0.062 H 
ATOM     55  H   UNL A   1      29.459  27.990  23.026  1.00  0.00     0.062 H 
ENDBRANCH  28  45
ENDBRANCH  15  25
ENDBRANCH  11  14
ENDBRANCH   7  10
ENDBRANCH   4   7
ENDBRANCH   1   4
BRANCH   1  56
ATOM     56  C   UNL A   1      32.103  29.070  25.800  1.00  0.00    -0.052 C 
ATOM     57  H   UNL A   1      31.441  28.854  26.612  1.00  0.00     0.027 H 
ATOM     58  H   UNL A   1      31.639  29.381  24.887  1.00  0.00     0.027 H 
BRANCH  56  59
ATOM     59  C   UNL A   1      32.956  30.270  26.217  1.00  0.00    -0.036 C 
ATOM     60  H   UNL A   1      32.501  31.143  25.796  1.00  0.00     0.028 H 
ATOM     61  H   UNL A   1      33.936  30.032  25.861  1.00  0.00     0.028 H 
BRANCH  59  62
ATOM     62  C   UNL A   1      33.154  30.541  27.708  1.00  0.00     0.018 C 
ATOM     63  H   UNL A   1      33.556  29.655  28.153  1.00  0.00     0.049 H 
ATOM     64  H   UNL A   1      32.192  30.817  28.086  1.00  0.00     0.049 H 
BRANCH  62  65
ATOM     65  N   UNL A   1      34.052  31.661  28.038  1.00  0.00    -0.352 N 
ATOM     66  C   UNL A   1      35.369  31.604  28.497  1.00  0.00     0.251 C 
ATOM     67  H   UNL A   1      33.676  32.564  27.920  1.00  0.00     0.163 HD
ATOM     68  O   UNL A   1      36.019  32.597  28.752  1.00  0.00    -0.269 OA
BRANCH  66  69
ATOM     69  C   UNL A   1      35.998  30.264  28.555  1.00  0.00     0.039 A 
ATOM     70  C   UNL A   1      36.392  29.816  29.820  1.00  0.00    -0.049 A 
ATOM     71  C   UNL A   1      36.568  29.761  27.390  1.00  0.00    -0.049 A 
ATOM     72  C   UNL A   1      37.582  29.109  29.928  1.00  0.00    -0.053 A 
ATOM     73  H   UNL A   1      35.811  30.004  30.651  1.00  0.00     0.063 H 
ATOM     74  C   UNL A   1      37.796  29.140  27.505  1.00  0.00    -0.053 A 
ATOM     75  H   UNL A   1      36.094  29.849  26.478  1.00  0.00     0.063 H 
ATOM     76  C   UNL A   1      38.343  28.912  28.777  1.00  0.00    -0.014 A 
ATOM     77  H   UNL A   1      37.897  28.739  30.838  1.00  0.00     0.063 H 
ATOM     78  H   UNL A   1      38.308  28.845  26.659  1.00  0.00     0.063 H 
BRANCH  76  79
ATOM     79  C   UNL A   1      39.766  28.593  28.814  1.00  0.00     0.031 A 
ATOM     80  C   UNL A   1      40.213  27.231  28.476  1.00  0.00     0.074 A 
ATOM     81  C   UNL A   1      40.681  29.541  29.120  1.00  0.00     0.049 A 
ATOM     82  N   UNL A   1      41.373  26.755  28.781  1.00  0.00    -0.248 NA
ATOM     83  C   UNL A   1      39.333  26.248  27.858  1.00  0.00    -0.034 C 
ATOM     84  C   UNL A   1      42.126  29.469  28.923  1.00  0.00    -0.036 A 
ATOM     85  N   UNL A   1      40.494  30.705  29.884  1.00  0.00    -0.354 N 
ATOM     86  C   UNL A   1      41.496  25.527  28.180  1.00  0.00     0.074 A 
ATOM     87  C   UNL A   1      40.159  25.205  27.747  1.00  0.00    -0.034 C 
ATOM     88  H   UNL A   1      38.342  26.335  27.580  1.00  0.00     0.065 H 
ATOM     89  C   UNL A   1      42.724  30.326  29.763  1.00  0.00    -0.036 A 
ATOM     90  H   UNL A   1      42.609  28.857  28.246  1.00  0.00     0.065 H 
ATOM     91  C   UNL A   1      41.695  30.883  30.618  1.00  0.00     0.049 A 
ATOM     92  H   UNL A   1      39.694  31.279  29.906  1.00  0.00     0.167 HD
ATOM     93  C   UNL A   1      42.745  25.003  28.026  1.00  0.00     0.037 A 
ATOM     94  H   UNL A   1      39.875  24.277  27.395  1.00  0.00     0.065 H 
ATOM     95  H   UNL A   1      43.731  30.547  29.796  1.00  0.00     0.065 H 
ATOM     96  C   UNL A   1      41.702  30.860  31.982  1.00  0.00     0.037 A 
ATOM     97  C   UNL A   1      43.718  25.723  28.856  1.00  0.00     0.049 A 
ATOM     98  C   UNL A   1      42.533  29.752  32.594  1.00  0.00     0.074 A 
ATOM     99  C   UNL A   1      44.724  26.646  28.622  1.00  0.00    -0.036 A 
ATOM    100  N   UNL A   1      43.545  25.695  30.231  1.00  0.00    -0.354 N 
ATOM    101  N   UNL A   1      43.168  28.845  31.906  1.00  0.00    -0.248 NA
ATOM    102  C   UNL A   1      42.623  29.518  34.038  1.00  0.00    -0.034 C 
ATOM    103  C   UNL A   1      45.128  27.191  29.880  1.00  0.00    -0.036 A 
ATOM    104  H   UNL A   1      45.114  26.897  27.700  1.00  0.00     0.065 H 
ATOM    105  C   UNL A   1      44.377  26.588  30.874  1.00  0.00     0.049 A 
ATOM    106  H   UNL A   1      42.906  25.108  30.695  1.00  0.00     0.167 HD
ATOM    107  C   UNL A   1      43.655  27.891  32.757  1.00  0.00     0.074 A 
ATOM    108  C   UNL A   1      43.307  28.362  34.084  1.00  0.00    -0.034 C 
ATOM    109  H   UNL A   1      42.257  30.089  34.814  1.00  0.00     0.065 H 
ATOM    110  H   UNL A   1      45.855  27.908  30.022  1.00  0.00     0.065 H 
ATOM    111  C   UNL A   1      44.258  26.752  32.313  1.00  0.00     0.037 A 
ATOM    112  H   UNL A   1      43.555  27.869  34.957  1.00  0.00     0.065 H 
BRANCH  93 113
ATOM    113  C   UNL A   1      43.145  23.949  27.006  1.00  0.00     0.064 A 
ATOM    114  C   UNL A   1      42.747  22.605  27.191  1.00  0.00     0.173 A 
ATOM    115  C   UNL A   1      44.000  24.145  25.899  1.00  0.00     0.173 A 
ATOM    116  F   UNL A   1      41.907  22.252  28.174  1.00  0.00    -0.203 F 
ATOM    117  C   UNL A   1      43.213  21.558  26.386  1.00  0.00     0.198 A 
ATOM    118  C   UNL A   1      44.447  23.103  25.083  1.00  0.00     0.198 A 
ATOM    119  F   UNL A   1      44.473  25.339  25.552  1.00  0.00    -0.203 F 
ATOM    120  F   UNL A   1      42.838  20.299  26.651  1.00  0.00    -0.200 F 
ATOM    121  C   UNL A   1      44.069  21.806  25.334  1.00  0.00     0.200 A 
ATOM    122  F   UNL A   1      45.271  23.376  24.060  1.00  0.00    -0.200 F 
ATOM    123  F   UNL A   1      44.532  20.806  24.574  1.00  0.00    -0.200 F 
ENDBRANCH  93 113
BRANCH  96 124
ATOM    124  C   UNL A   1      40.448  31.408  32.560  1.00  0.00     0.064 A 
ATOM    125  C   UNL A   1      40.222  32.794  32.450  1.00  0.00     0.173 A 
ATOM    126  C   UNL A   1      39.347  30.585  32.817  1.00  0.00     0.173 A 
ATOM    127  F   UNL A   1      41.247  33.624  32.203  1.00  0.00    -0.203 F 
ATOM    128  C   UNL A   1      38.931  33.315  32.462  1.00  0.00     0.198 A 
ATOM    129  C   UNL A   1      38.057  31.114  32.844  1.00  0.00     0.198 A 
ATOM    130  F   UNL A   1      39.502  29.257  32.915  1.00  0.00    -0.203 F 
ATOM    131  F   UNL A   1      38.736  34.620  32.231  1.00  0.00    -0.200 F 
ATOM    132  C   UNL A   1      37.847  32.469  32.628  1.00  0.00     0.200 A 
ATOM    133  F   UNL A   1      37.007  30.293  32.982  1.00  0.00    -0.200 F 
ATOM    134  F   UNL A   1      36.600  32.951  32.540  1.00  0.00    -0.200 F 
ENDBRANCH  96 124
BRANCH 111 135
ATOM    135  C   UNL A   1      44.776  25.690  33.232  1.00  0.00     0.064 A 
ATOM    136  C   UNL A   1      46.130  25.325  33.262  1.00  0.00     0.173 A 
ATOM    137  C   UNL A   1      43.899  24.915  34.018  1.00  0.00     0.173 A 
ATOM    138  F   UNL A   1      47.032  25.994  32.527  1.00  0.00    -0.203 F 
ATOM    139  C   UNL A   1      46.581  24.255  34.038  1.00  0.00     0.198 A 
ATOM    140  C   UNL A   1      44.343  23.817  34.752  1.00  0.00     0.198 A 
ATOM    141  F   UNL A   1      42.596  25.221  34.109  1.00  0.00    -0.203 F 
ATOM    142  F   UNL A   1      47.888  23.959  34.068  1.00  0.00    -0.200 F 
ATOM    143  C   UNL A   1      45.685  23.491  34.766  1.00  0.00     0.200 A 
ATOM    144  F   UNL A   1      43.463  23.081  35.446  1.00  0.00    -0.200 F 
ATOM    145  F   UNL A   1      46.114  22.444  35.485  1.00  0.00    -0.200 F 
ENDBRANCH 111 135
ENDBRANCH  76  79
ENDBRANCH  66  69
ENDBRANCH  62  65
ENDBRANCH  59  62
ENDBRANCH  56  59
ENDBRANCH   1  56
TORSDOF 17
ENDMDL
MODEL 6
REMARK VINA RESULT:     -12.9      3.696      9.382
REMARK SMILES Cc1ccc(-c2nn(-c3ccccc3)cc2[C@@H]2[NH2+][C@H](C(=O)NCCCCCCNC(=O)c3ccc(-c4c5nc(c(-c6c(F)c(F)c(F)c(F)c6F)c6ccc([nH]6)c(-c6c(F)c(F)c(F)c(F)c6F)c6nc(c(-c7c(F)c(F)c(F)c(F)c7F)c7ccc4[nH]7)C=C6)C=C5)cc3)CS2)cc1
REMARK SMILES IDX 25 1 24 4 23 7 22 10 20 11 21 12 19 14 17 15 18 16 96 17
REMARK SMILES IDX 95 21 16 25 6 26 7 27 8 28 15 29 5 31 2 32 3 33 98 34 4 35
REMARK SMILES IDX 97 37 1 41 9 45 10 46 14 47 11 48 13 50 12 52 26 56 27 59
REMARK SMILES IDX 28 62 29 65 30 66 31 68 32 69 33 70 94 71 34 72 93 74 35 76
REMARK SMILES IDX 36 79 37 80 87 81 38 82 92 83 86 84 88 85 39 86 91 87 85 89
REMARK SMILES IDX 84 91 40 93 72 96 52 97 71 98 53 99 56 100 70 101 89 102
REMARK SMILES IDX 54 103 55 105 69 107 90 108 57 111 41 113 42 114 50 115
REMARK SMILES IDX 43 116 44 117 48 118 51 119 45 120 46 121 49 122 47 123
REMARK SMILES IDX 73 124 74 125 82 126 75 127 76 128 80 129 83 130 77 131
REMARK SMILES IDX 78 132 81 133 79 134 58 135 59 136 67 137 60 138 61 139
REMARK SMILES IDX 65 140 68 141 62 142 63 143 66 144 64 145
REMARK H PARENT 25 2 25 3 24 5 24 6 23 8 23 9 22 13 17 18 18 19 18 20 19 22
REMARK H PARENT 95 23 95 24 15 30 3 36 98 38 4 39 97 40 1 42 1 43 1 44 10 49
REMARK H PARENT 14 51 11 53 13 54 12 55 26 57 26 58 27 60 27 61 28 63 28 64
REMARK H PARENT 29 67 33 73 94 75 34 77 93 78 92 88 86 90 88 92 91 94 85 95
REMARK H PARENT 53 104 56 106 89 109 54 110 90 112
REMARK Flexibility Score: inf
ROOT
ATOM      1  C   UNL A   1      41.958  19.654  25.772  1.00  0.00    -0.052 C 
ATOM      2  H   UNL A   1      42.153  20.018  24.786  1.00  0.00     0.027 H 
ATOM      3  H   UNL A   1      41.136  19.003  25.986  1.00  0.00     0.027 H 
ENDROOT
BRANCH   1   4
ATOM      4  C   UNL A   1      41.539  20.903  26.598  1.00  0.00    -0.036 C 
ATOM      5  H   UNL A   1      41.673  20.630  27.624  1.00  0.00     0.028 H 
ATOM      6  H   UNL A   1      42.149  21.659  26.150  1.00  0.00     0.028 H 
BRANCH   4   7
ATOM      7  C   UNL A   1      40.158  21.554  26.517  1.00  0.00     0.018 C 
ATOM      8  H   UNL A   1      39.879  21.842  27.509  1.00  0.00     0.049 H 
ATOM      9  H   UNL A   1      40.273  22.362  25.825  1.00  0.00     0.049 H 
BRANCH   7  10
ATOM     10  N   UNL A   1      39.074  20.748  25.974  1.00  0.00    -0.351 N 
ATOM     11  C   UNL A   1      38.054  21.042  25.111  1.00  0.00     0.279 C 
ATOM     12  O   UNL A   1      37.478  20.052  24.629  1.00  0.00    -0.268 OA
ATOM     13  H   UNL A   1      39.074  19.815  26.288  1.00  0.00     0.163 HD
BRANCH  11  14
ATOM     14  C   UNL A   1      37.506  22.443  24.707  1.00  0.00     0.176 C 
ATOM     15  C   UNL A   1      35.236  23.061  24.121  1.00  0.00     0.163 C 
ATOM     16  N   UNL A   1      36.495  22.497  23.624  1.00  0.00    -0.320 N 
ATOM     17  S   UNL A   1      35.696  24.270  25.376  1.00  0.00    -0.087 SA
ATOM     18  H   UNL A   1      34.651  23.558  23.376  1.00  0.00     0.115 H 
ATOM     19  H   UNL A   1      36.847  23.080  22.865  1.00  0.00     0.348 HD
ATOM     20  H   UNL A   1      36.321  21.549  23.288  1.00  0.00     0.348 HD
ATOM     21  C   UNL A   1      37.091  23.264  25.937  1.00  0.00     0.061 C 
ATOM     22  H   UNL A   1      38.352  22.905  24.245  1.00  0.00     0.108 H 
ATOM     23  H   UNL A   1      37.897  23.887  26.263  1.00  0.00     0.045 H 
ATOM     24  H   UNL A   1      36.831  22.641  26.767  1.00  0.00     0.045 H 
BRANCH  15  25
ATOM     25  C   UNL A   1      34.383  21.942  24.626  1.00  0.00     0.067 A 
ATOM     26  C   UNL A   1      32.969  21.950  24.921  1.00  0.00     0.103 A 
ATOM     27  N   UNL A   1      32.573  20.729  25.357  1.00  0.00    -0.167 NA
ATOM     28  N   UNL A   1      33.648  19.922  25.153  1.00  0.00    -0.240 N 
ATOM     29  C   UNL A   1      34.766  20.635  24.852  1.00  0.00     0.041 A 
ATOM     30  H   UNL A   1      35.728  20.266  24.802  1.00  0.00     0.085 H 
BRANCH  26  31
ATOM     31  C   UNL A   1      32.009  23.069  24.756  1.00  0.00     0.003 A 
ATOM     32  C   UNL A   1      30.240  25.279  24.418  1.00  0.00    -0.051 A 
ATOM     33  C   UNL A   1      30.581  24.476  23.334  1.00  0.00    -0.059 A 
ATOM     34  C   UNL A   1      30.746  24.945  25.679  1.00  0.00    -0.059 A 
ATOM     35  C   UNL A   1      31.451  23.394  23.506  1.00  0.00    -0.052 A 
ATOM     36  H   UNL A   1      30.191  24.679  22.400  1.00  0.00     0.063 H 
ATOM     37  C   UNL A   1      31.614  23.848  25.848  1.00  0.00    -0.052 A 
ATOM     38  H   UNL A   1      30.478  25.511  26.499  1.00  0.00     0.063 H 
ATOM     39  H   UNL A   1      31.692  22.813  22.687  1.00  0.00     0.063 H 
ATOM     40  H   UNL A   1      31.963  23.617  26.791  1.00  0.00     0.063 H 
BRANCH  32  41
ATOM     41  C   UNL A   1      29.347  26.466  24.202  1.00  0.00    -0.040 C 
ATOM     42  H   UNL A   1      29.379  27.098  25.065  1.00  0.00     0.028 H 
ATOM     43  H   UNL A   1      28.343  26.133  24.042  1.00  0.00     0.028 H 
ATOM     44  H   UNL A   1      29.682  27.013  23.346  1.00  0.00     0.028 H 
ENDBRANCH  32  41
ENDBRANCH  26  31
BRANCH  28  45
ATOM     45  C   UNL A   1      33.552  18.518  25.006  1.00  0.00     0.065 A 
ATOM     46  C   UNL A   1      34.506  17.844  24.217  1.00  0.00    -0.036 A 
ATOM     47  C   UNL A   1      32.536  17.808  25.638  1.00  0.00    -0.036 A 
ATOM     48  C   UNL A   1      34.384  16.474  23.990  1.00  0.00    -0.060 A 
ATOM     49  H   UNL A   1      35.297  18.365  23.809  1.00  0.00     0.065 H 
ATOM     50  C   UNL A   1      32.477  16.419  25.476  1.00  0.00    -0.060 A 
ATOM     51  H   UNL A   1      31.837  18.298  26.218  1.00  0.00     0.065 H 
ATOM     52  C   UNL A   1      33.376  15.759  24.630  1.00  0.00    -0.062 A 
ATOM     53  H   UNL A   1      35.036  15.994  23.350  1.00  0.00     0.062 H 
ATOM     54  H   UNL A   1      31.764  15.876  25.986  1.00  0.00     0.062 H 
ATOM     55  H   UNL A   1      33.291  14.742  24.481  1.00  0.00     0.062 H 
ENDBRANCH  28  45
ENDBRANCH  15  25
ENDBRANCH  11  14
ENDBRANCH   7  10
ENDBRANCH   4   7
ENDBRANCH   1   4
BRANCH   1  56
ATOM     56  C   UNL A   1      43.136  18.723  26.105  1.00  0.00    -0.052 C 
ATOM     57  H   UNL A   1      42.779  17.717  26.019  1.00  0.00     0.027 H 
ATOM     58  H   UNL A   1      43.444  19.028  27.083  1.00  0.00     0.027 H 
BRANCH  56  59
ATOM     59  C   UNL A   1      44.407  18.827  25.259  1.00  0.00    -0.036 C 
ATOM     60  H   UNL A   1      44.525  17.892  24.750  1.00  0.00     0.028 H 
ATOM     61  H   UNL A   1      45.171  19.080  25.963  1.00  0.00     0.028 H 
BRANCH  59  62
ATOM     62  C   UNL A   1      44.490  19.928  24.202  1.00  0.00     0.018 C 
ATOM     63  H   UNL A   1      43.647  20.574  24.332  1.00  0.00     0.049 H 
ATOM     64  H   UNL A   1      44.511  19.426  23.257  1.00  0.00     0.049 H 
BRANCH  62  65
ATOM     65  N   UNL A   1      45.707  20.758  24.243  1.00  0.00    -0.352 N 
ATOM     66  C   UNL A   1      45.832  22.082  24.666  1.00  0.00     0.251 C 
ATOM     67  H   UNL A   1      46.535  20.325  23.933  1.00  0.00     0.163 HD
ATOM     68  O   UNL A   1      46.889  22.680  24.646  1.00  0.00    -0.269 OA
BRANCH  66  69
ATOM     69  C   UNL A   1      44.629  22.711  25.258  1.00  0.00     0.039 A 
ATOM     70  C   UNL A   1      44.154  23.864  24.626  1.00  0.00    -0.049 A 
ATOM     71  C   UNL A   1      44.340  22.436  26.591  1.00  0.00    -0.049 A 
ATOM     72  C   UNL A   1      43.669  24.898  25.415  1.00  0.00    -0.053 A 
ATOM     73  H   UNL A   1      44.162  23.943  23.597  1.00  0.00     0.063 H 
ATOM     74  C   UNL A   1      43.945  23.495  27.384  1.00  0.00    -0.053 A 
ATOM     75  H   UNL A   1      44.418  21.481  26.971  1.00  0.00     0.063 H 
ATOM     76  C   UNL A   1      43.713  24.751  26.801  1.00  0.00    -0.014 A 
ATOM     77  H   UNL A   1      43.286  25.755  24.987  1.00  0.00     0.063 H 
ATOM     78  H   UNL A   1      43.822  23.364  28.400  1.00  0.00     0.063 H 
BRANCH  76  79
ATOM     79  C   UNL A   1      43.655  25.882  27.719  1.00  0.00     0.031 A 
ATOM     80  C   UNL A   1      42.400  26.640  27.860  1.00  0.00     0.074 A 
ATOM     81  C   UNL A   1      44.730  26.221  28.468  1.00  0.00     0.049 A 
ATOM     82  N   UNL A   1      42.323  27.820  28.375  1.00  0.00    -0.248 NA
ATOM     83  C   UNL A   1      41.133  26.164  27.320  1.00  0.00    -0.034 C 
ATOM     84  C   UNL A   1      44.754  27.119  29.620  1.00  0.00    -0.036 A 
ATOM     85  N   UNL A   1      46.085  25.974  28.193  1.00  0.00    -0.354 N 
ATOM     86  C   UNL A   1      40.994  28.147  28.483  1.00  0.00     0.074 A 
ATOM     87  C   UNL A   1      40.316  27.154  27.688  1.00  0.00    -0.034 C 
ATOM     88  H   UNL A   1      40.924  25.298  26.798  1.00  0.00     0.065 H 
ATOM     89  C   UNL A   1      45.999  27.590  29.780  1.00  0.00    -0.036 A 
ATOM     90  H   UNL A   1      43.944  27.352  30.215  1.00  0.00     0.065 H 
ATOM     91  C   UNL A   1      46.788  27.114  28.660  1.00  0.00     0.049 A 
ATOM     92  H   UNL A   1      46.468  25.175  27.765  1.00  0.00     0.167 HD
ATOM     93  C   UNL A   1      40.641  29.151  29.334  1.00  0.00     0.037 A 
ATOM     94  H   UNL A   1      39.317  27.204  27.432  1.00  0.00     0.065 H 
ATOM     95  H   UNL A   1      46.334  28.182  30.556  1.00  0.00     0.065 H 
ATOM     96  C   UNL A   1      47.507  27.901  27.810  1.00  0.00     0.037 A 
ATOM     97  C   UNL A   1      41.817  29.934  29.733  1.00  0.00     0.049 A 
ATOM     98  C   UNL A   1      47.028  29.334  27.712  1.00  0.00     0.074 A 
ATOM     99  C   UNL A   1      42.589  30.041  30.878  1.00  0.00    -0.036 A 
ATOM    100  N   UNL A   1      42.513  30.608  28.744  1.00  0.00    -0.354 N 
ATOM    101  N   UNL A   1      45.986  29.804  28.339  1.00  0.00    -0.248 NA
ATOM    102  C   UNL A   1      47.625  30.323  26.810  1.00  0.00    -0.034 C 
ATOM    103  C   UNL A   1      43.775  30.766  30.546  1.00  0.00    -0.036 A 
ATOM    104  H   UNL A   1      42.351  29.663  31.808  1.00  0.00     0.065 H 
ATOM    105  C   UNL A   1      43.713  31.108  29.207  1.00  0.00     0.049 A 
ATOM    106  H   UNL A   1      42.191  30.718  27.820  1.00  0.00     0.167 HD
ATOM    107  C   UNL A   1      45.718  31.067  27.887  1.00  0.00     0.074 A 
ATOM    108  C   UNL A   1      46.780  31.359  26.944  1.00  0.00    -0.034 C 
ATOM    109  H   UNL A   1      48.472  30.244  26.225  1.00  0.00     0.065 H 
ATOM    110  H   UNL A   1      44.544  30.995  31.194  1.00  0.00     0.065 H 
ATOM    111  C   UNL A   1      44.612  31.764  28.271  1.00  0.00     0.037 A 
ATOM    112  H   UNL A   1      46.876  32.254  26.437  1.00  0.00     0.065 H 
BRANCH  93 113
ATOM    113  C   UNL A   1      39.266  29.344  29.956  1.00  0.00     0.064 A 
ATOM    114  C   UNL A   1      38.260  30.026  29.235  1.00  0.00     0.173 A 
ATOM    115  C   UNL A   1      38.893  29.001  31.273  1.00  0.00     0.173 A 
ATOM    116  F   UNL A   1      38.437  30.391  27.957  1.00  0.00    -0.203 F 
ATOM    117  C   UNL A   1      37.029  30.383  29.802  1.00  0.00     0.198 A 
ATOM    118  C   UNL A   1      37.658  29.339  31.833  1.00  0.00     0.198 A 
ATOM    119  F   UNL A   1      39.698  28.346  32.108  1.00  0.00    -0.203 F 
ATOM    120  F   UNL A   1      36.141  31.078  29.078  1.00  0.00    -0.200 F 
ATOM    121  C   UNL A   1      36.731  30.045  31.105  1.00  0.00     0.200 A 
ATOM    122  F   UNL A   1      37.391  28.988  33.099  1.00  0.00    -0.200 F 
ATOM    123  F   UNL A   1      35.565  30.401  31.657  1.00  0.00    -0.200 F 
ENDBRANCH  93 113
BRANCH  96 124
ATOM    124  C   UNL A   1      48.110  27.123  26.698  1.00  0.00     0.064 A 
ATOM    125  C   UNL A   1      47.504  27.205  25.429  1.00  0.00     0.173 A 
ATOM    126  C   UNL A   1      49.432  26.672  26.761  1.00  0.00     0.173 A 
ATOM    127  F   UNL A   1      46.236  27.633  25.318  1.00  0.00    -0.203 F 
ATOM    128  C   UNL A   1      48.235  26.978  24.267  1.00  0.00     0.198 A 
ATOM    129  C   UNL A   1      50.156  26.430  25.594  1.00  0.00     0.198 A 
ATOM    130  F   UNL A   1      50.065  26.589  27.941  1.00  0.00    -0.203 F 
ATOM    131  F   UNL A   1      47.668  27.185  23.070  1.00  0.00    -0.200 F 
ATOM    132  C   UNL A   1      49.570  26.620  24.350  1.00  0.00     0.200 A 
ATOM    133  F   UNL A   1      51.454  26.106  25.674  1.00  0.00    -0.200 F 
ATOM    134  F   UNL A   1      50.303  26.499  23.235  1.00  0.00    -0.200 F 
ENDBRANCH  96 124
BRANCH 111 135
ATOM    135  C   UNL A   1      44.294  33.137  27.768  1.00  0.00     0.064 A 
ATOM    136  C   UNL A   1      44.282  34.257  28.613  1.00  0.00     0.173 A 
ATOM    137  C   UNL A   1      43.863  33.346  26.442  1.00  0.00     0.173 A 
ATOM    138  F   UNL A   1      44.655  34.146  29.897  1.00  0.00    -0.203 F 
ATOM    139  C   UNL A   1      43.872  35.511  28.156  1.00  0.00     0.198 A 
ATOM    140  C   UNL A   1      43.407  34.587  26.002  1.00  0.00     0.198 A 
ATOM    141  F   UNL A   1      43.897  32.355  25.537  1.00  0.00    -0.203 F 
ATOM    142  F   UNL A   1      43.909  36.565  28.983  1.00  0.00    -0.200 F 
ATOM    143  C   UNL A   1      43.417  35.670  26.858  1.00  0.00     0.200 A 
ATOM    144  F   UNL A   1      42.961  34.724  24.745  1.00  0.00    -0.200 F 
ATOM    145  F   UNL A   1      42.993  36.869  26.430  1.00  0.00    -0.200 F 
ENDBRANCH 111 135
ENDBRANCH  76  79
ENDBRANCH  66  69
ENDBRANCH  62  65
ENDBRANCH  59  62
ENDBRANCH  56  59
ENDBRANCH   1  56
TORSDOF 17
ENDMDL
MODEL 7
REMARK VINA RESULT:     -12.6      3.160      9.476
REMARK SMILES Cc1ccc(-c2nn(-c3ccccc3)cc2[C@@H]2[NH2+][C@H](C(=O)NCCCCCCNC(=O)c3ccc(-c4c5nc(c(-c6c(F)c(F)c(F)c(F)c6F)c6ccc([nH]6)c(-c6c(F)c(F)c(F)c(F)c6F)c6nc(c(-c7c(F)c(F)c(F)c(F)c7F)c7ccc4[nH]7)C=C6)C=C5)cc3)CS2)cc1
REMARK SMILES IDX 25 1 24 4 23 7 22 10 20 11 21 12 19 14 17 15 18 16 96 17
REMARK SMILES IDX 95 21 16 25 6 26 7 27 8 28 15 29 5 31 2 32 3 33 98 34 4 35
REMARK SMILES IDX 97 37 1 41 9 45 10 46 14 47 11 48 13 50 12 52 26 56 27 59
REMARK SMILES IDX 28 62 29 65 30 66 31 68 32 69 33 70 94 71 34 72 93 74 35 76
REMARK SMILES IDX 36 79 37 80 87 81 38 82 92 83 86 84 88 85 39 86 91 87 85 89
REMARK SMILES IDX 84 91 40 93 72 96 52 97 71 98 53 99 56 100 70 101 89 102
REMARK SMILES IDX 54 103 55 105 69 107 90 108 57 111 41 113 42 114 50 115
REMARK SMILES IDX 43 116 44 117 48 118 51 119 45 120 46 121 49 122 47 123
REMARK SMILES IDX 73 124 74 125 82 126 75 127 76 128 80 129 83 130 77 131
REMARK SMILES IDX 78 132 81 133 79 134 58 135 59 136 67 137 60 138 61 139
REMARK SMILES IDX 65 140 68 141 62 142 63 143 66 144 64 145
REMARK H PARENT 25 2 25 3 24 5 24 6 23 8 23 9 22 13 17 18 18 19 18 20 19 22
REMARK H PARENT 95 23 95 24 15 30 3 36 98 38 4 39 97 40 1 42 1 43 1 44 10 49
REMARK H PARENT 14 51 11 53 13 54 12 55 26 57 26 58 27 60 27 61 28 63 28 64
REMARK H PARENT 29 67 33 73 94 75 34 77 93 78 92 88 86 90 88 92 91 94 85 95
REMARK H PARENT 53 104 56 106 89 109 54 110 90 112
REMARK Flexibility Score: inf
ROOT
ATOM      1  C   UNL A   1      36.251  22.787  23.884  1.00  0.00    -0.052 C 
ATOM      2  H   UNL A   1      36.045  23.456  24.693  1.00  0.00     0.027 H 
ATOM      3  H   UNL A   1      37.086  22.927  23.228  1.00  0.00     0.027 H 
ENDROOT
BRANCH   1   4
ATOM      4  C   UNL A   1      35.080  22.978  22.880  1.00  0.00    -0.036 C 
ATOM      5  H   UNL A   1      35.534  23.268  21.956  1.00  0.00     0.028 H 
ATOM      6  H   UNL A   1      34.577  22.038  22.970  1.00  0.00     0.028 H 
BRANCH   4   7
ATOM      7  C   UNL A   1      33.922  23.953  23.098  1.00  0.00     0.018 C 
ATOM      8  H   UNL A   1      33.034  23.489  22.720  1.00  0.00     0.049 H 
ATOM      9  H   UNL A   1      33.919  24.148  24.150  1.00  0.00     0.049 H 
BRANCH   7  10
ATOM     10  N   UNL A   1      34.029  25.263  22.473  1.00  0.00    -0.351 N 
ATOM     11  C   UNL A   1      33.111  26.255  22.254  1.00  0.00     0.279 C 
ATOM     12  O   UNL A   1      33.599  27.360  21.960  1.00  0.00    -0.268 OA
ATOM     13  H   UNL A   1      34.933  25.478  22.147  1.00  0.00     0.163 HD
BRANCH  11  14
ATOM     14  C   UNL A   1      31.558  26.152  22.277  1.00  0.00     0.176 C 
ATOM     15  C   UNL A   1      30.077  26.158  24.198  1.00  0.00     0.163 C 
ATOM     16  N   UNL A   1      30.942  25.332  23.349  1.00  0.00    -0.320 N 
ATOM     17  S   UNL A   1      29.375  27.416  23.115  1.00  0.00    -0.087 SA
ATOM     18  H   UNL A   1      29.271  25.624  24.657  1.00  0.00     0.115 H 
ATOM     19  H   UNL A   1      30.386  24.589  22.925  1.00  0.00     0.348 HD
ATOM     20  H   UNL A   1      31.683  24.932  23.924  1.00  0.00     0.348 HD
ATOM     21  C   UNL A   1      30.897  27.531  22.143  1.00  0.00     0.061 C 
ATOM     22  H   UNL A   1      31.344  25.573  21.404  1.00  0.00     0.108 H 
ATOM     23  H   UNL A   1      30.674  27.744  21.119  1.00  0.00     0.045 H 
ATOM     24  H   UNL A   1      31.535  28.318  22.487  1.00  0.00     0.045 H 
BRANCH  15  25
ATOM     25  C   UNL A   1      30.898  26.700  25.322  1.00  0.00     0.067 A 
ATOM     26  C   UNL A   1      31.785  25.990  26.214  1.00  0.00     0.103 A 
ATOM     27  N   UNL A   1      32.347  26.848  27.101  1.00  0.00    -0.167 NA
ATOM     28  N   UNL A   1      31.990  28.083  26.662  1.00  0.00    -0.240 N 
ATOM     29  C   UNL A   1      31.030  28.021  25.701  1.00  0.00     0.041 A 
ATOM     30  H   UNL A   1      30.495  28.818  25.322  1.00  0.00     0.085 H 
BRANCH  26  31
ATOM     31  C   UNL A   1      32.126  24.545  26.202  1.00  0.00     0.003 A 
ATOM     32  C   UNL A   1      32.808  21.780  26.085  1.00  0.00    -0.051 A 
ATOM     33  C   UNL A   1      33.760  22.726  26.451  1.00  0.00    -0.059 A 
ATOM     34  C   UNL A   1      31.503  22.214  25.826  1.00  0.00    -0.059 A 
ATOM     35  C   UNL A   1      33.419  24.082  26.505  1.00  0.00    -0.052 A 
ATOM     36  H   UNL A   1      34.719  22.427  26.684  1.00  0.00     0.063 H 
ATOM     37  C   UNL A   1      31.163  23.579  25.892  1.00  0.00    -0.052 A 
ATOM     38  H   UNL A   1      30.777  21.522  25.583  1.00  0.00     0.063 H 
ATOM     39  H   UNL A   1      34.142  24.767  26.776  1.00  0.00     0.063 H 
ATOM     40  H   UNL A   1      30.191  23.871  25.707  1.00  0.00     0.063 H 
BRANCH  32  41
ATOM     41  C   UNL A   1      33.207  20.337  25.981  1.00  0.00    -0.040 C 
ATOM     42  H   UNL A   1      33.422  20.098  24.961  1.00  0.00     0.028 H 
ATOM     43  H   UNL A   1      32.405  19.719  26.330  1.00  0.00     0.028 H 
ATOM     44  H   UNL A   1      34.076  20.163  26.580  1.00  0.00     0.028 H 
ENDBRANCH  32  41
ENDBRANCH  26  31
BRANCH  28  45
ATOM     45  C   UNL A   1      32.714  29.260  26.969  1.00  0.00     0.065 A 
ATOM     46  C   UNL A   1      34.082  29.159  27.293  1.00  0.00    -0.036 A 
ATOM     47  C   UNL A   1      32.088  30.502  26.944  1.00  0.00    -0.036 A 
ATOM     48  C   UNL A   1      34.796  30.293  27.679  1.00  0.00    -0.060 A 
ATOM     49  H   UNL A   1      34.557  28.244  27.242  1.00  0.00     0.065 H 
ATOM     50  C   UNL A   1      32.838  31.645  27.246  1.00  0.00    -0.060 A 
ATOM     51  H   UNL A   1      31.088  30.580  26.706  1.00  0.00     0.065 H 
ATOM     52  C   UNL A   1      34.176  31.538  27.643  1.00  0.00    -0.062 A 
ATOM     53  H   UNL A   1      35.775  30.209  27.991  1.00  0.00     0.062 H 
ATOM     54  H   UNL A   1      32.400  32.576  27.174  1.00  0.00     0.062 H 
ATOM     55  H   UNL A   1      34.703  32.384  27.910  1.00  0.00     0.062 H 
ENDBRANCH  28  45
ENDBRANCH  15  25
ENDBRANCH  11  14
ENDBRANCH   7  10
ENDBRANCH   4   7
ENDBRANCH   1   4
BRANCH   1  56
ATOM     56  C   UNL A   1      36.646  21.456  24.546  1.00  0.00    -0.052 C 
ATOM     57  H   UNL A   1      36.416  20.676  23.851  1.00  0.00     0.027 H 
ATOM     58  H   UNL A   1      36.095  21.444  25.462  1.00  0.00     0.027 H 
BRANCH  56  59
ATOM     59  C   UNL A   1      38.102  21.263  24.979  1.00  0.00    -0.036 C 
ATOM     60  H   UNL A   1      38.718  21.548  24.150  1.00  0.00     0.028 H 
ATOM     61  H   UNL A   1      38.154  20.236  25.273  1.00  0.00     0.028 H 
BRANCH  59  62
ATOM     62  C   UNL A   1      38.606  22.031  26.200  1.00  0.00     0.018 C 
ATOM     63  H   UNL A   1      38.208  21.558  27.074  1.00  0.00     0.049 H 
ATOM     64  H   UNL A   1      38.281  23.042  26.067  1.00  0.00     0.049 H 
BRANCH  62  65
ATOM     65  N   UNL A   1      40.071  22.097  26.350  1.00  0.00    -0.352 N 
ATOM     66  C   UNL A   1      40.873  23.231  26.482  1.00  0.00     0.251 C 
ATOM     67  H   UNL A   1      40.543  21.232  26.356  1.00  0.00     0.163 HD
ATOM     68  O   UNL A   1      42.082  23.171  26.587  1.00  0.00    -0.269 OA
BRANCH  66  69
ATOM     69  C   UNL A   1      40.176  24.531  26.608  1.00  0.00     0.039 A 
ATOM     70  C   UNL A   1      40.788  25.628  25.993  1.00  0.00    -0.049 A 
ATOM     71  C   UNL A   1      39.276  24.689  27.657  1.00  0.00    -0.049 A 
ATOM     72  C   UNL A   1      40.753  26.854  26.644  1.00  0.00    -0.053 A 
ATOM     73  H   UNL A   1      41.254  25.528  25.078  1.00  0.00     0.063 H 
ATOM     74  C   UNL A   1      39.317  25.883  28.351  1.00  0.00    -0.053 A 
ATOM     75  H   UNL A   1      38.607  23.946  27.907  1.00  0.00     0.063 H 
ATOM     76  C   UNL A   1      40.139  26.924  27.894  1.00  0.00    -0.014 A 
ATOM     77  H   UNL A   1      41.170  27.693  26.213  1.00  0.00     0.063 H 
ATOM     78  H   UNL A   1      38.745  26.007  29.200  1.00  0.00     0.063 H 
BRANCH  76  79
ATOM     79  C   UNL A   1      40.407  27.994  28.848  1.00  0.00     0.031 A 
ATOM     80  C   UNL A   1      39.490  29.144  28.926  1.00  0.00     0.074 A 
ATOM     81  C   UNL A   1      41.467  27.925  29.686  1.00  0.00     0.049 A 
ATOM     82  N   UNL A   1      39.790  30.270  29.479  1.00  0.00    -0.248 NA
ATOM     83  C   UNL A   1      38.186  29.150  28.277  1.00  0.00    -0.034 C 
ATOM     84  C   UNL A   1      41.710  28.744  30.870  1.00  0.00    -0.036 A 
ATOM     85  N   UNL A   1      42.668  27.219  29.502  1.00  0.00    -0.354 N 
ATOM     86  C   UNL A   1      38.656  31.043  29.501  1.00  0.00     0.074 A 
ATOM     87  C   UNL A   1      37.740  30.361  28.621  1.00  0.00    -0.034 C 
ATOM     88  H   UNL A   1      37.730  28.419  27.708  1.00  0.00     0.065 H 
ATOM     89  C   UNL A   1      43.024  28.745  31.138  1.00  0.00    -0.036 A 
ATOM     90  H   UNL A   1      40.987  29.243  31.413  1.00  0.00     0.065 H 
ATOM     91  C   UNL A   1      43.685  28.033  30.062  1.00  0.00     0.049 A 
ATOM     92  H   UNL A   1      42.780  26.341  29.072  1.00  0.00     0.167 HD
ATOM     93  C   UNL A   1      38.608  32.099  30.362  1.00  0.00     0.037 A 
ATOM     94  H   UNL A   1      36.847  30.762  28.295  1.00  0.00     0.065 H 
ATOM     95  H   UNL A   1      43.480  29.173  31.958  1.00  0.00     0.065 H 
ATOM     96  C   UNL A   1      44.701  28.525  29.297  1.00  0.00     0.037 A 
ATOM     97  C   UNL A   1      39.947  32.413  30.876  1.00  0.00     0.049 A 
ATOM     98  C   UNL A   1      44.765  30.036  29.219  1.00  0.00     0.074 A 
ATOM     99  C   UNL A   1      40.612  32.229  32.077  1.00  0.00    -0.036 A 
ATOM    100  N   UNL A   1      40.914  32.808  29.967  1.00  0.00    -0.354 N 
ATOM    101  N   UNL A   1      43.906  30.836  29.786  1.00  0.00    -0.248 NA
ATOM    102  C   UNL A   1      45.742  30.759  28.402  1.00  0.00    -0.034 C 
ATOM    103  C   UNL A   1      41.999  32.493  31.861  1.00  0.00    -0.036 A 
ATOM    104  H   UNL A   1      40.181  31.950  32.972  1.00  0.00     0.065 H 
ATOM    105  C   UNL A   1      42.171  32.849  30.535  1.00  0.00     0.049 A 
ATOM    106  H   UNL A   1      40.728  33.034  29.027  1.00  0.00     0.167 HD
ATOM    107  C   UNL A   1      44.135  32.117  29.364  1.00  0.00     0.074 A 
ATOM    108  C   UNL A   1      45.306  32.026  28.513  1.00  0.00    -0.034 C 
ATOM    109  H   UNL A   1      46.552  30.393  27.878  1.00  0.00     0.065 H 
ATOM    110  H   UNL A   1      42.744  32.430  32.572  1.00  0.00     0.065 H 
ATOM    111  C   UNL A   1      43.316  33.155  29.693  1.00  0.00     0.037 A 
ATOM    112  H   UNL A   1      45.751  32.834  28.050  1.00  0.00     0.065 H 
BRANCH  93 113
ATOM    113  C   UNL A   1      37.343  32.758  30.889  1.00  0.00     0.064 A 
ATOM    114  C   UNL A   1      36.947  32.547  32.229  1.00  0.00     0.173 A 
ATOM    115  C   UNL A   1      36.416  33.504  30.129  1.00  0.00     0.173 A 
ATOM    116  F   UNL A   1      37.729  31.889  33.096  1.00  0.00    -0.203 F 
ATOM    117  C   UNL A   1      35.716  32.985  32.735  1.00  0.00     0.198 A 
ATOM    118  C   UNL A   1      35.197  33.959  30.640  1.00  0.00     0.198 A 
ATOM    119  F   UNL A   1      36.612  33.818  28.851  1.00  0.00    -0.203 F 
ATOM    120  F   UNL A   1      35.380  32.702  34.001  1.00  0.00    -0.200 F 
ATOM    121  C   UNL A   1      34.837  33.685  31.938  1.00  0.00     0.200 A 
ATOM    122  F   UNL A   1      34.366  34.648  29.844  1.00  0.00    -0.200 F 
ATOM    123  F   UNL A   1      33.651  34.089  32.411  1.00  0.00    -0.200 F 
ENDBRANCH  93 113
BRANCH  96 124
ATOM    124  C   UNL A   1      45.081  27.595  28.203  1.00  0.00     0.064 A 
ATOM    125  C   UNL A   1      45.765  26.413  28.548  1.00  0.00     0.173 A 
ATOM    126  C   UNL A   1      44.446  27.641  26.958  1.00  0.00     0.173 A 
ATOM    127  F   UNL A   1      46.389  26.322  29.733  1.00  0.00    -0.203 F 
ATOM    128  C   UNL A   1      45.698  25.281  27.741  1.00  0.00     0.198 A 
ATOM    129  C   UNL A   1      44.395  26.509  26.145  1.00  0.00     0.198 A 
ATOM    130  F   UNL A   1      43.766  28.735  26.583  1.00  0.00    -0.203 F 
ATOM    131  F   UNL A   1      46.253  24.133  28.154  1.00  0.00    -0.200 F 
ATOM    132  C   UNL A   1      44.987  25.322  26.554  1.00  0.00     0.200 A 
ATOM    133  F   UNL A   1      43.688  26.542  25.006  1.00  0.00    -0.200 F 
ATOM    134  F   UNL A   1      44.835  24.209  25.824  1.00  0.00    -0.200 F 
ENDBRANCH  96 124
BRANCH 111 135
ATOM    135  C   UNL A   1      43.542  34.558  29.221  1.00  0.00     0.064 A 
ATOM    136  C   UNL A   1      43.435  34.915  27.868  1.00  0.00     0.173 A 
ATOM    137  C   UNL A   1      44.001  35.558  30.101  1.00  0.00     0.173 A 
ATOM    138  F   UNL A   1      43.028  34.019  26.956  1.00  0.00    -0.203 F 
ATOM    139  C   UNL A   1      43.761  36.198  27.425  1.00  0.00     0.198 A 
ATOM    140  C   UNL A   1      44.372  36.823  29.650  1.00  0.00     0.198 A 
ATOM    141  F   UNL A   1      44.076  35.338  31.422  1.00  0.00    -0.203 F 
ATOM    142  F   UNL A   1      43.612  36.513  26.131  1.00  0.00    -0.200 F 
ATOM    143  C   UNL A   1      44.247  37.144  28.312  1.00  0.00     0.200 A 
ATOM    144  F   UNL A   1      44.850  37.726  30.518  1.00  0.00    -0.200 F 
ATOM    145  F   UNL A   1      44.590  38.366  27.880  1.00  0.00    -0.200 F 
ENDBRANCH 111 135
ENDBRANCH  76  79
ENDBRANCH  66  69
ENDBRANCH  62  65
ENDBRANCH  59  62
ENDBRANCH  56  59
ENDBRANCH   1  56
TORSDOF 17
ENDMDL
MODEL 8
REMARK VINA RESULT:     -12.5      3.295      6.311
REMARK SMILES Cc1ccc(-c2nn(-c3ccccc3)cc2[C@@H]2[NH2+][C@H](C(=O)NCCCCCCNC(=O)c3ccc(-c4c5nc(c(-c6c(F)c(F)c(F)c(F)c6F)c6ccc([nH]6)c(-c6c(F)c(F)c(F)c(F)c6F)c6nc(c(-c7c(F)c(F)c(F)c(F)c7F)c7ccc4[nH]7)C=C6)C=C5)cc3)CS2)cc1
REMARK SMILES IDX 25 1 24 4 23 7 22 10 20 11 21 12 19 14 17 15 18 16 96 17
REMARK SMILES IDX 95 21 16 25 6 26 7 27 8 28 15 29 5 31 2 32 3 33 98 34 4 35
REMARK SMILES IDX 97 37 1 41 9 45 10 46 14 47 11 48 13 50 12 52 26 56 27 59
REMARK SMILES IDX 28 62 29 65 30 66 31 68 32 69 33 70 94 71 34 72 93 74 35 76
REMARK SMILES IDX 36 79 37 80 87 81 38 82 92 83 86 84 88 85 39 86 91 87 85 89
REMARK SMILES IDX 84 91 40 93 72 96 52 97 71 98 53 99 56 100 70 101 89 102
REMARK SMILES IDX 54 103 55 105 69 107 90 108 57 111 41 113 42 114 50 115
REMARK SMILES IDX 43 116 44 117 48 118 51 119 45 120 46 121 49 122 47 123
REMARK SMILES IDX 73 124 74 125 82 126 75 127 76 128 80 129 83 130 77 131
REMARK SMILES IDX 78 132 81 133 79 134 58 135 59 136 67 137 60 138 61 139
REMARK SMILES IDX 65 140 68 141 62 142 63 143 66 144 64 145
REMARK H PARENT 25 2 25 3 24 5 24 6 23 8 23 9 22 13 17 18 18 19 18 20 19 22
REMARK H PARENT 95 23 95 24 15 30 3 36 98 38 4 39 97 40 1 42 1 43 1 44 10 49
REMARK H PARENT 14 51 11 53 13 54 12 55 26 57 26 58 27 60 27 61 28 63 28 64
REMARK H PARENT 29 67 33 73 94 75 34 77 93 78 92 88 86 90 88 92 91 94 85 95
REMARK H PARENT 53 104 56 106 89 109 54 110 90 112
REMARK Flexibility Score: inf
ROOT
ATOM      1  C   UNL A   1      33.361  34.806  28.945  1.00  0.00    -0.052 C 
ATOM      2  H   UNL A   1      32.545  34.441  29.532  1.00  0.00     0.027 H 
ATOM      3  H   UNL A   1      33.283  34.942  27.886  1.00  0.00     0.027 H 
ENDROOT
BRANCH   1   4
ATOM      4  C   UNL A   1      34.442  33.690  28.999  1.00  0.00    -0.036 C 
ATOM      5  H   UNL A   1      35.276  34.068  28.445  1.00  0.00     0.028 H 
ATOM      6  H   UNL A   1      34.515  33.527  30.053  1.00  0.00     0.028 H 
BRANCH   4   7
ATOM      7  C   UNL A   1      34.219  32.263  28.495  1.00  0.00     0.018 C 
ATOM      8  H   UNL A   1      35.162  31.894  28.147  1.00  0.00     0.049 H 
ATOM      9  H   UNL A   1      33.805  31.737  29.329  1.00  0.00     0.049 H 
BRANCH   7  10
ATOM     10  N   UNL A   1      33.255  32.081  27.420  1.00  0.00    -0.351 N 
ATOM     11  C   UNL A   1      32.540  30.991  27.002  1.00  0.00     0.279 C 
ATOM     12  O   UNL A   1      31.590  31.251  26.244  1.00  0.00    -0.268 OA
ATOM     13  H   UNL A   1      33.084  32.895  26.894  1.00  0.00     0.163 HD
BRANCH  11  14
ATOM     14  C   UNL A   1      32.802  29.489  27.317  1.00  0.00     0.176 C 
ATOM     15  C   UNL A   1      31.924  27.536  26.178  1.00  0.00     0.163 C 
ATOM     16  N   UNL A   1      31.656  28.555  27.198  1.00  0.00    -0.320 N 
ATOM     17  S   UNL A   1      33.700  27.234  26.234  1.00  0.00    -0.087 SA
ATOM     18  H   UNL A   1      31.422  26.606  26.341  1.00  0.00     0.115 H 
ATOM     19  H   UNL A   1      31.502  28.097  28.097  1.00  0.00     0.348 HD
ATOM     20  H   UNL A   1      30.827  29.083  26.926  1.00  0.00     0.348 HD
ATOM     21  C   UNL A   1      34.056  28.970  26.600  1.00  0.00     0.061 C 
ATOM     22  H   UNL A   1      32.976  29.494  28.372  1.00  0.00     0.108 H 
ATOM     23  H   UNL A   1      34.913  29.053  27.234  1.00  0.00     0.045 H 
ATOM     24  H   UNL A   1      34.275  29.531  25.715  1.00  0.00     0.045 H 
BRANCH  15  25
ATOM     25  C   UNL A   1      31.426  28.042  24.863  1.00  0.00     0.067 A 
ATOM     26  C   UNL A   1      31.261  27.318  23.624  1.00  0.00     0.103 A 
ATOM     27  N   UNL A   1      30.778  28.139  22.659  1.00  0.00    -0.167 NA
ATOM     28  N   UNL A   1      30.456  29.288  23.311  1.00  0.00    -0.240 N 
ATOM     29  C   UNL A   1      30.950  29.306  24.579  1.00  0.00     0.041 A 
ATOM     30  H   UNL A   1      30.968  30.119  25.214  1.00  0.00     0.085 H 
BRANCH  26  31
ATOM     31  C   UNL A   1      31.513  25.878  23.368  1.00  0.00     0.003 A 
ATOM     32  C   UNL A   1      32.027  23.102  22.970  1.00  0.00    -0.051 A 
ATOM     33  C   UNL A   1      30.781  23.532  23.413  1.00  0.00    -0.059 A 
ATOM     34  C   UNL A   1      33.000  24.066  22.679  1.00  0.00    -0.059 A 
ATOM     35  C   UNL A   1      30.535  24.896  23.608  1.00  0.00    -0.052 A 
ATOM     36  H   UNL A   1      30.034  22.844  23.597  1.00  0.00     0.063 H 
ATOM     37  C   UNL A   1      32.743  25.438  22.868  1.00  0.00    -0.052 A 
ATOM     38  H   UNL A   1      33.919  23.767  22.321  1.00  0.00     0.063 H 
ATOM     39  H   UNL A   1      29.603  25.192  23.940  1.00  0.00     0.063 H 
ATOM     40  H   UNL A   1      33.474  26.128  22.636  1.00  0.00     0.063 H 
BRANCH  32  41
ATOM     41  C   UNL A   1      32.287  21.632  22.818  1.00  0.00    -0.040 C 
ATOM     42  H   UNL A   1      33.022  21.323  23.532  1.00  0.00     0.028 H 
ATOM     43  H   UNL A   1      32.646  21.434  21.829  1.00  0.00     0.028 H 
ATOM     44  H   UNL A   1      31.379  21.090  22.982  1.00  0.00     0.028 H 
ENDBRANCH  32  41
ENDBRANCH  26  31
BRANCH  28  45
ATOM     45  C   UNL A   1      29.505  30.218  22.830  1.00  0.00     0.065 A 
ATOM     46  C   UNL A   1      29.079  30.133  21.489  1.00  0.00    -0.036 A 
ATOM     47  C   UNL A   1      28.988  31.200  23.669  1.00  0.00    -0.036 A 
ATOM     48  C   UNL A   1      28.206  31.088  20.969  1.00  0.00    -0.060 A 
ATOM     49  H   UNL A   1      29.413  29.361  20.891  1.00  0.00     0.065 H 
ATOM     50  C   UNL A   1      28.043  32.098  23.161  1.00  0.00    -0.060 A 
ATOM     51  H   UNL A   1      29.296  31.264  24.652  1.00  0.00     0.065 H 
ATOM     52  C   UNL A   1      27.678  32.063  21.810  1.00  0.00    -0.062 A 
ATOM     53  H   UNL A   1      27.955  31.072  19.969  1.00  0.00     0.062 H 
ATOM     54  H   UNL A   1      27.610  32.792  23.789  1.00  0.00     0.062 H 
ATOM     55  H   UNL A   1      27.018  32.762  21.437  1.00  0.00     0.062 H 
ENDBRANCH  28  45
ENDBRANCH  15  25
ENDBRANCH  11  14
ENDBRANCH   7  10
ENDBRANCH   4   7
ENDBRANCH   1   4
BRANCH   1  56
ATOM     56  C   UNL A   1      33.565  36.264  29.391  1.00  0.00    -0.052 C 
ATOM     57  H   UNL A   1      33.050  36.885  28.688  1.00  0.00     0.027 H 
ATOM     58  H   UNL A   1      34.628  36.381  29.428  1.00  0.00     0.027 H 
BRANCH  56  59
ATOM     59  C   UNL A   1      33.092  36.669  30.789  1.00  0.00    -0.036 C 
ATOM     60  H   UNL A   1      32.066  36.375  30.872  1.00  0.00     0.028 H 
ATOM     61  H   UNL A   1      33.286  37.720  30.837  1.00  0.00     0.028 H 
BRANCH  59  62
ATOM     62  C   UNL A   1      33.825  36.095  32.001  1.00  0.00     0.018 C 
ATOM     63  H   UNL A   1      33.691  36.773  32.818  1.00  0.00     0.049 H 
ATOM     64  H   UNL A   1      34.844  35.976  31.699  1.00  0.00     0.049 H 
BRANCH  62  65
ATOM     65  N   UNL A   1      33.378  34.762  32.442  1.00  0.00    -0.352 N 
ATOM     66  C   UNL A   1      34.140  33.742  33.012  1.00  0.00     0.251 C 
ATOM     67  H   UNL A   1      32.420  34.566  32.318  1.00  0.00     0.163 HD
ATOM     68  O   UNL A   1      33.669  32.669  33.329  1.00  0.00    -0.269 OA
BRANCH  66  69
ATOM     69  C   UNL A   1      35.551  34.061  33.329  1.00  0.00     0.039 A 
ATOM     70  C   UNL A   1      36.279  34.721  32.334  1.00  0.00    -0.049 A 
ATOM     71  C   UNL A   1      36.180  33.318  34.324  1.00  0.00    -0.049 A 
ATOM     72  C   UNL A   1      37.608  34.367  32.143  1.00  0.00    -0.053 A 
ATOM     73  H   UNL A   1      35.840  35.455  31.758  1.00  0.00     0.063 H 
ATOM     74  C   UNL A   1      37.472  32.897  34.077  1.00  0.00    -0.053 A 
ATOM     75  H   UNL A   1      35.700  33.090  35.208  1.00  0.00     0.063 H 
ATOM     76  C   UNL A   1      38.141  33.346  32.928  1.00  0.00    -0.014 A 
ATOM     77  H   UNL A   1      38.187  34.847  31.437  1.00  0.00     0.063 H 
ATOM     78  H   UNL A   1      37.942  32.256  34.735  1.00  0.00     0.063 H 
BRANCH  76  79
ATOM     79  C   UNL A   1      39.334  32.597  32.549  1.00  0.00     0.031 A 
ATOM     80  C   UNL A   1      39.195  31.360  31.761  1.00  0.00     0.074 A 
ATOM     81  C   UNL A   1      40.567  33.044  32.881  1.00  0.00     0.049 A 
ATOM     82  N   UNL A   1      40.120  30.467  31.651  1.00  0.00    -0.248 NA
ATOM     83  C   UNL A   1      37.944  30.977  31.120  1.00  0.00    -0.034 C 
ATOM     84  C   UNL A   1      41.846  32.586  32.345  1.00  0.00    -0.036 A 
ATOM     85  N   UNL A   1      40.921  33.879  33.954  1.00  0.00    -0.354 N 
ATOM     86  C   UNL A   1      39.701  29.540  30.729  1.00  0.00     0.074 A 
ATOM     87  C   UNL A   1      38.300  29.826  30.544  1.00  0.00    -0.034 C 
ATOM     88  H   UNL A   1      37.034  31.462  31.112  1.00  0.00     0.065 H 
ATOM     89  C   UNL A   1      42.816  32.873  33.225  1.00  0.00    -0.036 A 
ATOM     90  H   UNL A   1      41.981  32.116  31.436  1.00  0.00     0.065 H 
ATOM     91  C   UNL A   1      42.178  33.409  34.412  1.00  0.00     0.049 A 
ATOM     92  H   UNL A   1      40.403  34.635  34.314  1.00  0.00     0.167 HD
ATOM     93  C   UNL A   1      40.635  28.729  30.156  1.00  0.00     0.037 A 
ATOM     94  H   UNL A   1      37.650  29.212  30.029  1.00  0.00     0.065 H 
ATOM     95  H   UNL A   1      43.829  32.738  33.084  1.00  0.00     0.065 H 
ATOM     96  C   UNL A   1      42.337  32.929  35.679  1.00  0.00     0.037 A 
ATOM     97  C   UNL A   1      41.898  28.780  30.903  1.00  0.00     0.049 A 
ATOM     98  C   UNL A   1      42.759  31.477  35.760  1.00  0.00     0.074 A 
ATOM     99  C   UNL A   1      43.142  29.357  30.702  1.00  0.00    -0.036 A 
ATOM    100  N   UNL A   1      41.891  28.349  32.219  1.00  0.00    -0.354 N 
ATOM    101  N   UNL A   1      42.921  30.701  34.725  1.00  0.00    -0.248 NA
ATOM    102  C   UNL A   1      42.923  30.756  37.025  1.00  0.00    -0.034 C 
ATOM    103  C   UNL A   1      43.866  29.289  31.932  1.00  0.00    -0.036 A 
ATOM    104  H   UNL A   1      43.485  29.764  29.819  1.00  0.00     0.065 H 
ATOM    105  C   UNL A   1      43.066  28.661  32.871  1.00  0.00     0.049 A 
ATOM    106  H   UNL A   1      41.137  27.877  32.641  1.00  0.00     0.167 HD
ATOM    107  C   UNL A   1      43.112  29.415  35.150  1.00  0.00     0.074 A 
ATOM    108  C   UNL A   1      43.125  29.498  36.598  1.00  0.00    -0.034 C 
ATOM    109  H   UNL A   1      42.892  31.119  37.990  1.00  0.00     0.065 H 
ATOM    110  H   UNL A   1      44.820  29.646  32.092  1.00  0.00     0.065 H 
ATOM    111  C   UNL A   1      43.187  28.361  34.289  1.00  0.00     0.037 A 
ATOM    112  H   UNL A   1      43.271  28.690  37.224  1.00  0.00     0.065 H 
BRANCH  93 113
ATOM    113  C   UNL A   1      40.489  28.009  28.824  1.00  0.00     0.064 A 
ATOM    114  C   UNL A   1      39.754  26.804  28.755  1.00  0.00     0.173 A 
ATOM    115  C   UNL A   1      41.121  28.364  27.613  1.00  0.00     0.173 A 
ATOM    116  F   UNL A   1      39.063  26.343  29.808  1.00  0.00    -0.203 F 
ATOM    117  C   UNL A   1      39.713  26.005  27.606  1.00  0.00     0.198 A 
ATOM    118  C   UNL A   1      41.062  27.577  26.459  1.00  0.00     0.198 A 
ATOM    119  F   UNL A   1      41.849  29.469  27.471  1.00  0.00    -0.203 F 
ATOM    120  F   UNL A   1      39.041  24.845  27.626  1.00  0.00    -0.200 F 
ATOM    121  C   UNL A   1      40.373  26.388  26.458  1.00  0.00     0.200 A 
ATOM    122  F   UNL A   1      41.707  27.981  25.354  1.00  0.00    -0.200 F 
ATOM    123  F   UNL A   1      40.353  25.618  25.363  1.00  0.00    -0.200 F 
ENDBRANCH  93 113
BRANCH  96 124
ATOM    124  C   UNL A   1      41.458  33.621  36.656  1.00  0.00     0.064 A 
ATOM    125  C   UNL A   1      41.877  34.870  37.152  1.00  0.00     0.173 A 
ATOM    126  C   UNL A   1      40.103  33.294  36.771  1.00  0.00     0.173 A 
ATOM    127  F   UNL A   1      43.167  35.229  37.063  1.00  0.00    -0.203 F 
ATOM    128  C   UNL A   1      40.956  35.805  37.617  1.00  0.00     0.198 A 
ATOM    129  C   UNL A   1      39.186  34.228  37.253  1.00  0.00     0.198 A 
ATOM    130  F   UNL A   1      39.645  32.124  36.301  1.00  0.00    -0.203 F 
ATOM    131  F   UNL A   1      41.368  37.032  37.966  1.00  0.00    -0.200 F 
ATOM    132  C   UNL A   1      39.607  35.493  37.638  1.00  0.00     0.200 A 
ATOM    133  F   UNL A   1      37.878  33.934  37.252  1.00  0.00    -0.200 F 
ATOM    134  F   UNL A   1      38.709  36.423  37.989  1.00  0.00    -0.200 F 
ENDBRANCH  96 124
BRANCH 111 135
ATOM    135  C   UNL A   1      43.374  26.946  34.740  1.00  0.00     0.064 A 
ATOM    136  C   UNL A   1      44.604  26.283  34.626  1.00  0.00     0.173 A 
ATOM    137  C   UNL A   1      42.282  26.173  35.183  1.00  0.00     0.173 A 
ATOM    138  F   UNL A   1      45.693  26.936  34.190  1.00  0.00    -0.203 F 
ATOM    139  C   UNL A   1      44.735  24.930  34.942  1.00  0.00     0.198 A 
ATOM    140  C   UNL A   1      42.403  24.812  35.452  1.00  0.00     0.198 A 
ATOM    141  F   UNL A   1      41.077  26.728  35.388  1.00  0.00    -0.203 F 
ATOM    142  F   UNL A   1      45.935  24.339  34.854  1.00  0.00    -0.200 F 
ATOM    143  C   UNL A   1      43.632  24.191  35.336  1.00  0.00     0.200 A 
ATOM    144  F   UNL A   1      41.325  24.107  35.823  1.00  0.00    -0.200 F 
ATOM    145  F   UNL A   1      43.753  22.884  35.609  1.00  0.00    -0.200 F 
ENDBRANCH 111 135
ENDBRANCH  76  79
ENDBRANCH  66  69
ENDBRANCH  62  65
ENDBRANCH  59  62
ENDBRANCH  56  59
ENDBRANCH   1  56
TORSDOF 17
ENDMDL
MODEL 9
REMARK VINA RESULT:     -12.4      1.822      3.033
REMARK SMILES Cc1ccc(-c2nn(-c3ccccc3)cc2[C@@H]2[NH2+][C@H](C(=O)NCCCCCCNC(=O)c3ccc(-c4c5nc(c(-c6c(F)c(F)c(F)c(F)c6F)c6ccc([nH]6)c(-c6c(F)c(F)c(F)c(F)c6F)c6nc(c(-c7c(F)c(F)c(F)c(F)c7F)c7ccc4[nH]7)C=C6)C=C5)cc3)CS2)cc1
REMARK SMILES IDX 25 1 24 4 23 7 22 10 20 11 21 12 19 14 17 15 18 16 96 17
REMARK SMILES IDX 95 21 16 25 6 26 7 27 8 28 15 29 5 31 2 32 3 33 98 34 4 35
REMARK SMILES IDX 97 37 1 41 9 45 10 46 14 47 11 48 13 50 12 52 26 56 27 59
REMARK SMILES IDX 28 62 29 65 30 66 31 68 32 69 33 70 94 71 34 72 93 74 35 76
REMARK SMILES IDX 36 79 37 80 87 81 38 82 92 83 86 84 88 85 39 86 91 87 85 89
REMARK SMILES IDX 84 91 40 93 72 96 52 97 71 98 53 99 56 100 70 101 89 102
REMARK SMILES IDX 54 103 55 105 69 107 90 108 57 111 41 113 42 114 50 115
REMARK SMILES IDX 43 116 44 117 48 118 51 119 45 120 46 121 49 122 47 123
REMARK SMILES IDX 73 124 74 125 82 126 75 127 76 128 80 129 83 130 77 131
REMARK SMILES IDX 78 132 81 133 79 134 58 135 59 136 67 137 60 138 61 139
REMARK SMILES IDX 65 140 68 141 62 142 63 143 66 144 64 145
REMARK H PARENT 25 2 25 3 24 5 24 6 23 8 23 9 22 13 17 18 18 19 18 20 19 22
REMARK H PARENT 95 23 95 24 15 30 3 36 98 38 4 39 97 40 1 42 1 43 1 44 10 49
REMARK H PARENT 14 51 11 53 13 54 12 55 26 57 26 58 27 60 27 61 28 63 28 64
REMARK H PARENT 29 67 33 73 94 75 34 77 93 78 92 88 86 90 88 92 91 94 85 95
REMARK H PARENT 53 104 56 106 89 109 54 110 90 112
REMARK Flexibility Score: inf
ROOT
ATOM      1  C   UNL A   1      33.526  27.883  25.252  1.00  0.00    -0.052 C 
ATOM      2  H   UNL A   1      33.898  27.065  25.832  1.00  0.00     0.027 H 
ATOM      3  H   UNL A   1      32.478  28.053  25.116  1.00  0.00     0.027 H 
ENDROOT
BRANCH   1   4
ATOM      4  C   UNL A   1      33.946  27.576  23.787  1.00  0.00    -0.036 C 
ATOM      5  H   UNL A   1      34.048  28.528  23.309  1.00  0.00     0.028 H 
ATOM      6  H   UNL A   1      34.799  26.950  23.945  1.00  0.00     0.028 H 
BRANCH   4   7
ATOM      7  C   UNL A   1      33.123  26.715  22.828  1.00  0.00     0.018 C 
ATOM      8  H   UNL A   1      32.174  26.537  23.289  1.00  0.00     0.049 H 
ATOM      9  H   UNL A   1      33.087  27.274  21.917  1.00  0.00     0.049 H 
BRANCH   7  10
ATOM     10  N   UNL A   1      33.677  25.422  22.453  1.00  0.00    -0.351 N 
ATOM     11  C   UNL A   1      34.272  24.430  23.184  1.00  0.00     0.279 C 
ATOM     12  O   UNL A   1      34.364  23.337  22.601  1.00  0.00    -0.268 OA
ATOM     13  H   UNL A   1      33.610  25.222  21.491  1.00  0.00     0.163 HD
BRANCH  11  14
ATOM     14  C   UNL A   1      34.882  24.522  24.614  1.00  0.00     0.176 C 
ATOM     15  C   UNL A   1      34.194  23.352  26.623  1.00  0.00     0.163 C 
ATOM     16  N   UNL A   1      33.943  24.511  25.761  1.00  0.00    -0.320 N 
ATOM     17  S   UNL A   1      35.968  23.047  26.540  1.00  0.00    -0.087 SA
ATOM     18  H   UNL A   1      33.927  23.499  27.649  1.00  0.00     0.115 H 
ATOM     19  H   UNL A   1      34.066  25.366  26.304  1.00  0.00     0.348 HD
ATOM     20  H   UNL A   1      32.988  24.457  25.405  1.00  0.00     0.348 HD
ATOM     21  C   UNL A   1      36.042  23.533  24.799  1.00  0.00     0.061 C 
ATOM     22  H   UNL A   1      35.262  25.521  24.647  1.00  0.00     0.108 H 
ATOM     23  H   UNL A   1      36.977  24.005  24.580  1.00  0.00     0.045 H 
ATOM     24  H   UNL A   1      35.963  22.693  24.142  1.00  0.00     0.045 H 
BRANCH  15  25
ATOM     25  C   UNL A   1      33.350  22.215  26.143  1.00  0.00     0.067 A 
ATOM     26  C   UNL A   1      32.064  22.263  25.486  1.00  0.00     0.103 A 
ATOM     27  N   UNL A   1      31.630  21.009  25.209  1.00  0.00    -0.167 NA
ATOM     28  N   UNL A   1      32.688  20.205  25.494  1.00  0.00    -0.240 N 
ATOM     29  C   UNL A   1      33.662  20.871  26.170  1.00  0.00     0.041 A 
ATOM     30  H   UNL A   1      34.487  20.448  26.624  1.00  0.00     0.085 H 
BRANCH  26  31
ATOM     31  C   UNL A   1      31.285  23.463  25.092  1.00  0.00     0.003 A 
ATOM     32  C   UNL A   1      29.874  25.816  24.316  1.00  0.00    -0.051 A 
ATOM     33  C   UNL A   1      30.205  24.848  23.373  1.00  0.00    -0.059 A 
ATOM     34  C   UNL A   1      30.207  25.582  25.655  1.00  0.00    -0.059 A 
ATOM     35  C   UNL A   1      30.899  23.697  23.759  1.00  0.00    -0.052 A 
ATOM     36  H   UNL A   1      29.937  24.980  22.385  1.00  0.00     0.063 H 
ATOM     37  C   UNL A   1      30.897  24.415  26.040  1.00  0.00    -0.052 A 
ATOM     38  H   UNL A   1      29.942  26.274  26.372  1.00  0.00     0.063 H 
ATOM     39  H   UNL A   1      31.137  22.993  23.042  1.00  0.00     0.063 H 
ATOM     40  H   UNL A   1      31.120  24.262  27.035  1.00  0.00     0.063 H 
BRANCH  32  41
ATOM     41  C   UNL A   1      29.177  27.069  23.872  1.00  0.00    -0.040 C 
ATOM     42  H   UNL A   1      29.847  27.899  23.954  1.00  0.00     0.028 H 
ATOM     43  H   UNL A   1      28.321  27.239  24.492  1.00  0.00     0.028 H 
ATOM     44  H   UNL A   1      28.864  26.961  22.855  1.00  0.00     0.028 H 
ENDBRANCH  32  41
ENDBRANCH  26  31
BRANCH  28  45
ATOM     45  C   UNL A   1      32.869  18.922  24.924  1.00  0.00     0.065 A 
ATOM     46  C   UNL A   1      32.744  17.783  25.744  1.00  0.00    -0.036 A 
ATOM     47  C   UNL A   1      33.159  18.785  23.570  1.00  0.00    -0.036 A 
ATOM     48  C   UNL A   1      33.000  16.515  25.224  1.00  0.00    -0.060 A 
ATOM     49  H   UNL A   1      32.461  17.887  26.731  1.00  0.00     0.065 H 
ATOM     50  C   UNL A   1      33.324  17.500  23.040  1.00  0.00    -0.060 A 
ATOM     51  H   UNL A   1      33.250  19.616  22.967  1.00  0.00     0.065 H 
ATOM     52  C   UNL A   1      33.277  16.373  23.868  1.00  0.00    -0.062 A 
ATOM     53  H   UNL A   1      32.984  15.688  25.841  1.00  0.00     0.062 H 
ATOM     54  H   UNL A   1      33.481  17.383  22.027  1.00  0.00     0.062 H 
ATOM     55  H   UNL A   1      33.449  15.435  23.473  1.00  0.00     0.062 H 
ENDBRANCH  28  45
ENDBRANCH  15  25
ENDBRANCH  11  14
ENDBRANCH   7  10
ENDBRANCH   4   7
ENDBRANCH   1   4
BRANCH   1  56
ATOM     56  C   UNL A   1      33.906  29.148  26.039  1.00  0.00    -0.052 C 
ATOM     57  H   UNL A   1      33.022  29.488  26.539  1.00  0.00     0.027 H 
ATOM     58  H   UNL A   1      34.307  29.808  25.298  1.00  0.00     0.027 H 
BRANCH  56  59
ATOM     59  C   UNL A   1      35.012  29.045  27.091  1.00  0.00    -0.036 C 
ATOM     60  H   UNL A   1      35.904  28.741  26.583  1.00  0.00     0.028 H 
ATOM     61  H   UNL A   1      34.624  28.358  27.814  1.00  0.00     0.028 H 
BRANCH  59  62
ATOM     62  C   UNL A   1      35.361  30.291  27.906  1.00  0.00     0.018 C 
ATOM     63  H   UNL A   1      36.285  30.680  27.532  1.00  0.00     0.049 H 
ATOM     64  H   UNL A   1      35.406  29.971  28.926  1.00  0.00     0.049 H 
BRANCH  62  65
ATOM     65  N   UNL A   1      34.365  31.376  27.868  1.00  0.00    -0.352 N 
ATOM     66  C   UNL A   1      34.367  32.574  28.583  1.00  0.00     0.251 C 
ATOM     67  H   UNL A   1      33.600  31.237  27.262  1.00  0.00     0.163 HD
ATOM     68  O   UNL A   1      33.482  33.399  28.484  1.00  0.00    -0.269 OA
BRANCH  66  69
ATOM     69  C   UNL A   1      35.569  32.862  29.398  1.00  0.00     0.039 A 
ATOM     70  C   UNL A   1      36.581  33.601  28.777  1.00  0.00    -0.049 A 
ATOM     71  C   UNL A   1      35.830  32.036  30.488  1.00  0.00    -0.049 A 
ATOM     72  C   UNL A   1      37.902  33.260  29.037  1.00  0.00    -0.053 A 
ATOM     73  H   UNL A   1      36.351  34.381  28.143  1.00  0.00     0.063 H 
ATOM     74  C   UNL A   1      37.137  31.634  30.678  1.00  0.00    -0.053 A 
ATOM     75  H   UNL A   1      35.078  31.737  31.127  1.00  0.00     0.063 H 
ATOM     76  C   UNL A   1      38.154  32.176  29.876  1.00  0.00    -0.014 A 
ATOM     77  H   UNL A   1      38.678  33.795  28.619  1.00  0.00     0.063 H 
ATOM     78  H   UNL A   1      37.365  30.940  31.407  1.00  0.00     0.063 H 
BRANCH  76  79
ATOM     79  C   UNL A   1      39.424  31.458  29.882  1.00  0.00     0.031 A 
ATOM     80  C   UNL A   1      39.454  30.032  29.515  1.00  0.00     0.074 A 
ATOM     81  C   UNL A   1      40.578  32.096  30.185  1.00  0.00     0.049 A 
ATOM     82  N   UNL A   1      40.431  29.236  29.791  1.00  0.00    -0.248 NA
ATOM     83  C   UNL A   1      38.318  29.358  28.899  1.00  0.00    -0.034 C 
ATOM     84  C   UNL A   1      41.938  31.613  29.961  1.00  0.00    -0.036 A 
ATOM     85  N   UNL A   1      40.746  33.248  30.971  1.00  0.00    -0.354 N 
ATOM     86  C   UNL A   1      40.185  28.037  29.170  1.00  0.00     0.074 A 
ATOM     87  C   UNL A   1      38.806  28.124  28.757  1.00  0.00    -0.034 C 
ATOM     88  H   UNL A   1      37.392  29.733  28.641  1.00  0.00     0.065 H 
ATOM     89  C   UNL A   1      42.770  32.243  30.803  1.00  0.00    -0.036 A 
ATOM     90  H   UNL A   1      42.214  30.901  29.266  1.00  0.00     0.065 H 
ATOM     91  C   UNL A   1      41.956  33.057  31.685  1.00  0.00     0.049 A 
ATOM     92  H   UNL A   1      40.147  34.028  31.016  1.00  0.00     0.167 HD
ATOM     93  C   UNL A   1      41.227  27.177  28.985  1.00  0.00     0.037 A 
ATOM     94  H   UNL A   1      38.261  27.325  28.396  1.00  0.00     0.065 H 
ATOM     95  H   UNL A   1      43.798  32.163  30.820  1.00  0.00     0.065 H 
ATOM     96  C   UNL A   1      41.975  33.006  33.047  1.00  0.00     0.037 A 
ATOM     97  C   UNL A   1      42.377  27.569  29.808  1.00  0.00     0.049 A 
ATOM     98  C   UNL A   1      42.459  31.693  33.627  1.00  0.00     0.074 A 
ATOM     99  C   UNL A   1      43.604  28.166  29.568  1.00  0.00    -0.036 A 
ATOM    100  N   UNL A   1      42.222  27.565  31.184  1.00  0.00    -0.354 N 
ATOM    101  N   UNL A   1      42.795  30.655  32.914  1.00  0.00    -0.248 NA
ATOM    102  C   UNL A   1      42.496  31.414  35.065  1.00  0.00    -0.034 C 
ATOM    103  C   UNL A   1      44.165  28.546  30.827  1.00  0.00    -0.036 A 
ATOM    104  H   UNL A   1      44.037  28.312  28.644  1.00  0.00     0.065 H 
ATOM    105  C   UNL A   1      43.286  28.166  31.825  1.00  0.00     0.049 A 
ATOM    106  H   UNL A   1      41.447  27.178  31.651  1.00  0.00     0.167 HD
ATOM    107  C   UNL A   1      42.996  29.585  33.741  1.00  0.00     0.074 A 
ATOM    108  C   UNL A   1      42.818  30.109  35.081  1.00  0.00    -0.034 C 
ATOM    109  H   UNL A   1      42.321  32.051  35.857  1.00  0.00     0.065 H 
ATOM    110  H   UNL A   1      45.071  29.020  30.966  1.00  0.00     0.065 H 
ATOM    111  C   UNL A   1      43.238  28.329  33.269  1.00  0.00     0.037 A 
ATOM    112  H   UNL A   1      42.924  29.549  35.942  1.00  0.00     0.065 H 
BRANCH  93 113
ATOM    113  C   UNL A   1      41.291  26.073  27.941  1.00  0.00     0.064 A 
ATOM    114  C   UNL A   1      40.418  24.966  28.035  1.00  0.00     0.173 A 
ATOM    115  C   UNL A   1      42.240  25.966  26.901  1.00  0.00     0.173 A 
ATOM    116  F   UNL A   1      39.434  24.924  28.945  1.00  0.00    -0.203 F 
ATOM    117  C   UNL A   1      40.529  23.839  27.210  1.00  0.00     0.198 A 
ATOM    118  C   UNL A   1      42.337  24.851  26.064  1.00  0.00     0.198 A 
ATOM    119  F   UNL A   1      43.142  26.911  26.643  1.00  0.00    -0.203 F 
ATOM    120  F   UNL A   1      39.702  22.800  27.390  1.00  0.00    -0.200 F 
ATOM    121  C   UNL A   1      41.494  23.779  26.228  1.00  0.00     0.200 A 
ATOM    122  F   UNL A   1      43.280  24.825  25.110  1.00  0.00    -0.200 F 
ATOM    123  F   UNL A   1      41.616  22.696  25.450  1.00  0.00    -0.200 F 
ENDBRANCH  93 113
BRANCH  96 124
ATOM    124  C   UNL A   1      40.941  33.881  33.657  1.00  0.00     0.064 A 
ATOM    125  C   UNL A   1      39.746  33.283  34.099  1.00  0.00     0.173 A 
ATOM    126  C   UNL A   1      41.268  35.142  34.168  1.00  0.00     0.173 A 
ATOM    127  F   UNL A   1      39.390  32.074  33.637  1.00  0.00    -0.203 F 
ATOM    128  C   UNL A   1      38.983  33.861  35.109  1.00  0.00     0.198 A 
ATOM    129  C   UNL A   1      40.492  35.724  35.169  1.00  0.00     0.198 A 
ATOM    130  F   UNL A   1      42.403  35.751  33.795  1.00  0.00    -0.203 F 
ATOM    131  F   UNL A   1      37.918  33.209  35.598  1.00  0.00    -0.200 F 
ATOM    132  C   UNL A   1      39.375  35.068  35.665  1.00  0.00     0.200 A 
ATOM    133  F   UNL A   1      40.883  36.881  35.723  1.00  0.00    -0.200 F 
ATOM    134  F   UNL A   1      38.701  35.577  36.705  1.00  0.00    -0.200 F 
ENDBRANCH  96 124
BRANCH 111 135
ATOM    135  C   UNL A   1      43.439  27.144  34.161  1.00  0.00     0.064 A 
ATOM    136  C   UNL A   1      42.362  26.457  34.741  1.00  0.00     0.173 A 
ATOM    137  C   UNL A   1      44.729  26.744  34.564  1.00  0.00     0.173 A 
ATOM    138  F   UNL A   1      41.098  26.785  34.433  1.00  0.00    -0.203 F 
ATOM    139  C   UNL A   1      42.565  25.427  35.662  1.00  0.00     0.198 A 
ATOM    140  C   UNL A   1      44.929  25.751  35.519  1.00  0.00     0.198 A 
ATOM    141  F   UNL A   1      45.826  27.294  34.020  1.00  0.00    -0.203 F 
ATOM    142  F   UNL A   1      41.513  24.769  36.168  1.00  0.00    -0.200 F 
ATOM    143  C   UNL A   1      43.846  25.089  36.065  1.00  0.00     0.200 A 
ATOM    144  F   UNL A   1      46.174  25.440  35.906  1.00  0.00    -0.200 F 
ATOM    145  F   UNL A   1      44.038  24.121  36.973  1.00  0.00    -0.200 F 
ENDBRANCH 111 135
ENDBRANCH  76  79
ENDBRANCH  66  69
ENDBRANCH  62  65
ENDBRANCH  59  62
ENDBRANCH  56  59
ENDBRANCH   1  56
TORSDOF 17
ENDMDL
MODEL 10
REMARK VINA RESULT:     -12.4      6.209     12.024
REMARK SMILES Cc1ccc(-c2nn(-c3ccccc3)cc2[C@@H]2[NH2+][C@H](C(=O)NCCCCCCNC(=O)c3ccc(-c4c5nc(c(-c6c(F)c(F)c(F)c(F)c6F)c6ccc([nH]6)c(-c6c(F)c(F)c(F)c(F)c6F)c6nc(c(-c7c(F)c(F)c(F)c(F)c7F)c7ccc4[nH]7)C=C6)C=C5)cc3)CS2)cc1
REMARK SMILES IDX 25 1 24 4 23 7 22 10 20 11 21 12 19 14 17 15 18 16 96 17
REMARK SMILES IDX 95 21 16 25 6 26 7 27 8 28 15 29 5 31 2 32 3 33 98 34 4 35
REMARK SMILES IDX 97 37 1 41 9 45 10 46 14 47 11 48 13 50 12 52 26 56 27 59
REMARK SMILES IDX 28 62 29 65 30 66 31 68 32 69 33 70 94 71 34 72 93 74 35 76
REMARK SMILES IDX 36 79 37 80 87 81 38 82 92 83 86 84 88 85 39 86 91 87 85 89
REMARK SMILES IDX 84 91 40 93 72 96 52 97 71 98 53 99 56 100 70 101 89 102
REMARK SMILES IDX 54 103 55 105 69 107 90 108 57 111 41 113 42 114 50 115
REMARK SMILES IDX 43 116 44 117 48 118 51 119 45 120 46 121 49 122 47 123
REMARK SMILES IDX 73 124 74 125 82 126 75 127 76 128 80 129 83 130 77 131
REMARK SMILES IDX 78 132 81 133 79 134 58 135 59 136 67 137 60 138 61 139
REMARK SMILES IDX 65 140 68 141 62 142 63 143 66 144 64 145
REMARK H PARENT 25 2 25 3 24 5 24 6 23 8 23 9 22 13 17 18 18 19 18 20 19 22
REMARK H PARENT 95 23 95 24 15 30 3 36 98 38 4 39 97 40 1 42 1 43 1 44 10 49
REMARK H PARENT 14 51 11 53 13 54 12 55 26 57 26 58 27 60 27 61 28 63 28 64
REMARK H PARENT 29 67 33 73 94 75 34 77 93 78 92 88 86 90 88 92 91 94 85 95
REMARK H PARENT 53 104 56 106 89 109 54 110 90 112
REMARK Flexibility Score: inf
ROOT
ATOM      1  C   UNL A   1      41.128  35.438  29.013  1.00  0.00    -0.052 C 
ATOM      2  H   UNL A   1      40.440  35.914  28.346  1.00  0.00     0.027 H 
ATOM      3  H   UNL A   1      41.497  35.925  29.892  1.00  0.00     0.027 H 
ENDROOT
BRANCH   1   4
ATOM      4  C   UNL A   1      42.450  35.292  28.208  1.00  0.00    -0.036 C 
ATOM      5  H   UNL A   1      43.221  35.676  28.843  1.00  0.00     0.028 H 
ATOM      6  H   UNL A   1      42.420  34.254  27.952  1.00  0.00     0.028 H 
BRANCH   4   7
ATOM      7  C   UNL A   1      42.686  35.926  26.836  1.00  0.00     0.018 C 
ATOM      8  H   UNL A   1      43.719  36.201  26.782  1.00  0.00     0.049 H 
ATOM      9  H   UNL A   1      42.378  35.182  26.131  1.00  0.00     0.049 H 
BRANCH   7  10
ATOM     10  N   UNL A   1      41.901  37.106  26.504  1.00  0.00    -0.351 N 
ATOM     11  C   UNL A   1      41.964  38.402  26.937  1.00  0.00     0.279 C 
ATOM     12  O   UNL A   1      41.339  39.216  26.237  1.00  0.00    -0.268 OA
ATOM     13  H   UNL A   1      41.191  36.940  25.843  1.00  0.00     0.163 HD
BRANCH  11  14
ATOM     14  C   UNL A   1      42.670  38.961  28.208  1.00  0.00     0.176 C 
ATOM     15  C   UNL A   1      44.628  40.385  28.340  1.00  0.00     0.163 C 
ATOM     16  N   UNL A   1      44.152  39.005  28.204  1.00  0.00    -0.320 N 
ATOM     17  S   UNL A   1      43.418  41.226  29.379  1.00  0.00    -0.087 SA
ATOM     18  H   UNL A   1      45.588  40.477  28.803  1.00  0.00     0.115 H 
ATOM     19  H   UNL A   1      44.506  38.449  28.984  1.00  0.00     0.348 HD
ATOM     20  H   UNL A   1      44.491  38.625  27.320  1.00  0.00     0.348 HD
ATOM     21  C   UNL A   1      42.046  40.287  28.665  1.00  0.00     0.061 C 
ATOM     22  H   UNL A   1      42.472  38.207  28.941  1.00  0.00     0.108 H 
ATOM     23  H   UNL A   1      41.288  40.113  29.399  1.00  0.00     0.045 H 
ATOM     24  H   UNL A   1      41.577  40.810  27.859  1.00  0.00     0.045 H 
BRANCH  15  25
ATOM     25  C   UNL A   1      44.779  40.970  26.973  1.00  0.00     0.067 A 
ATOM     26  C   UNL A   1      45.820  40.729  26.001  1.00  0.00     0.103 A 
ATOM     27  N   UNL A   1      45.592  41.453  24.878  1.00  0.00    -0.167 NA
ATOM     28  N   UNL A   1      44.349  41.975  25.048  1.00  0.00    -0.240 N 
ATOM     29  C   UNL A   1      43.905  41.818  26.325  1.00  0.00     0.041 A 
ATOM     30  H   UNL A   1      43.065  42.256  26.735  1.00  0.00     0.085 H 
BRANCH  26  31
ATOM     31  C   UNL A   1      46.979  39.808  26.114  1.00  0.00     0.003 A 
ATOM     32  C   UNL A   1      49.149  37.981  26.390  1.00  0.00    -0.051 A 
ATOM     33  C   UNL A   1      48.214  37.817  25.373  1.00  0.00    -0.059 A 
ATOM     34  C   UNL A   1      49.024  39.087  27.237  1.00  0.00    -0.059 A 
ATOM     35  C   UNL A   1      47.150  38.716  25.244  1.00  0.00    -0.052 A 
ATOM     36  H   UNL A   1      48.305  37.030  24.711  1.00  0.00     0.063 H 
ATOM     37  C   UNL A   1      47.956  39.995  27.096  1.00  0.00    -0.052 A 
ATOM     38  H   UNL A   1      49.726  39.241  27.977  1.00  0.00     0.063 H 
ATOM     39  H   UNL A   1      46.466  38.574  24.483  1.00  0.00     0.063 H 
ATOM     40  H   UNL A   1      47.895  40.808  27.728  1.00  0.00     0.063 H 
BRANCH  32  41
ATOM     41  C   UNL A   1      50.253  36.975  26.544  1.00  0.00    -0.040 C 
ATOM     42  H   UNL A   1      51.174  37.483  26.738  1.00  0.00     0.028 H 
ATOM     43  H   UNL A   1      50.343  36.404  25.643  1.00  0.00     0.028 H 
ATOM     44  H   UNL A   1      50.027  36.320  27.359  1.00  0.00     0.028 H 
ENDBRANCH  32  41
ENDBRANCH  26  31
BRANCH  28  45
ATOM     45  C   UNL A   1      43.519  42.382  23.976  1.00  0.00     0.065 A 
ATOM     46  C   UNL A   1      44.086  43.100  22.904  1.00  0.00    -0.036 A 
ATOM     47  C   UNL A   1      42.163  42.070  23.974  1.00  0.00    -0.036 A 
ATOM     48  C   UNL A   1      43.274  43.583  21.878  1.00  0.00    -0.060 A 
ATOM     49  H   UNL A   1      45.104  43.267  22.878  1.00  0.00     0.065 H 
ATOM     50  C   UNL A   1      41.375  42.482  22.893  1.00  0.00    -0.060 A 
ATOM     51  H   UNL A   1      41.746  41.543  24.756  1.00  0.00     0.065 H 
ATOM     52  C   UNL A   1      41.920  43.262  21.867  1.00  0.00    -0.062 A 
ATOM     53  H   UNL A   1      43.674  44.174  21.135  1.00  0.00     0.062 H 
ATOM     54  H   UNL A   1      40.382  42.207  22.852  1.00  0.00     0.062 H 
ATOM     55  H   UNL A   1      41.317  43.600  21.101  1.00  0.00     0.062 H 
ENDBRANCH  28  45
ENDBRANCH  15  25
ENDBRANCH  11  14
ENDBRANCH   7  10
ENDBRANCH   4   7
ENDBRANCH   1   4
BRANCH   1  56
ATOM     56  C   UNL A   1      40.344  34.280  29.653  1.00  0.00    -0.052 C 
ATOM     57  H   UNL A   1      40.548  34.301  30.703  1.00  0.00     0.027 H 
ATOM     58  H   UNL A   1      40.683  33.412  29.128  1.00  0.00     0.027 H 
BRANCH  56  59
ATOM     59  C   UNL A   1      38.823  34.253  29.485  1.00  0.00    -0.036 C 
ATOM     60  H   UNL A   1      38.601  34.708  28.542  1.00  0.00     0.028 H 
ATOM     61  H   UNL A   1      38.455  34.761  30.351  1.00  0.00     0.028 H 
BRANCH  59  62
ATOM     62  C   UNL A   1      38.112  32.900  29.512  1.00  0.00     0.018 C 
ATOM     63  H   UNL A   1      38.491  32.344  30.344  1.00  0.00     0.049 H 
ATOM     64  H   UNL A   1      38.307  32.447  28.562  1.00  0.00     0.049 H 
BRANCH  62  65
ATOM     65  N   UNL A   1      36.644  32.956  29.636  1.00  0.00    -0.352 N 
ATOM     66  C   UNL A   1      35.724  31.925  29.446  1.00  0.00     0.251 C 
ATOM     67  H   UNL A   1      36.266  33.831  29.884  1.00  0.00     0.163 HD
ATOM     68  O   UNL A   1      34.525  32.085  29.563  1.00  0.00    -0.269 OA
BRANCH  66  69
ATOM     69  C   UNL A   1      36.277  30.572  29.203  1.00  0.00     0.039 A 
ATOM     70  C   UNL A   1      36.604  29.820  30.336  1.00  0.00    -0.049 A 
ATOM     71  C   UNL A   1      36.857  30.319  27.964  1.00  0.00    -0.049 A 
ATOM     72  C   UNL A   1      37.750  29.037  30.300  1.00  0.00    -0.053 A 
ATOM     73  H   UNL A   1      36.007  29.846  31.177  1.00  0.00     0.063 H 
ATOM     74  C   UNL A   1      38.045  29.615  27.955  1.00  0.00    -0.053 A 
ATOM     75  H   UNL A   1      36.419  30.644  27.089  1.00  0.00     0.063 H 
ATOM     76  C   UNL A   1      38.537  29.066  29.149  1.00  0.00    -0.014 A 
ATOM     77  H   UNL A   1      38.013  28.448  31.105  1.00  0.00     0.063 H 
ATOM     78  H   UNL A   1      38.568  29.494  27.074  1.00  0.00     0.063 H 
BRANCH  76  79
ATOM     79  C   UNL A   1      39.938  28.661  29.139  1.00  0.00     0.031 A 
ATOM     80  C   UNL A   1      40.293  27.285  28.751  1.00  0.00     0.074 A 
ATOM     81  C   UNL A   1      40.916  29.545  29.445  1.00  0.00     0.049 A 
ATOM     82  N   UNL A   1      41.430  26.733  29.012  1.00  0.00    -0.248 NA
ATOM     83  C   UNL A   1      39.339  26.376  28.131  1.00  0.00    -0.034 C 
ATOM     84  C   UNL A   1      42.349  29.392  29.207  1.00  0.00    -0.036 A 
ATOM     85  N   UNL A   1      40.820  30.695  30.246  1.00  0.00    -0.354 N 
ATOM     86  C   UNL A   1      41.462  25.517  28.375  1.00  0.00     0.074 A 
ATOM     87  C   UNL A   1      40.098  25.289  27.970  1.00  0.00    -0.034 C 
ATOM     88  H   UNL A   1      38.349  26.529  27.884  1.00  0.00     0.065 H 
ATOM     89  C   UNL A   1      43.019  30.186  30.054  1.00  0.00    -0.036 A 
ATOM     90  H   UNL A   1      42.777  28.772  28.501  1.00  0.00     0.065 H 
ATOM     91  C   UNL A   1      42.047  30.779  30.951  1.00  0.00     0.049 A 
ATOM     92  H   UNL A   1      40.057  31.314  30.305  1.00  0.00     0.167 HD
ATOM     93  C   UNL A   1      42.673  24.924  28.172  1.00  0.00     0.037 A 
ATOM     94  H   UNL A   1      39.749  24.390  27.600  1.00  0.00     0.065 H 
ATOM     95  H   UNL A   1      44.038  30.346  30.064  1.00  0.00     0.065 H 
ATOM     96  C   UNL A   1      42.088  30.716  32.313  1.00  0.00     0.037 A 
ATOM     97  C   UNL A   1      43.709  25.561  28.995  1.00  0.00     0.049 A 
ATOM     98  C   UNL A   1      42.867  29.544  32.872  1.00  0.00     0.074 A 
ATOM     99  C   UNL A   1      44.763  26.428  28.758  1.00  0.00    -0.036 A 
ATOM    100  N   UNL A   1      43.570  25.504  30.372  1.00  0.00    -0.354 N 
ATOM    101  N   UNL A   1      43.428  28.621  32.142  1.00  0.00    -0.248 NA
ATOM    102  C   UNL A   1      42.979  29.263  34.305  1.00  0.00    -0.034 C 
ATOM    103  C   UNL A   1      45.231  26.911  30.019  1.00  0.00    -0.036 A 
ATOM    104  H   UNL A   1      45.143  26.682  27.833  1.00  0.00     0.065 H 
ATOM    105  C   UNL A   1      44.471  26.326  31.016  1.00  0.00     0.049 A 
ATOM    106  H   UNL A   1      42.908  24.942  30.837  1.00  0.00     0.167 HD
ATOM    107  C   UNL A   1      43.878  27.615  32.953  1.00  0.00     0.074 A 
ATOM    108  C   UNL A   1      43.593  28.067  34.301  1.00  0.00    -0.034 C 
ATOM    109  H   UNL A   1      42.668  29.832  35.107  1.00  0.00     0.065 H 
ATOM    110  H   UNL A   1      46.004  27.580  30.160  1.00  0.00     0.065 H 
ATOM    111  C   UNL A   1      44.399  26.455  32.462  1.00  0.00     0.037 A 
ATOM    112  H   UNL A   1      43.833  27.536  35.154  1.00  0.00     0.065 H 
BRANCH  93 113
ATOM    113  C   UNL A   1      42.982  23.878  27.113  1.00  0.00     0.064 A 
ATOM    114  C   UNL A   1      42.612  22.531  27.327  1.00  0.00     0.173 A 
ATOM    115  C   UNL A   1      43.728  24.085  25.932  1.00  0.00     0.173 A 
ATOM    116  F   UNL A   1      41.870  22.167  28.383  1.00  0.00    -0.203 F 
ATOM    117  C   UNL A   1      43.006  21.491  26.476  1.00  0.00     0.198 A 
ATOM    118  C   UNL A   1      44.103  23.050  25.071  1.00  0.00     0.198 A 
ATOM    119  F   UNL A   1      44.159  25.285  25.548  1.00  0.00    -0.203 F 
ATOM    120  F   UNL A   1      42.666  20.228  26.768  1.00  0.00    -0.200 F 
ATOM    121  C   UNL A   1      43.759  21.750  25.350  1.00  0.00     0.200 A 
ATOM    122  F   UNL A   1      44.826  23.334  23.977  1.00  0.00    -0.200 F 
ATOM    123  F   UNL A   1      44.154  20.757  24.544  1.00  0.00    -0.200 F 
ENDBRANCH  93 113
BRANCH  96 124
ATOM    124  C   UNL A   1      40.886  31.322  32.940  1.00  0.00     0.064 A 
ATOM    125  C   UNL A   1      40.778  32.726  32.941  1.00  0.00     0.173 A 
ATOM    126  C   UNL A   1      39.718  30.577  33.138  1.00  0.00     0.173 A 
ATOM    127  F   UNL A   1      41.871  33.483  32.754  1.00  0.00    -0.203 F 
ATOM    128  C   UNL A   1      39.536  33.352  33.002  1.00  0.00     0.198 A 
ATOM    129  C   UNL A   1      38.478  31.210  33.214  1.00  0.00     0.198 A 
ATOM    130  F   UNL A   1      39.759  29.237  33.129  1.00  0.00    -0.203 F 
ATOM    131  F   UNL A   1      39.453  34.684  32.876  1.00  0.00    -0.200 F 
ATOM    132  C   UNL A   1      38.384  32.591  33.107  1.00  0.00     0.200 A 
ATOM    133  F   UNL A   1      37.361  30.473  33.293  1.00  0.00    -0.200 F 
ATOM    134  F   UNL A   1      37.183  33.182  33.064  1.00  0.00    -0.200 F 
ENDBRANCH  96 124
BRANCH 111 135
ATOM    135  C   UNL A   1      44.875  25.338  33.337  1.00  0.00     0.064 A 
ATOM    136  C   UNL A   1      46.229  24.984  33.423  1.00  0.00     0.173 A 
ATOM    137  C   UNL A   1      43.963  24.505  34.016  1.00  0.00     0.173 A 
ATOM    138  F   UNL A   1      47.165  25.707  32.789  1.00  0.00    -0.203 F 
ATOM    139  C   UNL A   1      46.647  23.867  34.151  1.00  0.00     0.198 A 
ATOM    140  C   UNL A   1      44.376  23.364  34.701  1.00  0.00     0.198 A 
ATOM    141  F   UNL A   1      42.653  24.793  34.050  1.00  0.00    -0.203 F 
ATOM    142  F   UNL A   1      47.953  23.580  34.239  1.00  0.00    -0.200 F 
ATOM    143  C   UNL A   1      45.719  23.048  34.772  1.00  0.00     0.200 A 
ATOM    144  F   UNL A   1      43.466  22.575  35.290  1.00  0.00    -0.200 F 
ATOM    145  F   UNL A   1      46.118  21.959  35.444  1.00  0.00    -0.200 F 
ENDBRANCH 111 135
ENDBRANCH  76  79
ENDBRANCH  66  69
ENDBRANCH  62  65
ENDBRANCH  59  62
ENDBRANCH  56  59
ENDBRANCH   1  56
TORSDOF 17
ENDMDL
