MODEL 1
REMARK VINA RESULT:     -12.1      0.000      0.000
REMARK SMILES O=C(Cc1ccn(-c2ccccc2F)c1)NCCCCCCNC(=O)c1ccc(-c2c3nc(c(-c4c(F)c(F)c(F)c(F)c4F)c4ccc([nH]4)c(-c4c(F)c(F)c(F)c(F)c4F)c4nc(c(-c5c(F)c(F)c(F)c(F)c5F)c5ccc2[nH]5)C=C4)C=C3)cc1
REMARK SMILES IDX 19 1 18 4 17 7 16 10 1 11 2 12 3 14 4 17 5 18 15 19 6 20
REMARK SMILES IDX 7 22 8 25 9 26 13 27 10 28 12 30 14 31 11 32 20 36 21 39
REMARK SMILES IDX 22 42 23 45 24 46 25 48 26 49 27 50 88 51 28 52 87 54 29 56
REMARK SMILES IDX 30 59 31 60 81 61 32 62 86 63 80 64 82 65 33 66 85 67 79 69
REMARK SMILES IDX 78 71 34 73 66 76 46 77 65 78 47 79 50 80 64 81 83 82 48 83
REMARK SMILES IDX 49 85 63 87 84 88 51 91 35 93 36 94 44 95 37 96 38 97 42 98
REMARK SMILES IDX 45 99 39 100 40 101 43 102 41 103 67 104 68 105 76 106
REMARK SMILES IDX 69 107 70 108 74 109 77 110 71 111 72 112 75 113 73 114
REMARK SMILES IDX 52 115 53 116 61 117 54 118 55 119 59 120 62 121 56 122
REMARK SMILES IDX 57 123 60 124 58 125
REMARK H PARENT 19 2 19 3 18 5 18 6 17 8 17 9 16 13 3 15 3 16 5 21 15 23 6 24
REMARK H PARENT 9 29 10 33 12 34 11 35 20 37 20 38 21 40 21 41 22 43 22 44
REMARK H PARENT 23 47 27 53 88 55 28 57 87 58 86 68 80 70 82 72 85 74 79 75
REMARK H PARENT 47 84 50 86 83 89 48 90 84 92
REMARK Flexibility Score: inf
ROOT
ATOM      1  C   UNL A   1      32.360  27.631  24.990  1.00  0.00    -0.052 C 
ATOM      2  H   UNL A   1      32.201  28.681  24.861  1.00  0.00     0.027 H 
ATOM      3  H   UNL A   1      33.220  27.260  24.472  1.00  0.00     0.027 H 
ENDROOT
BRANCH   1   4
ATOM      4  C   UNL A   1      31.155  26.891  24.393  1.00  0.00    -0.036 C 
ATOM      5  H   UNL A   1      30.568  27.597  23.844  1.00  0.00     0.028 H 
ATOM      6  H   UNL A   1      31.552  26.108  23.782  1.00  0.00     0.028 H 
BRANCH   4   7
ATOM      7  C   UNL A   1      30.250  26.219  25.426  1.00  0.00     0.017 C 
ATOM      8  H   UNL A   1      30.592  26.474  26.408  1.00  0.00     0.049 H 
ATOM      9  H   UNL A   1      29.249  26.565  25.272  1.00  0.00     0.049 H 
BRANCH   7  10
ATOM     10  N   UNL A   1      30.262  24.781  25.281  1.00  0.00    -0.356 N 
ATOM     11  O   UNL A   1      31.128  24.324  27.357  1.00  0.00    -0.275 OA
ATOM     12  C   UNL A   1      30.713  23.932  26.269  1.00  0.00     0.224 C 
ATOM     13  H   UNL A   1      29.933  24.391  24.440  1.00  0.00     0.163 HD
BRANCH  12  14
ATOM     14  C   UNL A   1      30.773  22.470  25.865  1.00  0.00     0.053 C 
ATOM     15  H   UNL A   1      29.974  22.276  25.182  1.00  0.00     0.042 H 
ATOM     16  H   UNL A   1      30.693  21.898  26.766  1.00  0.00     0.042 H 
BRANCH  14  17
ATOM     17  C   UNL A   1      32.059  22.071  25.211  1.00  0.00    -0.021 A 
ATOM     18  C   UNL A   1      32.249  21.729  23.846  1.00  0.00    -0.040 A 
ATOM     19  C   UNL A   1      33.306  22.002  25.806  1.00  0.00     0.013 A 
ATOM     20  C   UNL A   1      33.601  21.556  23.645  1.00  0.00     0.009 A 
ATOM     21  H   UNL A   1      31.509  21.630  23.134  1.00  0.00     0.064 H 
ATOM     22  N   UNL A   1      34.258  21.730  24.846  1.00  0.00    -0.321 N 
ATOM     23  H   UNL A   1      33.494  22.135  26.812  1.00  0.00     0.083 H 
ATOM     24  H   UNL A   1      34.050  21.332  22.743  1.00  0.00     0.082 H 
BRANCH  22  25
ATOM     25  C   UNL A   1      35.658  21.702  25.042  1.00  0.00     0.081 A 
ATOM     26  C   UNL A   1      36.347  22.893  25.309  1.00  0.00    -0.035 A 
ATOM     27  C   UNL A   1      36.357  20.494  25.004  1.00  0.00     0.147 A 
ATOM     28  C   UNL A   1      37.721  22.857  25.565  1.00  0.00    -0.060 A 
ATOM     29  H   UNL A   1      35.841  23.793  25.317  1.00  0.00     0.065 H 
ATOM     30  C   UNL A   1      37.733  20.466  25.219  1.00  0.00    -0.024 A 
ATOM     31  F   UNL A   1      35.744  19.343  24.691  1.00  0.00    -0.205 F 
ATOM     32  C   UNL A   1      38.413  21.647  25.512  1.00  0.00    -0.059 A 
ATOM     33  H   UNL A   1      38.224  23.729  25.792  1.00  0.00     0.062 H 
ATOM     34  H   UNL A   1      38.247  19.573  25.162  1.00  0.00     0.065 H 
ATOM     35  H   UNL A   1      39.430  21.626  25.689  1.00  0.00     0.062 H 
ENDBRANCH  22  25
ENDBRANCH  14  17
ENDBRANCH  12  14
ENDBRANCH   7  10
ENDBRANCH   4   7
ENDBRANCH   1   4
BRANCH   1  36
ATOM     36  C   UNL A   1      32.619  27.371  26.478  1.00  0.00    -0.052 C 
ATOM     37  H   UNL A   1      33.256  26.516  26.559  1.00  0.00     0.027 H 
ATOM     38  H   UNL A   1      31.657  27.232  26.927  1.00  0.00     0.027 H 
BRANCH  36  39
ATOM     39  C   UNL A   1      33.279  28.527  27.242  1.00  0.00    -0.036 C 
ATOM     40  H   UNL A   1      33.203  28.326  28.290  1.00  0.00     0.028 H 
ATOM     41  H   UNL A   1      32.766  29.422  26.957  1.00  0.00     0.028 H 
BRANCH  39  42
ATOM     42  C   UNL A   1      34.754  28.734  26.898  1.00  0.00     0.018 C 
ATOM     43  H   UNL A   1      34.911  28.496  25.867  1.00  0.00     0.049 H 
ATOM     44  H   UNL A   1      35.344  28.096  27.522  1.00  0.00     0.049 H 
BRANCH  42  45
ATOM     45  N   UNL A   1      35.153  30.111  27.134  1.00  0.00    -0.352 N 
ATOM     46  C   UNL A   1      36.207  30.616  27.851  1.00  0.00     0.251 C 
ATOM     47  H   UNL A   1      34.577  30.788  26.712  1.00  0.00     0.163 HD
ATOM     48  O   UNL A   1      36.164  31.779  28.236  1.00  0.00    -0.269 OA
BRANCH  46  49
ATOM     49  C   UNL A   1      37.389  29.792  28.179  1.00  0.00     0.039 A 
ATOM     50  C   UNL A   1      38.430  29.746  27.242  1.00  0.00    -0.049 A 
ATOM     51  C   UNL A   1      37.439  28.988  29.324  1.00  0.00    -0.049 A 
ATOM     52  C   UNL A   1      39.541  28.943  27.475  1.00  0.00    -0.053 A 
ATOM     53  H   UNL A   1      38.371  30.307  26.378  1.00  0.00     0.063 H 
ATOM     54  C   UNL A   1      38.559  28.200  29.573  1.00  0.00    -0.053 A 
ATOM     55  H   UNL A   1      36.645  28.979  29.983  1.00  0.00     0.063 H 
ATOM     56  C   UNL A   1      39.618  28.194  28.656  1.00  0.00    -0.014 A 
ATOM     57  H   UNL A   1      40.306  28.901  26.783  1.00  0.00     0.063 H 
ATOM     58  H   UNL A   1      38.610  27.625  30.428  1.00  0.00     0.063 H 
BRANCH  56  59
ATOM     59  C   UNL A   1      40.908  27.560  29.007  1.00  0.00     0.031 A 
ATOM     60  C   UNL A   1      41.020  26.140  28.401  1.00  0.00     0.074 A 
ATOM     61  C   UNL A   1      41.756  28.287  29.796  1.00  0.00     0.049 A 
ATOM     62  N   UNL A   1      41.764  25.134  28.749  1.00  0.00    -0.248 NA
ATOM     63  C   UNL A   1      40.137  25.768  27.258  1.00  0.00    -0.034 C 
ATOM     64  C   UNL A   1      41.503  29.673  30.242  1.00  0.00    -0.036 A 
ATOM     65  N   UNL A   1      42.982  28.035  30.386  1.00  0.00    -0.354 N 
ATOM     66  C   UNL A   1      41.586  24.109  27.790  1.00  0.00     0.074 A 
ATOM     67  C   UNL A   1      40.501  24.520  26.955  1.00  0.00    -0.034 C 
ATOM     68  H   UNL A   1      39.410  26.344  26.805  1.00  0.00     0.065 H 
ATOM     69  C   UNL A   1      42.470  30.098  31.082  1.00  0.00    -0.036 A 
ATOM     70  H   UNL A   1      40.692  30.242  29.950  1.00  0.00     0.065 H 
ATOM     71  C   UNL A   1      43.454  29.051  31.264  1.00  0.00     0.049 A 
ATOM     72  H   UNL A   1      43.491  27.212  30.211  1.00  0.00     0.167 HD
ATOM     73  C   UNL A   1      42.428  23.038  27.677  1.00  0.00     0.037 A 
ATOM     74  H   UNL A   1      40.064  23.936  26.225  1.00  0.00     0.065 H 
ATOM     75  H   UNL A   1      42.503  31.029  31.529  1.00  0.00     0.065 H 
ATOM     76  C   UNL A   1      44.532  29.028  32.113  1.00  0.00     0.037 A 
ATOM     77  C   UNL A   1      43.403  23.086  28.710  1.00  0.00     0.049 A 
ATOM     78  C   UNL A   1      45.255  27.794  31.775  1.00  0.00     0.074 A 
ATOM     79  C   UNL A   1      43.318  22.846  30.056  1.00  0.00    -0.036 A 
ATOM     80  N   UNL A   1      44.560  23.772  28.441  1.00  0.00    -0.354 N 
ATOM     81  N   UNL A   1      45.951  27.620  30.691  1.00  0.00    -0.248 NA
ATOM     82  C   UNL A   1      45.128  26.638  32.671  1.00  0.00    -0.034 C 
ATOM     83  C   UNL A   1      44.176  23.815  30.608  1.00  0.00    -0.036 A 
ATOM     84  H   UNL A   1      42.760  22.129  30.545  1.00  0.00     0.065 H 
ATOM     85  C   UNL A   1      44.912  24.432  29.590  1.00  0.00     0.049 A 
ATOM     86  H   UNL A   1      45.046  23.786  27.586  1.00  0.00     0.167 HD
ATOM     87  C   UNL A   1      46.041  26.253  30.629  1.00  0.00     0.074 A 
ATOM     88  C   UNL A   1      45.830  25.753  31.969  1.00  0.00    -0.034 C 
ATOM     89  H   UNL A   1      44.641  26.542  33.575  1.00  0.00     0.065 H 
ATOM     90  H   UNL A   1      44.252  24.038  31.613  1.00  0.00     0.065 H 
ATOM     91  C   UNL A   1      45.715  25.623  29.472  1.00  0.00     0.037 A 
ATOM     92  H   UNL A   1      46.173  24.848  32.327  1.00  0.00     0.065 H 
BRANCH  73  93
ATOM     93  C   UNL A   1      42.635  22.001  26.606  1.00  0.00     0.064 A 
ATOM     94  C   UNL A   1      43.658  22.072  25.653  1.00  0.00     0.173 A 
ATOM     95  C   UNL A   1      42.027  20.729  26.773  1.00  0.00     0.173 A 
ATOM     96  F   UNL A   1      44.311  23.218  25.423  1.00  0.00    -0.203 F 
ATOM     97  C   UNL A   1      44.106  20.927  24.982  1.00  0.00     0.198 A 
ATOM     98  C   UNL A   1      42.508  19.585  26.140  1.00  0.00     0.198 A 
ATOM     99  F   UNL A   1      41.000  20.564  27.624  1.00  0.00    -0.203 F 
ATOM    100  F   UNL A   1      45.126  21.025  24.118  1.00  0.00    -0.200 F 
ATOM    101  C   UNL A   1      43.563  19.683  25.257  1.00  0.00     0.200 A 
ATOM    102  F   UNL A   1      41.992  18.386  26.444  1.00  0.00    -0.200 F 
ATOM    103  F   UNL A   1      44.078  18.579  24.699  1.00  0.00    -0.200 F 
ENDBRANCH  73  93
BRANCH  76 104
ATOM    104  C   UNL A   1      45.080  29.818  33.289  1.00  0.00     0.064 A 
ATOM    105  C   UNL A   1      44.272  30.007  34.451  1.00  0.00     0.173 A 
ATOM    106  C   UNL A   1      46.290  30.520  33.324  1.00  0.00     0.173 A 
ATOM    107  F   UNL A   1      43.172  29.276  34.672  1.00  0.00    -0.203 F 
ATOM    108  C   UNL A   1      44.538  30.963  35.432  1.00  0.00     0.198 A 
ATOM    109  C   UNL A   1      46.591  31.439  34.349  1.00  0.00     0.198 A 
ATOM    110  F   UNL A   1      47.223  30.340  32.385  1.00  0.00    -0.203 F 
ATOM    111  F   UNL A   1      43.648  31.175  36.412  1.00  0.00    -0.200 F 
ATOM    112  C   UNL A   1      45.693  31.699  35.369  1.00  0.00     0.200 A 
ATOM    113  F   UNL A   1      47.759  32.098  34.328  1.00  0.00    -0.200 F 
ATOM    114  F   UNL A   1      45.943  32.641  36.289  1.00  0.00    -0.200 F 
ENDBRANCH  76 104
BRANCH  91 115
ATOM    115  C   UNL A   1      45.900  26.469  28.229  1.00  0.00     0.064 A 
ATOM    116  C   UNL A   1      44.845  27.004  27.471  1.00  0.00     0.173 A 
ATOM    117  C   UNL A   1      47.193  26.849  27.838  1.00  0.00     0.173 A 
ATOM    118  F   UNL A   1      43.581  26.705  27.758  1.00  0.00    -0.203 F 
ATOM    119  C   UNL A   1      45.060  27.864  26.391  1.00  0.00     0.198 A 
ATOM    120  C   UNL A   1      47.412  27.714  26.762  1.00  0.00     0.198 A 
ATOM    121  F   UNL A   1      48.257  26.373  28.502  1.00  0.00    -0.203 F 
ATOM    122  F   UNL A   1      44.016  28.336  25.690  1.00  0.00    -0.200 F 
ATOM    123  C   UNL A   1      46.346  28.220  26.038  1.00  0.00     0.200 A 
ATOM    124  F   UNL A   1      48.664  28.047  26.420  1.00  0.00    -0.200 F 
ATOM    125  F   UNL A   1      46.558  29.035  24.995  1.00  0.00    -0.200 F 
ENDBRANCH  91 115
ENDBRANCH  56  59
ENDBRANCH  46  49
ENDBRANCH  42  45
ENDBRANCH  39  42
ENDBRANCH  36  39
ENDBRANCH   1  36
TORSDOF 15
ENDMDL
MODEL 2
REMARK VINA RESULT:     -12.1      1.425      1.853
REMARK SMILES O=C(Cc1ccn(-c2ccccc2F)c1)NCCCCCCNC(=O)c1ccc(-c2c3nc(c(-c4c(F)c(F)c(F)c(F)c4F)c4ccc([nH]4)c(-c4c(F)c(F)c(F)c(F)c4F)c4nc(c(-c5c(F)c(F)c(F)c(F)c5F)c5ccc2[nH]5)C=C4)C=C3)cc1
REMARK SMILES IDX 19 1 18 4 17 7 16 10 1 11 2 12 3 14 4 17 5 18 15 19 6 20
REMARK SMILES IDX 7 22 8 25 9 26 13 27 10 28 12 30 14 31 11 32 20 36 21 39
REMARK SMILES IDX 22 42 23 45 24 46 25 48 26 49 27 50 88 51 28 52 87 54 29 56
REMARK SMILES IDX 30 59 31 60 81 61 32 62 86 63 80 64 82 65 33 66 85 67 79 69
REMARK SMILES IDX 78 71 34 73 66 76 46 77 65 78 47 79 50 80 64 81 83 82 48 83
REMARK SMILES IDX 49 85 63 87 84 88 51 91 35 93 36 94 44 95 37 96 38 97 42 98
REMARK SMILES IDX 45 99 39 100 40 101 43 102 41 103 67 104 68 105 76 106
REMARK SMILES IDX 69 107 70 108 74 109 77 110 71 111 72 112 75 113 73 114
REMARK SMILES IDX 52 115 53 116 61 117 54 118 55 119 59 120 62 121 56 122
REMARK SMILES IDX 57 123 60 124 58 125
REMARK H PARENT 19 2 19 3 18 5 18 6 17 8 17 9 16 13 3 15 3 16 5 21 15 23 6 24
REMARK H PARENT 9 29 10 33 12 34 11 35 20 37 20 38 21 40 21 41 22 43 22 44
REMARK H PARENT 23 47 27 53 88 55 28 57 87 58 86 68 80 70 82 72 85 74 79 75
REMARK H PARENT 47 84 50 86 83 89 48 90 84 92
REMARK Flexibility Score: inf
ROOT
ATOM      1  C   UNL A   1      31.440  28.426  26.210  1.00  0.00    -0.052 C 
ATOM      2  H   UNL A   1      30.631  27.850  25.812  1.00  0.00     0.027 H 
ATOM      3  H   UNL A   1      31.327  28.664  27.248  1.00  0.00     0.027 H 
ENDROOT
BRANCH   1   4
ATOM      4  C   UNL A   1      31.477  29.770  25.470  1.00  0.00    -0.036 C 
ATOM      5  H   UNL A   1      31.058  30.516  26.112  1.00  0.00     0.028 H 
ATOM      6  H   UNL A   1      32.502  29.955  25.226  1.00  0.00     0.028 H 
BRANCH   4   7
ATOM      7  C   UNL A   1      30.705  29.788  24.150  1.00  0.00     0.017 C 
ATOM      8  H   UNL A   1      29.671  29.600  24.349  1.00  0.00     0.049 H 
ATOM      9  H   UNL A   1      30.836  30.748  23.696  1.00  0.00     0.049 H 
BRANCH   7  10
ATOM     10  N   UNL A   1      31.200  28.782  23.238  1.00  0.00    -0.356 N 
ATOM     11  O   UNL A   1      29.232  27.613  23.059  1.00  0.00    -0.275 OA
ATOM     12  C   UNL A   1      30.416  27.753  22.761  1.00  0.00     0.224 C 
ATOM     13  H   UNL A   1      32.137  28.834  22.943  1.00  0.00     0.163 HD
BRANCH  12  14
ATOM     14  C   UNL A   1      31.162  26.726  21.927  1.00  0.00     0.053 C 
ATOM     15  H   UNL A   1      31.914  27.233  21.361  1.00  0.00     0.042 H 
ATOM     16  H   UNL A   1      30.434  26.245  21.307  1.00  0.00     0.042 H 
BRANCH  14  17
ATOM     17  C   UNL A   1      31.823  25.651  22.732  1.00  0.00    -0.021 A 
ATOM     18  C   UNL A   1      31.211  24.482  23.256  1.00  0.00    -0.040 A 
ATOM     19  C   UNL A   1      33.160  25.578  23.077  1.00  0.00     0.013 A 
ATOM     20  C   UNL A   1      32.205  23.708  23.815  1.00  0.00     0.009 A 
ATOM     21  H   UNL A   1      30.206  24.253  23.224  1.00  0.00     0.064 H 
ATOM     22  N   UNL A   1      33.408  24.374  23.702  1.00  0.00    -0.321 N 
ATOM     23  H   UNL A   1      33.864  26.311  22.895  1.00  0.00     0.083 H 
ATOM     24  H   UNL A   1      32.071  22.781  24.249  1.00  0.00     0.082 H 
BRANCH  22  25
ATOM     25  C   UNL A   1      34.674  23.880  24.093  1.00  0.00     0.081 A 
ATOM     26  C   UNL A   1      35.446  23.146  23.182  1.00  0.00    -0.035 A 
ATOM     27  C   UNL A   1      35.177  24.144  25.368  1.00  0.00     0.147 A 
ATOM     28  C   UNL A   1      36.723  22.711  23.547  1.00  0.00    -0.060 A 
ATOM     29  H   UNL A   1      35.072  22.927  22.245  1.00  0.00     0.065 H 
ATOM     30  C   UNL A   1      36.434  23.675  25.743  1.00  0.00    -0.024 A 
ATOM     31  F   UNL A   1      34.444  24.789  26.287  1.00  0.00    -0.205 F 
ATOM     32  C   UNL A   1      37.213  22.969  24.828  1.00  0.00    -0.059 A 
ATOM     33  H   UNL A   1      37.305  22.197  22.867  1.00  0.00     0.062 H 
ATOM     34  H   UNL A   1      36.788  23.850  26.697  1.00  0.00     0.065 H 
ATOM     35  H   UNL A   1      38.152  22.636  25.098  1.00  0.00     0.062 H 
ENDBRANCH  22  25
ENDBRANCH  14  17
ENDBRANCH  12  14
ENDBRANCH   7  10
ENDBRANCH   4   7
ENDBRANCH   1   4
BRANCH   1  36
ATOM     36  C   UNL A   1      32.717  27.584  26.106  1.00  0.00    -0.052 C 
ATOM     37  H   UNL A   1      32.609  26.920  25.273  1.00  0.00     0.027 H 
ATOM     38  H   UNL A   1      32.818  27.080  27.045  1.00  0.00     0.027 H 
BRANCH  36  39
ATOM     39  C   UNL A   1      34.014  28.381  25.911  1.00  0.00    -0.036 C 
ATOM     40  H   UNL A   1      33.773  29.305  25.429  1.00  0.00     0.028 H 
ATOM     41  H   UNL A   1      34.669  27.771  25.324  1.00  0.00     0.028 H 
BRANCH  39  42
ATOM     42  C   UNL A   1      34.750  28.695  27.214  1.00  0.00     0.018 C 
ATOM     43  H   UNL A   1      35.594  28.044  27.306  1.00  0.00     0.049 H 
ATOM     44  H   UNL A   1      34.075  28.549  28.031  1.00  0.00     0.049 H 
BRANCH  42  45
ATOM     45  N   UNL A   1      35.209  30.073  27.230  1.00  0.00    -0.352 N 
ATOM     46  C   UNL A   1      36.344  30.622  27.769  1.00  0.00     0.251 C 
ATOM     47  H   UNL A   1      34.610  30.715  26.784  1.00  0.00     0.163 HD
ATOM     48  O   UNL A   1      36.372  31.824  28.004  1.00  0.00    -0.269 OA
BRANCH  46  49
ATOM     49  C   UNL A   1      37.531  29.798  28.082  1.00  0.00     0.039 A 
ATOM     50  C   UNL A   1      38.541  29.719  27.114  1.00  0.00    -0.049 A 
ATOM     51  C   UNL A   1      37.612  29.024  29.246  1.00  0.00    -0.049 A 
ATOM     52  C   UNL A   1      39.654  28.916  27.333  1.00  0.00    -0.053 A 
ATOM     53  H   UNL A   1      38.458  30.257  26.237  1.00  0.00     0.063 H 
ATOM     54  C   UNL A   1      38.735  28.235  29.481  1.00  0.00    -0.053 A 
ATOM     55  H   UNL A   1      36.839  29.039  29.930  1.00  0.00     0.063 H 
ATOM     56  C   UNL A   1      39.763  28.198  28.531  1.00  0.00    -0.014 A 
ATOM     57  H   UNL A   1      40.396  28.849  26.619  1.00  0.00     0.063 H 
ATOM     58  H   UNL A   1      38.809  27.683  30.349  1.00  0.00     0.063 H 
BRANCH  56  59
ATOM     59  C   UNL A   1      41.060  27.564  28.858  1.00  0.00     0.031 A 
ATOM     60  C   UNL A   1      41.130  26.116  28.318  1.00  0.00     0.074 A 
ATOM     61  C   UNL A   1      41.950  28.317  29.574  1.00  0.00     0.049 A 
ATOM     62  N   UNL A   1      41.877  25.118  28.683  1.00  0.00    -0.248 NA
ATOM     63  C   UNL A   1      40.195  25.700  27.232  1.00  0.00    -0.034 C 
ATOM     64  C   UNL A   1      41.731  29.727  29.962  1.00  0.00    -0.036 A 
ATOM     65  N   UNL A   1      43.197  28.078  30.124  1.00  0.00    -0.354 N 
ATOM     66  C   UNL A   1      41.647  24.050  27.783  1.00  0.00     0.074 A 
ATOM     67  C   UNL A   1      40.532  24.434  26.976  1.00  0.00    -0.034 C 
ATOM     68  H   UNL A   1      39.457  26.263  26.782  1.00  0.00     0.065 H 
ATOM     69  C   UNL A   1      42.738  30.179  30.739  1.00  0.00    -0.036 A 
ATOM     70  H   UNL A   1      40.915  30.292  29.677  1.00  0.00     0.065 H 
ATOM     71  C   UNL A   1      43.717  29.129  30.931  1.00  0.00     0.049 A 
ATOM     72  H   UNL A   1      43.688  27.240  29.968  1.00  0.00     0.167 HD
ATOM     73  C   UNL A   1      42.472  22.963  27.688  1.00  0.00     0.037 A 
ATOM     74  H   UNL A   1      40.058  23.822  26.294  1.00  0.00     0.065 H 
ATOM     75  H   UNL A   1      42.800  31.129  31.138  1.00  0.00     0.065 H 
ATOM     76  C   UNL A   1      44.830  29.133  31.733  1.00  0.00     0.037 A 
ATOM     77  C   UNL A   1      43.490  23.048  28.675  1.00  0.00     0.049 A 
ATOM     78  C   UNL A   1      45.524  27.874  31.426  1.00  0.00     0.074 A 
ATOM     79  C   UNL A   1      43.460  22.875  30.033  1.00  0.00    -0.036 A 
ATOM     80  N   UNL A   1      44.642  23.705  28.325  1.00  0.00    -0.354 N 
ATOM     81  N   UNL A   1      46.171  27.639  30.324  1.00  0.00    -0.248 NA
ATOM     82  C   UNL A   1      45.423  26.765  32.381  1.00  0.00    -0.034 C 
ATOM     83  C   UNL A   1      44.352  23.858  30.501  1.00  0.00    -0.036 A 
ATOM     84  H   UNL A   1      42.916  22.190  30.580  1.00  0.00     0.065 H 
ATOM     85  C   UNL A   1      45.051  24.415  29.424  1.00  0.00     0.049 A 
ATOM     86  H   UNL A   1      45.091  23.672  27.450  1.00  0.00     0.167 HD
ATOM     87  C   UNL A   1      46.242  26.269  30.324  1.00  0.00     0.074 A 
ATOM     88  C   UNL A   1      46.084  25.838  31.695  1.00  0.00    -0.034 C 
ATOM     89  H   UNL A   1      44.973  26.718  33.309  1.00  0.00     0.065 H 
ATOM     90  H   UNL A   1      44.473  24.128  31.490  1.00  0.00     0.065 H 
ATOM     91  C   UNL A   1      45.861  25.588  29.214  1.00  0.00     0.037 A 
ATOM     92  H   UNL A   1      46.432  24.946  32.082  1.00  0.00     0.065 H 
BRANCH  73  93
ATOM     93  C   UNL A   1      42.621  21.874  26.660  1.00  0.00     0.064 A 
ATOM     94  C   UNL A   1      43.530  21.936  25.598  1.00  0.00     0.173 A 
ATOM     95  C   UNL A   1      42.107  20.586  26.965  1.00  0.00     0.173 A 
ATOM     96  F   UNL A   1      44.089  23.097  25.234  1.00  0.00    -0.203 F 
ATOM     97  C   UNL A   1      43.968  20.776  24.948  1.00  0.00     0.198 A 
ATOM     98  C   UNL A   1      42.582  19.430  26.350  1.00  0.00     0.198 A 
ATOM     99  F   UNL A   1      41.189  20.422  27.933  1.00  0.00    -0.203 F 
ATOM    100  F   UNL A   1      44.882  20.870  23.972  1.00  0.00    -0.200 F 
ATOM    101  C   UNL A   1      43.529  19.525  25.351  1.00  0.00     0.200 A 
ATOM    102  F   UNL A   1      42.170  18.227  26.776  1.00  0.00    -0.200 F 
ATOM    103  F   UNL A   1      44.043  18.415  24.803  1.00  0.00    -0.200 F 
ENDBRANCH  73  93
BRANCH  76 104
ATOM    104  C   UNL A   1      45.437  29.971  32.845  1.00  0.00     0.064 A 
ATOM    105  C   UNL A   1      44.631  30.355  33.961  1.00  0.00     0.173 A 
ATOM    106  C   UNL A   1      46.713  30.544  32.849  1.00  0.00     0.173 A 
ATOM    107  F   UNL A   1      43.456  29.766  34.217  1.00  0.00    -0.203 F 
ATOM    108  C   UNL A   1      44.979  31.368  34.855  1.00  0.00     0.198 A 
ATOM    109  C   UNL A   1      47.091  31.521  33.792  1.00  0.00     0.198 A 
ATOM    110  F   UNL A   1      47.640  30.178  31.958  1.00  0.00    -0.203 F 
ATOM    111  F   UNL A   1      44.098  31.765  35.784  1.00  0.00    -0.200 F 
ATOM    112  C   UNL A   1      46.206  31.971  34.756  1.00  0.00     0.200 A 
ATOM    113  F   UNL A   1      48.323  32.050  33.742  1.00  0.00    -0.200 F 
ATOM    114  F   UNL A   1      46.538  32.966  35.591  1.00  0.00    -0.200 F 
ENDBRANCH  76 104
BRANCH  91 115
ATOM    115  C   UNL A   1      46.002  26.371  27.925  1.00  0.00     0.064 A 
ATOM    116  C   UNL A   1      44.922  26.879  27.185  1.00  0.00     0.173 A 
ATOM    117  C   UNL A   1      47.281  26.719  27.465  1.00  0.00     0.173 A 
ATOM    118  F   UNL A   1      43.668  26.606  27.536  1.00  0.00    -0.203 F 
ATOM    119  C   UNL A   1      45.099  27.683  26.055  1.00  0.00     0.198 A 
ATOM    120  C   UNL A   1      47.463  27.528  26.339  1.00  0.00     0.198 A 
ATOM    121  F   UNL A   1      48.367  26.266  28.108  1.00  0.00    -0.203 F 
ATOM    122  F   UNL A   1      44.032  28.130  25.374  1.00  0.00    -0.200 F 
ATOM    123  C   UNL A   1      46.372  28.009  25.634  1.00  0.00     0.200 A 
ATOM    124  F   UNL A   1      48.703  27.832  25.932  1.00  0.00    -0.200 F 
ATOM    125  F   UNL A   1      46.548  28.770  24.545  1.00  0.00    -0.200 F 
ENDBRANCH  91 115
ENDBRANCH  56  59
ENDBRANCH  46  49
ENDBRANCH  42  45
ENDBRANCH  39  42
ENDBRANCH  36  39
ENDBRANCH   1  36
TORSDOF 15
ENDMDL
MODEL 3
REMARK VINA RESULT:     -11.9      2.421      4.546
REMARK SMILES O=C(Cc1ccn(-c2ccccc2F)c1)NCCCCCCNC(=O)c1ccc(-c2c3nc(c(-c4c(F)c(F)c(F)c(F)c4F)c4ccc([nH]4)c(-c4c(F)c(F)c(F)c(F)c4F)c4nc(c(-c5c(F)c(F)c(F)c(F)c5F)c5ccc2[nH]5)C=C4)C=C3)cc1
REMARK SMILES IDX 19 1 18 4 17 7 16 10 1 11 2 12 3 14 4 17 5 18 15 19 6 20
REMARK SMILES IDX 7 22 8 25 9 26 13 27 10 28 12 30 14 31 11 32 20 36 21 39
REMARK SMILES IDX 22 42 23 45 24 46 25 48 26 49 27 50 88 51 28 52 87 54 29 56
REMARK SMILES IDX 30 59 31 60 81 61 32 62 86 63 80 64 82 65 33 66 85 67 79 69
REMARK SMILES IDX 78 71 34 73 66 76 46 77 65 78 47 79 50 80 64 81 83 82 48 83
REMARK SMILES IDX 49 85 63 87 84 88 51 91 35 93 36 94 44 95 37 96 38 97 42 98
REMARK SMILES IDX 45 99 39 100 40 101 43 102 41 103 67 104 68 105 76 106
REMARK SMILES IDX 69 107 70 108 74 109 77 110 71 111 72 112 75 113 73 114
REMARK SMILES IDX 52 115 53 116 61 117 54 118 55 119 59 120 62 121 56 122
REMARK SMILES IDX 57 123 60 124 58 125
REMARK H PARENT 19 2 19 3 18 5 18 6 17 8 17 9 16 13 3 15 3 16 5 21 15 23 6 24
REMARK H PARENT 9 29 10 33 12 34 11 35 20 37 20 38 21 40 21 41 22 43 22 44
REMARK H PARENT 23 47 27 53 88 55 28 57 87 58 86 68 80 70 82 72 85 74 79 75
REMARK H PARENT 47 84 50 86 83 89 48 90 84 92
REMARK Flexibility Score: inf
ROOT
ATOM      1  C   UNL A   1      34.007  26.078  24.356  1.00  0.00    -0.052 C 
ATOM      2  H   UNL A   1      33.137  26.351  23.796  1.00  0.00     0.027 H 
ATOM      3  H   UNL A   1      34.919  26.463  23.949  1.00  0.00     0.027 H 
ENDROOT
BRANCH   1   4
ATOM      4  C   UNL A   1      34.138  24.549  24.315  1.00  0.00    -0.036 C 
ATOM      5  H   UNL A   1      34.634  24.281  23.406  1.00  0.00     0.028 H 
ATOM      6  H   UNL A   1      34.685  24.267  25.190  1.00  0.00     0.028 H 
BRANCH   4   7
ATOM      7  C   UNL A   1      32.808  23.797  24.373  1.00  0.00     0.017 C 
ATOM      8  H   UNL A   1      32.887  22.905  23.786  1.00  0.00     0.049 H 
ATOM      9  H   UNL A   1      32.598  23.561  25.395  1.00  0.00     0.049 H 
BRANCH   7  10
ATOM     10  N   UNL A   1      31.724  24.604  23.860  1.00  0.00    -0.356 N 
ATOM     11  O   UNL A   1      30.559  24.746  25.833  1.00  0.00    -0.275 OA
ATOM     12  C   UNL A   1      30.664  25.017  24.639  1.00  0.00     0.224 C 
ATOM     13  H   UNL A   1      31.744  24.872  22.914  1.00  0.00     0.163 HD
BRANCH  12  14
ATOM     14  C   UNL A   1      29.565  25.736  23.878  1.00  0.00     0.053 C 
ATOM     15  H   UNL A   1      28.632  25.529  24.359  1.00  0.00     0.042 H 
ATOM     16  H   UNL A   1      29.599  25.375  22.871  1.00  0.00     0.042 H 
BRANCH  14  17
ATOM     17  C   UNL A   1      29.740  27.221  23.812  1.00  0.00    -0.021 A 
ATOM     18  C   UNL A   1      30.816  27.975  24.351  1.00  0.00    -0.040 A 
ATOM     19  C   UNL A   1      28.910  28.127  23.178  1.00  0.00     0.013 A 
ATOM     20  C   UNL A   1      30.648  29.283  23.952  1.00  0.00     0.009 A 
ATOM     21  H   UNL A   1      31.585  27.610  24.934  1.00  0.00     0.064 H 
ATOM     22  N   UNL A   1      29.480  29.382  23.223  1.00  0.00    -0.321 N 
ATOM     23  H   UNL A   1      28.004  27.899  22.739  1.00  0.00     0.083 H 
ATOM     24  H   UNL A   1      31.290  30.062  24.163  1.00  0.00     0.082 H 
BRANCH  22  25
ATOM     25  C   UNL A   1      28.994  30.545  22.582  1.00  0.00     0.081 A 
ATOM     26  C   UNL A   1      28.519  30.466  21.265  1.00  0.00    -0.035 A 
ATOM     27  C   UNL A   1      28.952  31.765  23.259  1.00  0.00     0.147 A 
ATOM     28  C   UNL A   1      27.981  31.602  20.653  1.00  0.00    -0.060 A 
ATOM     29  H   UNL A   1      28.567  29.573  20.750  1.00  0.00     0.065 H 
ATOM     30  C   UNL A   1      28.452  32.904  22.633  1.00  0.00    -0.024 A 
ATOM     31  F   UNL A   1      29.453  31.893  24.496  1.00  0.00    -0.205 F 
ATOM     32  C   UNL A   1      27.954  32.820  21.334  1.00  0.00    -0.059 A 
ATOM     33  H   UNL A   1      27.602  31.539  19.695  1.00  0.00     0.062 H 
ATOM     34  H   UNL A   1      28.450  33.808  23.130  1.00  0.00     0.065 H 
ATOM     35  H   UNL A   1      27.567  33.659  20.874  1.00  0.00     0.062 H 
ENDBRANCH  22  25
ENDBRANCH  14  17
ENDBRANCH  12  14
ENDBRANCH   7  10
ENDBRANCH   4   7
ENDBRANCH   1   4
BRANCH   1  36
ATOM     36  C   UNL A   1      33.879  26.688  25.757  1.00  0.00    -0.052 C 
ATOM     37  H   UNL A   1      34.562  26.178  26.404  1.00  0.00     0.027 H 
ATOM     38  H   UNL A   1      32.853  26.570  26.039  1.00  0.00     0.027 H 
BRANCH  36  39
ATOM     39  C   UNL A   1      34.173  28.191  25.847  1.00  0.00    -0.036 C 
ATOM     40  H   UNL A   1      33.287  28.725  25.573  1.00  0.00     0.028 H 
ATOM     41  H   UNL A   1      34.991  28.389  25.187  1.00  0.00     0.028 H 
BRANCH  39  42
ATOM     42  C   UNL A   1      34.604  28.656  27.238  1.00  0.00     0.018 C 
ATOM     43  H   UNL A   1      35.397  28.030  27.587  1.00  0.00     0.049 H 
ATOM     44  H   UNL A   1      33.761  28.593  27.896  1.00  0.00     0.049 H 
BRANCH  42  45
ATOM     45  N   UNL A   1      35.064  30.034  27.205  1.00  0.00    -0.352 N 
ATOM     46  C   UNL A   1      36.202  30.599  27.720  1.00  0.00     0.251 C 
ATOM     47  H   UNL A   1      34.466  30.660  26.738  1.00  0.00     0.163 HD
ATOM     48  O   UNL A   1      36.233  31.808  27.913  1.00  0.00    -0.269 OA
BRANCH  46  49
ATOM     49  C   UNL A   1      37.389  29.784  28.059  1.00  0.00     0.039 A 
ATOM     50  C   UNL A   1      38.428  29.729  27.120  1.00  0.00    -0.049 A 
ATOM     51  C   UNL A   1      37.444  28.997  29.215  1.00  0.00    -0.049 A 
ATOM     52  C   UNL A   1      39.544  28.935  27.363  1.00  0.00    -0.053 A 
ATOM     53  H   UNL A   1      38.365  30.277  26.248  1.00  0.00     0.063 H 
ATOM     54  C   UNL A   1      38.569  28.218  29.474  1.00  0.00    -0.053 A 
ATOM     55  H   UNL A   1      36.651  28.995  29.875  1.00  0.00     0.063 H 
ATOM     56  C   UNL A   1      39.625  28.204  28.555  1.00  0.00    -0.014 A 
ATOM     57  H   UNL A   1      40.307  28.886  26.671  1.00  0.00     0.063 H 
ATOM     58  H   UNL A   1      38.623  27.656  30.337  1.00  0.00     0.063 H 
BRANCH  56  59
ATOM     59  C   UNL A   1      40.919  27.581  28.912  1.00  0.00     0.031 A 
ATOM     60  C   UNL A   1      41.024  26.142  28.353  1.00  0.00     0.074 A 
ATOM     61  C   UNL A   1      41.776  28.333  29.668  1.00  0.00     0.049 A 
ATOM     62  N   UNL A   1      41.772  25.148  28.726  1.00  0.00    -0.248 NA
ATOM     63  C   UNL A   1      40.129  25.732  27.232  1.00  0.00    -0.034 C 
ATOM     64  C   UNL A   1      41.528  29.734  30.071  1.00  0.00    -0.036 A 
ATOM     65  N   UNL A   1      43.008  28.100  30.253  1.00  0.00    -0.354 N 
ATOM     66  C   UNL A   1      41.583  24.091  27.803  1.00  0.00     0.074 A 
ATOM     67  C   UNL A   1      40.490  24.475  26.967  1.00  0.00    -0.034 C 
ATOM     68  H   UNL A   1      39.398  26.294  26.768  1.00  0.00     0.065 H 
ATOM     69  C   UNL A   1      42.504  30.186  30.886  1.00  0.00    -0.036 A 
ATOM     70  H   UNL A   1      40.714  30.293  29.769  1.00  0.00     0.065 H 
ATOM     71  C   UNL A   1      43.490  29.145  31.092  1.00  0.00     0.049 A 
ATOM     72  H   UNL A   1      43.515  27.271  30.100  1.00  0.00     0.167 HD
ATOM     73  C   UNL A   1      42.424  23.016  27.717  1.00  0.00     0.037 A 
ATOM     74  H   UNL A   1      40.044  23.868  26.261  1.00  0.00     0.065 H 
ATOM     75  H   UNL A   1      42.542  31.130  31.301  1.00  0.00     0.065 H 
ATOM     76  C   UNL A   1      44.577  29.149  31.929  1.00  0.00     0.037 A 
ATOM     77  C   UNL A   1      43.410  23.098  28.737  1.00  0.00     0.049 A 
ATOM     78  C   UNL A   1      45.296  27.904  31.625  1.00  0.00     0.074 A 
ATOM     79  C   UNL A   1      43.339  22.903  30.091  1.00  0.00    -0.036 A 
ATOM     80  N   UNL A   1      44.564  23.774  28.433  1.00  0.00    -0.354 N 
ATOM     81  N   UNL A   1      45.980  27.694  30.540  1.00  0.00    -0.248 NA
ATOM     82  C   UNL A   1      45.178  26.778  32.559  1.00  0.00    -0.034 C 
ATOM     83  C   UNL A   1      44.203  23.889  30.602  1.00  0.00    -0.036 A 
ATOM     84  H   UNL A   1      42.787  22.203  30.610  1.00  0.00     0.065 H 
ATOM     85  C   UNL A   1      44.929  24.472  29.556  1.00  0.00     0.049 A 
ATOM     86  H   UNL A   1      45.040  23.760  27.573  1.00  0.00     0.167 HD
ATOM     87  C   UNL A   1      46.069  26.325  30.522  1.00  0.00     0.074 A 
ATOM     88  C   UNL A   1      45.873  25.870  31.880  1.00  0.00    -0.034 C 
ATOM     89  H   UNL A   1      44.700  26.712  33.472  1.00  0.00     0.065 H 
ATOM     90  H   UNL A   1      44.290  24.145  31.598  1.00  0.00     0.065 H 
ATOM     91  C   UNL A   1      45.731  25.657  29.389  1.00  0.00     0.037 A 
ATOM     92  H   UNL A   1      46.219  24.977  32.264  1.00  0.00     0.065 H 
BRANCH  73  93
ATOM     93  C   UNL A   1      42.619  21.945  26.678  1.00  0.00     0.064 A 
ATOM     94  C   UNL A   1      43.560  22.035  25.646  1.00  0.00     0.173 A 
ATOM     95  C   UNL A   1      42.112  20.646  26.947  1.00  0.00     0.173 A 
ATOM     96  F   UNL A   1      44.115  23.208  25.317  1.00  0.00    -0.203 F 
ATOM     97  C   UNL A   1      44.033  20.890  24.992  1.00  0.00     0.198 A 
ATOM     98  C   UNL A   1      42.620  19.506  26.328  1.00  0.00     0.198 A 
ATOM     99  F   UNL A   1      41.166  20.456  27.882  1.00  0.00    -0.203 F 
ATOM    100  F   UNL A   1      44.976  21.011  24.047  1.00  0.00    -0.200 F 
ATOM    101  C   UNL A   1      43.597  19.628  25.362  1.00  0.00     0.200 A 
ATOM    102  F   UNL A   1      42.211  18.292  26.723  1.00  0.00    -0.200 F 
ATOM    103  F   UNL A   1      44.142  18.534  24.813  1.00  0.00    -0.200 F 
ENDBRANCH  73  93
BRANCH  76 104
ATOM    104  C   UNL A   1      45.138  29.976  33.073  1.00  0.00     0.064 A 
ATOM    105  C   UNL A   1      46.345  30.717  32.884  1.00  0.00     0.173 A 
ATOM    106  C   UNL A   1      44.661  30.004  34.388  1.00  0.00     0.173 A 
ATOM    107  F   UNL A   1      46.843  30.952  31.664  1.00  0.00    -0.203 F 
ATOM    108  C   UNL A   1      47.107  31.235  33.931  1.00  0.00     0.198 A 
ATOM    109  C   UNL A   1      45.398  30.585  35.439  1.00  0.00     0.198 A 
ATOM    110  F   UNL A   1      43.471  29.484  34.704  1.00  0.00    -0.203 F 
ATOM    111  F   UNL A   1      48.302  31.787  33.674  1.00  0.00    -0.200 F 
ATOM    112  C   UNL A   1      46.643  31.149  35.218  1.00  0.00     0.200 A 
ATOM    113  F   UNL A   1      44.903  30.570  36.685  1.00  0.00    -0.200 F 
ATOM    114  F   UNL A   1      47.381  31.616  36.234  1.00  0.00    -0.200 F 
ENDBRANCH  76 104
BRANCH  91 115
ATOM    115  C   UNL A   1      45.902  26.462  28.118  1.00  0.00     0.064 A 
ATOM    116  C   UNL A   1      44.839  26.958  27.345  1.00  0.00     0.173 A 
ATOM    117  C   UNL A   1      47.189  26.844  27.710  1.00  0.00     0.173 A 
ATOM    118  F   UNL A   1      43.579  26.654  27.646  1.00  0.00    -0.203 F 
ATOM    119  C   UNL A   1      45.041  27.782  26.234  1.00  0.00     0.198 A 
ATOM    120  C   UNL A   1      47.395  27.673  26.604  1.00  0.00     0.198 A 
ATOM    121  F   UNL A   1      48.260  26.404  28.387  1.00  0.00    -0.203 F 
ATOM    122  F   UNL A   1      43.990  28.218  25.521  1.00  0.00    -0.200 F 
ATOM    123  C   UNL A   1      46.322  28.141  25.866  1.00  0.00     0.200 A 
ATOM    124  F   UNL A   1      48.643  28.009  26.247  1.00  0.00    -0.200 F 
ATOM    125  F   UNL A   1      46.521  28.922  24.795  1.00  0.00    -0.200 F 
ENDBRANCH  91 115
ENDBRANCH  56  59
ENDBRANCH  46  49
ENDBRANCH  42  45
ENDBRANCH  39  42
ENDBRANCH  36  39
ENDBRANCH   1  36
TORSDOF 15
ENDMDL
MODEL 4
REMARK VINA RESULT:     -11.8      4.392      9.441
REMARK SMILES O=C(Cc1ccn(-c2ccccc2F)c1)NCCCCCCNC(=O)c1ccc(-c2c3nc(c(-c4c(F)c(F)c(F)c(F)c4F)c4ccc([nH]4)c(-c4c(F)c(F)c(F)c(F)c4F)c4nc(c(-c5c(F)c(F)c(F)c(F)c5F)c5ccc2[nH]5)C=C4)C=C3)cc1
REMARK SMILES IDX 19 1 18 4 17 7 16 10 1 11 2 12 3 14 4 17 5 18 15 19 6 20
REMARK SMILES IDX 7 22 8 25 9 26 13 27 10 28 12 30 14 31 11 32 20 36 21 39
REMARK SMILES IDX 22 42 23 45 24 46 25 48 26 49 27 50 88 51 28 52 87 54 29 56
REMARK SMILES IDX 30 59 31 60 81 61 32 62 86 63 80 64 82 65 33 66 85 67 79 69
REMARK SMILES IDX 78 71 34 73 66 76 46 77 65 78 47 79 50 80 64 81 83 82 48 83
REMARK SMILES IDX 49 85 63 87 84 88 51 91 35 93 36 94 44 95 37 96 38 97 42 98
REMARK SMILES IDX 45 99 39 100 40 101 43 102 41 103 67 104 68 105 76 106
REMARK SMILES IDX 69 107 70 108 74 109 77 110 71 111 72 112 75 113 73 114
REMARK SMILES IDX 52 115 53 116 61 117 54 118 55 119 59 120 62 121 56 122
REMARK SMILES IDX 57 123 60 124 58 125
REMARK H PARENT 19 2 19 3 18 5 18 6 17 8 17 9 16 13 3 15 3 16 5 21 15 23 6 24
REMARK H PARENT 9 29 10 33 12 34 11 35 20 37 20 38 21 40 21 41 22 43 22 44
REMARK H PARENT 23 47 27 53 88 55 28 57 87 58 86 68 80 70 82 72 85 74 79 75
REMARK H PARENT 47 84 50 86 83 89 48 90 84 92
REMARK Flexibility Score: inf
ROOT
ATOM      1  C   UNL A   1      36.304  20.913  25.047  1.00  0.00    -0.052 C 
ATOM      2  H   UNL A   1      35.835  20.655  24.120  1.00  0.00     0.027 H 
ATOM      3  H   UNL A   1      36.804  20.091  25.517  1.00  0.00     0.027 H 
ENDROOT
BRANCH   1   4
ATOM      4  C   UNL A   1      35.209  21.358  26.026  1.00  0.00    -0.036 C 
ATOM      5  H   UNL A   1      35.616  21.333  27.015  1.00  0.00     0.028 H 
ATOM      6  H   UNL A   1      34.908  22.338  25.721  1.00  0.00     0.028 H 
BRANCH   4   7
ATOM      7  C   UNL A   1      33.950  20.490  26.006  1.00  0.00     0.017 C 
ATOM      8  H   UNL A   1      33.861  20.028  25.044  1.00  0.00     0.049 H 
ATOM      9  H   UNL A   1      34.038  19.751  26.774  1.00  0.00     0.049 H 
BRANCH   7  10
ATOM     10  N   UNL A   1      32.765  21.276  26.263  1.00  0.00    -0.356 N 
ATOM     11  O   UNL A   1      31.974  21.254  24.108  1.00  0.00    -0.275 OA
ATOM     12  C   UNL A   1      31.859  21.609  25.279  1.00  0.00     0.224 C 
ATOM     13  H   UNL A   1      32.597  21.587  27.181  1.00  0.00     0.163 HD
BRANCH  12  14
ATOM     14  C   UNL A   1      30.759  22.555  25.728  1.00  0.00     0.053 C 
ATOM     15  H   UNL A   1      30.645  22.461  26.787  1.00  0.00     0.042 H 
ATOM     16  H   UNL A   1      29.875  22.276  25.192  1.00  0.00     0.042 H 
BRANCH  14  17
ATOM     17  C   UNL A   1      31.025  23.992  25.409  1.00  0.00    -0.021 A 
ATOM     18  C   UNL A   1      30.476  24.742  24.336  1.00  0.00    -0.040 A 
ATOM     19  C   UNL A   1      31.821  24.867  26.126  1.00  0.00     0.013 A 
ATOM     20  C   UNL A   1      30.882  26.049  24.490  1.00  0.00     0.009 A 
ATOM     21  H   UNL A   1      29.880  24.375  23.578  1.00  0.00     0.064 H 
ATOM     22  N   UNL A   1      31.705  26.135  25.595  1.00  0.00    -0.321 N 
ATOM     23  H   UNL A   1      32.411  24.611  26.934  1.00  0.00     0.083 H 
ATOM     24  H   UNL A   1      30.615  26.837  23.880  1.00  0.00     0.082 H 
BRANCH  22  25
ATOM     25  C   UNL A   1      32.268  27.318  26.125  1.00  0.00     0.081 A 
ATOM     26  C   UNL A   1      31.434  28.303  26.670  1.00  0.00    -0.035 A 
ATOM     27  C   UNL A   1      33.653  27.501  26.140  1.00  0.00     0.147 A 
ATOM     28  C   UNL A   1      31.994  29.444  27.251  1.00  0.00    -0.060 A 
ATOM     29  H   UNL A   1      30.408  28.186  26.643  1.00  0.00     0.065 H 
ATOM     30  C   UNL A   1      34.207  28.658  26.683  1.00  0.00    -0.024 A 
ATOM     31  F   UNL A   1      34.480  26.611  25.573  1.00  0.00    -0.205 F 
ATOM     32  C   UNL A   1      33.378  29.625  27.250  1.00  0.00    -0.059 A 
ATOM     33  H   UNL A   1      31.382  30.156  27.680  1.00  0.00     0.062 H 
ATOM     34  H   UNL A   1      35.229  28.799  26.665  1.00  0.00     0.065 H 
ATOM     35  H   UNL A   1      33.788  30.475  27.669  1.00  0.00     0.062 H 
ENDBRANCH  22  25
ENDBRANCH  14  17
ENDBRANCH  12  14
ENDBRANCH   7  10
ENDBRANCH   4   7
ENDBRANCH   1   4
BRANCH   1  36
ATOM     36  C   UNL A   1      37.388  21.956  24.756  1.00  0.00    -0.052 C 
ATOM     37  H   UNL A   1      37.759  21.782  23.767  1.00  0.00     0.027 H 
ATOM     38  H   UNL A   1      38.130  21.835  25.518  1.00  0.00     0.027 H 
BRANCH  36  39
ATOM     39  C   UNL A   1      36.930  23.419  24.838  1.00  0.00    -0.036 C 
ATOM     40  H   UNL A   1      35.862  23.441  24.785  1.00  0.00     0.028 H 
ATOM     41  H   UNL A   1      37.392  23.936  24.024  1.00  0.00     0.028 H 
BRANCH  39  42
ATOM     42  C   UNL A   1      37.362  24.132  26.120  1.00  0.00     0.018 C 
ATOM     43  H   UNL A   1      36.548  24.130  26.814  1.00  0.00     0.049 H 
ATOM     44  H   UNL A   1      37.643  25.135  25.876  1.00  0.00     0.049 H 
BRANCH  42  45
ATOM     45  N   UNL A   1      38.504  23.465  26.724  1.00  0.00    -0.352 N 
ATOM     46  C   UNL A   1      39.642  23.990  27.278  1.00  0.00     0.251 C 
ATOM     47  H   UNL A   1      38.452  22.483  26.737  1.00  0.00     0.163 HD
ATOM     48  O   UNL A   1      40.633  23.278  27.394  1.00  0.00    -0.269 OA
BRANCH  46  49
ATOM     49  C   UNL A   1      39.709  25.395  27.733  1.00  0.00     0.039 A 
ATOM     50  C   UNL A   1      39.278  25.678  29.036  1.00  0.00    -0.049 A 
ATOM     51  C   UNL A   1      40.075  26.437  26.873  1.00  0.00    -0.049 A 
ATOM     52  C   UNL A   1      39.267  26.990  29.496  1.00  0.00    -0.053 A 
ATOM     53  H   UNL A   1      38.967  24.912  29.654  1.00  0.00     0.063 H 
ATOM     54  C   UNL A   1      40.088  27.750  27.336  1.00  0.00    -0.053 A 
ATOM     55  H   UNL A   1      40.335  26.232  25.895  1.00  0.00     0.063 H 
ATOM     56  C   UNL A   1      39.702  28.021  28.654  1.00  0.00    -0.014 A 
ATOM     57  H   UNL A   1      38.943  27.202  30.453  1.00  0.00     0.063 H 
ATOM     58  H   UNL A   1      40.381  28.518  26.712  1.00  0.00     0.063 H 
BRANCH  56  59
ATOM     59  C   UNL A   1      39.931  29.361  29.240  1.00  0.00     0.031 A 
ATOM     60  C   UNL A   1      38.661  30.240  29.149  1.00  0.00     0.074 A 
ATOM     61  C   UNL A   1      41.183  29.611  29.732  1.00  0.00     0.049 A 
ATOM     62  N   UNL A   1      38.528  31.531  29.185  1.00  0.00    -0.248 NA
ATOM     63  C   UNL A   1      37.337  29.583  28.944  1.00  0.00    -0.034 C 
ATOM     64  C   UNL A   1      42.275  28.616  29.786  1.00  0.00    -0.036 A 
ATOM     65  N   UNL A   1      41.804  30.721  30.276  1.00  0.00    -0.354 N 
ATOM     66  C   UNL A   1      37.144  31.826  29.196  1.00  0.00     0.074 A 
ATOM     67  C   UNL A   1      36.465  30.593  28.947  1.00  0.00    -0.034 C 
ATOM     68  H   UNL A   1      37.141  28.576  28.827  1.00  0.00     0.065 H 
ATOM     69  C   UNL A   1      43.419  29.174  30.236  1.00  0.00    -0.036 A 
ATOM     70  H   UNL A   1      42.176  27.624  29.516  1.00  0.00     0.065 H 
ATOM     71  C   UNL A   1      43.197  30.574  30.531  1.00  0.00     0.049 A 
ATOM     72  H   UNL A   1      41.318  31.553  30.471  1.00  0.00     0.167 HD
ATOM     73  C   UNL A   1      36.645  33.055  29.529  1.00  0.00     0.037 A 
ATOM     74  H   UNL A   1      35.449  30.499  28.792  1.00  0.00     0.065 H 
ATOM     75  H   UNL A   1      44.317  28.677  30.351  1.00  0.00     0.065 H 
ATOM     76  C   UNL A   1      44.113  31.526  30.904  1.00  0.00     0.037 A 
ATOM     77  C   UNL A   1      37.717  33.962  29.750  1.00  0.00     0.049 A 
ATOM     78  C   UNL A   1      43.315  32.722  31.207  1.00  0.00     0.074 A 
ATOM     79  C   UNL A   1      38.585  34.576  28.886  1.00  0.00    -0.036 A 
ATOM     80  N   UNL A   1      38.214  34.038  31.026  1.00  0.00    -0.354 N 
ATOM     81  N   UNL A   1      42.562  32.860  32.257  1.00  0.00    -0.248 NA
ATOM     82  C   UNL A   1      43.288  33.815  30.228  1.00  0.00    -0.034 C 
ATOM     83  C   UNL A   1      39.800  34.569  29.595  1.00  0.00    -0.036 A 
ATOM     84  H   UNL A   1      38.394  34.951  27.944  1.00  0.00     0.065 H 
ATOM     85  C   UNL A   1      39.574  34.178  30.920  1.00  0.00     0.049 A 
ATOM     86  H   UNL A   1      37.693  33.999  31.860  1.00  0.00     0.167 HD
ATOM     87  C   UNL A   1      41.733  33.886  31.879  1.00  0.00     0.074 A 
ATOM     88  C   UNL A   1      42.412  34.613  30.830  1.00  0.00    -0.034 C 
ATOM     89  H   UNL A   1      43.797  33.930  29.338  1.00  0.00     0.065 H 
ATOM     90  H   UNL A   1      40.721  34.815  29.199  1.00  0.00     0.065 H 
ATOM     91  C   UNL A   1      40.392  33.735  32.021  1.00  0.00     0.037 A 
ATOM     92  H   UNL A   1      42.242  35.602  30.586  1.00  0.00     0.065 H 
BRANCH  73  93
ATOM     93  C   UNL A   1      35.268  33.542  29.893  1.00  0.00     0.064 A 
ATOM     94  C   UNL A   1      34.798  33.608  31.210  1.00  0.00     0.173 A 
ATOM     95  C   UNL A   1      34.548  34.304  28.936  1.00  0.00     0.173 A 
ATOM     96  F   UNL A   1      35.409  32.940  32.196  1.00  0.00    -0.203 F 
ATOM     97  C   UNL A   1      33.738  34.453  31.561  1.00  0.00     0.198 A 
ATOM     98  C   UNL A   1      33.528  35.180  29.297  1.00  0.00     0.198 A 
ATOM     99  F   UNL A   1      34.885  34.270  27.635  1.00  0.00    -0.203 F 
ATOM    100  F   UNL A   1      33.352  34.532  32.842  1.00  0.00    -0.200 F 
ATOM    101  C   UNL A   1      33.135  35.269  30.617  1.00  0.00     0.200 A 
ATOM    102  F   UNL A   1      32.979  35.985  28.376  1.00  0.00    -0.200 F 
ATOM    103  F   UNL A   1      32.205  36.160  30.984  1.00  0.00    -0.200 F 
ENDBRANCH  73  93
BRANCH  76 104
ATOM    104  C   UNL A   1      45.620  31.696  30.980  1.00  0.00     0.064 A 
ATOM    105  C   UNL A   1      46.422  31.410  29.834  1.00  0.00     0.173 A 
ATOM    106  C   UNL A   1      46.364  31.995  32.127  1.00  0.00     0.173 A 
ATOM    107  F   UNL A   1      45.887  31.284  28.612  1.00  0.00    -0.203 F 
ATOM    108  C   UNL A   1      47.804  31.222  29.883  1.00  0.00     0.198 A 
ATOM    109  C   UNL A   1      47.767  31.869  32.162  1.00  0.00     0.198 A 
ATOM    110  F   UNL A   1      45.770  32.424  33.245  1.00  0.00    -0.203 F 
ATOM    111  F   UNL A   1      48.458  30.810  28.787  1.00  0.00    -0.200 F 
ATOM    112  C   UNL A   1      48.477  31.430  31.059  1.00  0.00     0.200 A 
ATOM    113  F   UNL A   1      48.430  32.152  33.293  1.00  0.00    -0.200 F 
ATOM    114  F   UNL A   1      49.800  31.222  31.124  1.00  0.00    -0.200 F 
ENDBRANCH  76 104
BRANCH  91 115
ATOM    115  C   UNL A   1      39.986  32.776  33.120  1.00  0.00     0.064 A 
ATOM    116  C   UNL A   1      39.453  31.495  32.896  1.00  0.00     0.173 A 
ATOM    117  C   UNL A   1      40.238  33.111  34.459  1.00  0.00     0.173 A 
ATOM    118  F   UNL A   1      39.176  31.079  31.664  1.00  0.00    -0.203 F 
ATOM    119  C   UNL A   1      39.187  30.602  33.938  1.00  0.00     0.198 A 
ATOM    120  C   UNL A   1      39.979  32.219  35.503  1.00  0.00     0.198 A 
ATOM    121  F   UNL A   1      40.736  34.320  34.760  1.00  0.00    -0.203 F 
ATOM    122  F   UNL A   1      38.664  29.394  33.671  1.00  0.00    -0.200 F 
ATOM    123  C   UNL A   1      39.453  30.965  35.243  1.00  0.00     0.200 A 
ATOM    124  F   UNL A   1      40.231  32.584  36.768  1.00  0.00    -0.200 F 
ATOM    125  F   UNL A   1      39.189  30.117  36.246  1.00  0.00    -0.200 F 
ENDBRANCH  91 115
ENDBRANCH  56  59
ENDBRANCH  46  49
ENDBRANCH  42  45
ENDBRANCH  39  42
ENDBRANCH  36  39
ENDBRANCH   1  36
TORSDOF 15
ENDMDL
MODEL 5
REMARK VINA RESULT:     -11.8      4.540      9.520
REMARK SMILES O=C(Cc1ccn(-c2ccccc2F)c1)NCCCCCCNC(=O)c1ccc(-c2c3nc(c(-c4c(F)c(F)c(F)c(F)c4F)c4ccc([nH]4)c(-c4c(F)c(F)c(F)c(F)c4F)c4nc(c(-c5c(F)c(F)c(F)c(F)c5F)c5ccc2[nH]5)C=C4)C=C3)cc1
REMARK SMILES IDX 19 1 18 4 17 7 16 10 1 11 2 12 3 14 4 17 5 18 15 19 6 20
REMARK SMILES IDX 7 22 8 25 9 26 13 27 10 28 12 30 14 31 11 32 20 36 21 39
REMARK SMILES IDX 22 42 23 45 24 46 25 48 26 49 27 50 88 51 28 52 87 54 29 56
REMARK SMILES IDX 30 59 31 60 81 61 32 62 86 63 80 64 82 65 33 66 85 67 79 69
REMARK SMILES IDX 78 71 34 73 66 76 46 77 65 78 47 79 50 80 64 81 83 82 48 83
REMARK SMILES IDX 49 85 63 87 84 88 51 91 35 93 36 94 44 95 37 96 38 97 42 98
REMARK SMILES IDX 45 99 39 100 40 101 43 102 41 103 67 104 68 105 76 106
REMARK SMILES IDX 69 107 70 108 74 109 77 110 71 111 72 112 75 113 73 114
REMARK SMILES IDX 52 115 53 116 61 117 54 118 55 119 59 120 62 121 56 122
REMARK SMILES IDX 57 123 60 124 58 125
REMARK H PARENT 19 2 19 3 18 5 18 6 17 8 17 9 16 13 3 15 3 16 5 21 15 23 6 24
REMARK H PARENT 9 29 10 33 12 34 11 35 20 37 20 38 21 40 21 41 22 43 22 44
REMARK H PARENT 23 47 27 53 88 55 28 57 87 58 86 68 80 70 82 72 85 74 79 75
REMARK H PARENT 47 84 50 86 83 89 48 90 84 92
REMARK Flexibility Score: inf
ROOT
ATOM      1  C   UNL A   1      37.041  21.848  23.843  1.00  0.00    -0.052 C 
ATOM      2  H   UNL A   1      36.396  21.448  23.089  1.00  0.00     0.027 H 
ATOM      3  H   UNL A   1      38.007  22.130  23.476  1.00  0.00     0.027 H 
ENDROOT
BRANCH   1   4
ATOM      4  C   UNL A   1      37.290  20.751  24.887  1.00  0.00    -0.036 C 
ATOM      5  H   UNL A   1      38.234  20.295  24.673  1.00  0.00     0.028 H 
ATOM      6  H   UNL A   1      37.263  21.230  25.843  1.00  0.00     0.028 H 
BRANCH   4   7
ATOM      7  C   UNL A   1      36.226  19.654  24.919  1.00  0.00     0.017 C 
ATOM      8  H   UNL A   1      36.283  19.086  24.013  1.00  0.00     0.049 H 
ATOM      9  H   UNL A   1      36.410  19.031  25.769  1.00  0.00     0.049 H 
BRANCH   7  10
ATOM     10  N   UNL A   1      34.898  20.212  25.042  1.00  0.00    -0.356 N 
ATOM     11  O   UNL A   1      33.789  18.438  24.097  1.00  0.00    -0.275 OA
ATOM     12  C   UNL A   1      33.767  19.555  24.609  1.00  0.00     0.224 C 
ATOM     13  H   UNL A   1      34.798  21.100  25.454  1.00  0.00     0.163 HD
BRANCH  12  14
ATOM     14  C   UNL A   1      32.489  20.370  24.702  1.00  0.00     0.053 C 
ATOM     15  H   UNL A   1      32.078  20.241  25.681  1.00  0.00     0.042 H 
ATOM     16  H   UNL A   1      31.838  20.012  23.932  1.00  0.00     0.042 H 
BRANCH  14  17
ATOM     17  C   UNL A   1      32.682  21.834  24.462  1.00  0.00    -0.021 A 
ATOM     18  C   UNL A   1      32.802  22.482  23.205  1.00  0.00    -0.040 A 
ATOM     19  C   UNL A   1      32.735  22.832  25.419  1.00  0.00     0.013 A 
ATOM     20  C   UNL A   1      32.833  23.840  23.438  1.00  0.00     0.009 A 
ATOM     21  H   UNL A   1      32.855  22.021  22.284  1.00  0.00     0.064 H 
ATOM     22  N   UNL A   1      32.786  24.062  24.799  1.00  0.00    -0.321 N 
ATOM     23  H   UNL A   1      32.738  22.678  26.441  1.00  0.00     0.083 H 
ATOM     24  H   UNL A   1      32.885  24.572  22.712  1.00  0.00     0.082 H 
BRANCH  22  25
ATOM     25  C   UNL A   1      32.728  25.323  25.436  1.00  0.00     0.081 A 
ATOM     26  C   UNL A   1      33.852  26.160  25.425  1.00  0.00    -0.035 A 
ATOM     27  C   UNL A   1      31.551  25.757  26.048  1.00  0.00     0.147 A 
ATOM     28  C   UNL A   1      33.776  27.432  26.000  1.00  0.00    -0.060 A 
ATOM     29  H   UNL A   1      34.733  25.838  24.994  1.00  0.00     0.065 H 
ATOM     30  C   UNL A   1      31.490  27.009  26.655  1.00  0.00    -0.024 A 
ATOM     31  F   UNL A   1      30.475  24.961  26.133  1.00  0.00    -0.205 F 
ATOM     32  C   UNL A   1      32.599  27.852  26.621  1.00  0.00    -0.059 A 
ATOM     33  H   UNL A   1      34.593  28.061  25.965  1.00  0.00     0.062 H 
ATOM     34  H   UNL A   1      30.625  27.311  27.131  1.00  0.00     0.065 H 
ATOM     35  H   UNL A   1      32.551  28.787  27.055  1.00  0.00     0.062 H 
ENDBRANCH  22  25
ENDBRANCH  14  17
ENDBRANCH  12  14
ENDBRANCH   7  10
ENDBRANCH   4   7
ENDBRANCH   1   4
BRANCH   1  36
ATOM     36  C   UNL A   1      36.402  23.133  24.381  1.00  0.00    -0.052 C 
ATOM     37  H   UNL A   1      35.376  23.145  24.076  1.00  0.00     0.027 H 
ATOM     38  H   UNL A   1      36.977  23.942  23.978  1.00  0.00     0.027 H 
BRANCH  36  39
ATOM     39  C   UNL A   1      36.445  23.299  25.906  1.00  0.00    -0.036 C 
ATOM     40  H   UNL A   1      36.690  22.353  26.341  1.00  0.00     0.028 H 
ATOM     41  H   UNL A   1      35.482  23.653  26.208  1.00  0.00     0.028 H 
BRANCH  39  42
ATOM     42  C   UNL A   1      37.467  24.329  26.388  1.00  0.00     0.018 C 
ATOM     43  H   UNL A   1      37.023  24.933  27.151  1.00  0.00     0.049 H 
ATOM     44  H   UNL A   1      37.761  24.935  25.556  1.00  0.00     0.049 H 
BRANCH  42  45
ATOM     45  N   UNL A   1      38.648  23.675  26.926  1.00  0.00    -0.352 N 
ATOM     46  C   UNL A   1      39.791  24.212  27.457  1.00  0.00     0.251 C 
ATOM     47  H   UNL A   1      38.622  22.691  26.905  1.00  0.00     0.163 HD
ATOM     48  O   UNL A   1      40.804  23.524  27.511  1.00  0.00    -0.269 OA
BRANCH  46  49
ATOM     49  C   UNL A   1      39.836  25.602  27.959  1.00  0.00     0.039 A 
ATOM     50  C   UNL A   1      39.321  25.847  29.239  1.00  0.00    -0.049 A 
ATOM     51  C   UNL A   1      40.266  26.667  27.159  1.00  0.00    -0.049 A 
ATOM     52  C   UNL A   1      39.289  27.144  29.739  1.00  0.00    -0.053 A 
ATOM     53  H   UNL A   1      38.965  25.065  29.811  1.00  0.00     0.063 H 
ATOM     54  C   UNL A   1      40.256  27.965  27.663  1.00  0.00    -0.053 A 
ATOM     55  H   UNL A   1      40.589  26.490  26.195  1.00  0.00     0.063 H 
ATOM     56  C   UNL A   1      39.785  28.197  28.961  1.00  0.00    -0.014 A 
ATOM     57  H   UNL A   1      38.903  27.329  30.679  1.00  0.00     0.063 H 
ATOM     58  H   UNL A   1      40.595  28.749  27.085  1.00  0.00     0.063 H 
BRANCH  56  59
ATOM     59  C   UNL A   1      39.983  29.516  29.603  1.00  0.00     0.031 A 
ATOM     60  C   UNL A   1      38.732  30.412  29.446  1.00  0.00     0.074 A 
ATOM     61  C   UNL A   1      41.198  29.737  30.192  1.00  0.00     0.049 A 
ATOM     62  N   UNL A   1      38.610  31.703  29.512  1.00  0.00    -0.248 NA
ATOM     63  C   UNL A   1      37.421  29.777  29.125  1.00  0.00    -0.034 C 
ATOM     64  C   UNL A   1      42.274  28.727  30.296  1.00  0.00    -0.036 A 
ATOM     65  N   UNL A   1      41.789  30.823  30.814  1.00  0.00    -0.354 N 
ATOM     66  C   UNL A   1      37.231  32.015  29.432  1.00  0.00     0.074 A 
ATOM     67  C   UNL A   1      36.561  30.798  29.096  1.00  0.00    -0.034 C 
ATOM     68  H   UNL A   1      37.224  28.777  28.963  1.00  0.00     0.065 H 
ATOM     69  C   UNL A   1      43.387  29.258  30.845  1.00  0.00    -0.036 A 
ATOM     70  H   UNL A   1      42.186  27.746  29.989  1.00  0.00     0.065 H 
ATOM     71  C   UNL A   1      43.158  30.652  31.166  1.00  0.00     0.049 A 
ATOM     72  H   UNL A   1      41.297  31.654  30.999  1.00  0.00     0.167 HD
ATOM     73  C   UNL A   1      36.721  33.239  29.765  1.00  0.00     0.037 A 
ATOM     74  H   UNL A   1      35.558  30.720  28.864  1.00  0.00     0.065 H 
ATOM     75  H   UNL A   1      44.269  28.748  31.010  1.00  0.00     0.065 H 
ATOM     76  C   UNL A   1      44.052  31.581  31.634  1.00  0.00     0.037 A 
ATOM     77  C   UNL A   1      37.782  34.126  30.091  1.00  0.00     0.049 A 
ATOM     78  C   UNL A   1      43.246  32.777  31.914  1.00  0.00     0.074 A 
ATOM     79  C   UNL A   1      38.717  34.755  29.312  1.00  0.00    -0.036 A 
ATOM     80  N   UNL A   1      38.185  34.157  31.402  1.00  0.00    -0.354 N 
ATOM     81  N   UNL A   1      42.420  32.892  32.911  1.00  0.00    -0.248 NA
ATOM     82  C   UNL A   1      43.301  33.899  30.970  1.00  0.00    -0.034 C 
ATOM     83  C   UNL A   1      39.877  34.713  30.108  1.00  0.00    -0.036 A 
ATOM     84  H   UNL A   1      38.599  35.160  28.371  1.00  0.00     0.065 H 
ATOM     85  C   UNL A   1      39.551  34.285  31.400  1.00  0.00     0.049 A 
ATOM     86  H   UNL A   1      37.604  34.100  32.194  1.00  0.00     0.167 HD
ATOM     87  C   UNL A   1      41.630  33.938  32.505  1.00  0.00     0.074 A 
ATOM     88  C   UNL A   1      42.391  34.689  31.531  1.00  0.00    -0.034 C 
ATOM     89  H   UNL A   1      43.876  34.035  30.123  1.00  0.00     0.065 H 
ATOM     90  H   UNL A   1      40.826  34.960  29.787  1.00  0.00     0.065 H 
ATOM     91  C   UNL A   1      40.281  33.799  32.543  1.00  0.00     0.037 A 
ATOM     92  H   UNL A   1      42.249  35.686  31.306  1.00  0.00     0.065 H 
BRANCH  73  93
ATOM     93  C   UNL A   1      35.326  33.730  30.042  1.00  0.00     0.064 A 
ATOM     94  C   UNL A   1      34.783  33.822  31.329  1.00  0.00     0.173 A 
ATOM     95  C   UNL A   1      34.660  34.472  29.031  1.00  0.00     0.173 A 
ATOM     96  F   UNL A   1      35.339  33.176  32.361  1.00  0.00    -0.203 F 
ATOM     97  C   UNL A   1      33.705  34.673  31.603  1.00  0.00     0.198 A 
ATOM     98  C   UNL A   1      33.621  35.354  29.317  1.00  0.00     0.198 A 
ATOM     99  F   UNL A   1      35.068  34.412  27.752  1.00  0.00    -0.203 F 
ATOM    100  F   UNL A   1      33.248  34.777  32.859  1.00  0.00    -0.200 F 
ATOM    101  C   UNL A   1      33.155  35.468  30.611  1.00  0.00     0.200 A 
ATOM    102  F   UNL A   1      33.124  36.139  28.351  1.00  0.00    -0.200 F 
ATOM    103  F   UNL A   1      32.205  36.365  30.908  1.00  0.00    -0.200 F 
ENDBRANCH  73  93
BRANCH  76 104
ATOM    104  C   UNL A   1      45.551  31.731  31.825  1.00  0.00     0.064 A 
ATOM    105  C   UNL A   1      46.428  31.541  30.714  1.00  0.00     0.173 A 
ATOM    106  C   UNL A   1      46.217  31.920  33.041  1.00  0.00     0.173 A 
ATOM    107  F   UNL A   1      45.976  31.527  29.453  1.00  0.00    -0.203 F 
ATOM    108  C   UNL A   1      47.803  31.337  30.838  1.00  0.00     0.198 A 
ATOM    109  C   UNL A   1      47.614  31.780  33.158  1.00  0.00     0.198 A 
ATOM    110  F   UNL A   1      45.551  32.255  34.151  1.00  0.00    -0.203 F 
ATOM    111  F   UNL A   1      48.528  31.018  29.756  1.00  0.00    -0.200 F 
ATOM    112  C   UNL A   1      48.397  31.434  32.070  1.00  0.00     0.200 A 
ATOM    113  F   UNL A   1      48.202  31.956  34.351  1.00  0.00    -0.200 F 
ATOM    114  F   UNL A   1      49.711  31.211  32.205  1.00  0.00    -0.200 F 
ENDBRANCH  76 104
BRANCH  91 115
ATOM    115  C   UNL A   1      39.786  32.812  33.580  1.00  0.00     0.064 A 
ATOM    116  C   UNL A   1      39.798  33.045  34.965  1.00  0.00     0.173 A 
ATOM    117  C   UNL A   1      39.176  31.620  33.162  1.00  0.00     0.173 A 
ATOM    118  F   UNL A   1      40.355  34.145  35.465  1.00  0.00    -0.203 F 
ATOM    119  C   UNL A   1      39.238  32.149  35.880  1.00  0.00     0.198 A 
ATOM    120  C   UNL A   1      38.609  30.724  34.073  1.00  0.00     0.198 A 
ATOM    121  F   UNL A   1      39.132  31.315  31.856  1.00  0.00    -0.203 F 
ATOM    122  F   UNL A   1      39.289  32.413  37.196  1.00  0.00    -0.200 F 
ATOM    123  C   UNL A   1      38.641  30.988  35.432  1.00  0.00     0.200 A 
ATOM    124  F   UNL A   1      38.040  29.595  33.630  1.00  0.00    -0.200 F 
ATOM    125  F   UNL A   1      38.113  30.121  36.306  1.00  0.00    -0.200 F 
ENDBRANCH  91 115
ENDBRANCH  56  59
ENDBRANCH  46  49
ENDBRANCH  42  45
ENDBRANCH  39  42
ENDBRANCH  36  39
ENDBRANCH   1  36
TORSDOF 15
ENDMDL
MODEL 6
REMARK VINA RESULT:     -11.7      3.139      9.194
REMARK SMILES O=C(Cc1ccn(-c2ccccc2F)c1)NCCCCCCNC(=O)c1ccc(-c2c3nc(c(-c4c(F)c(F)c(F)c(F)c4F)c4ccc([nH]4)c(-c4c(F)c(F)c(F)c(F)c4F)c4nc(c(-c5c(F)c(F)c(F)c(F)c5F)c5ccc2[nH]5)C=C4)C=C3)cc1
REMARK SMILES IDX 19 1 18 4 17 7 16 10 1 11 2 12 3 14 4 17 5 18 15 19 6 20
REMARK SMILES IDX 7 22 8 25 9 26 13 27 10 28 12 30 14 31 11 32 20 36 21 39
REMARK SMILES IDX 22 42 23 45 24 46 25 48 26 49 27 50 88 51 28 52 87 54 29 56
REMARK SMILES IDX 30 59 31 60 81 61 32 62 86 63 80 64 82 65 33 66 85 67 79 69
REMARK SMILES IDX 78 71 34 73 66 76 46 77 65 78 47 79 50 80 64 81 83 82 48 83
REMARK SMILES IDX 49 85 63 87 84 88 51 91 35 93 36 94 44 95 37 96 38 97 42 98
REMARK SMILES IDX 45 99 39 100 40 101 43 102 41 103 67 104 68 105 76 106
REMARK SMILES IDX 69 107 70 108 74 109 77 110 71 111 72 112 75 113 73 114
REMARK SMILES IDX 52 115 53 116 61 117 54 118 55 119 59 120 62 121 56 122
REMARK SMILES IDX 57 123 60 124 58 125
REMARK H PARENT 19 2 19 3 18 5 18 6 17 8 17 9 16 13 3 15 3 16 5 21 15 23 6 24
REMARK H PARENT 9 29 10 33 12 34 11 35 20 37 20 38 21 40 21 41 22 43 22 44
REMARK H PARENT 23 47 27 53 88 55 28 57 87 58 86 68 80 70 82 72 85 74 79 75
REMARK H PARENT 47 84 50 86 83 89 48 90 84 92
REMARK Flexibility Score: inf
ROOT
ATOM      1  C   UNL A   1      33.998  25.401  25.751  1.00  0.00    -0.052 C 
ATOM      2  H   UNL A   1      34.148  25.392  24.692  1.00  0.00     0.027 H 
ATOM      3  H   UNL A   1      34.888  25.611  26.308  1.00  0.00     0.027 H 
ENDROOT
BRANCH   1   4
ATOM      4  C   UNL A   1      33.551  23.998  26.181  1.00  0.00    -0.036 C 
ATOM      5  H   UNL A   1      34.274  23.613  26.868  1.00  0.00     0.028 H 
ATOM      6  H   UNL A   1      32.578  24.107  26.613  1.00  0.00     0.028 H 
BRANCH   4   7
ATOM      7  C   UNL A   1      33.406  22.999  25.032  1.00  0.00     0.017 C 
ATOM      8  H   UNL A   1      34.366  22.579  24.813  1.00  0.00     0.049 H 
ATOM      9  H   UNL A   1      32.718  22.237  25.332  1.00  0.00     0.049 H 
BRANCH   7  10
ATOM     10  N   UNL A   1      32.889  23.637  23.842  1.00  0.00    -0.356 N 
ATOM     11  O   UNL A   1      34.838  23.538  22.634  1.00  0.00    -0.275 OA
ATOM     12  C   UNL A   1      33.657  23.867  22.721  1.00  0.00     0.224 C 
ATOM     13  H   UNL A   1      31.946  23.919  23.832  1.00  0.00     0.163 HD
BRANCH  12  14
ATOM     14  C   UNL A   1      32.965  24.673  21.636  1.00  0.00     0.053 C 
ATOM     15  H   UNL A   1      32.126  24.111  21.284  1.00  0.00     0.042 H 
ATOM     16  H   UNL A   1      33.693  24.849  20.872  1.00  0.00     0.042 H 
BRANCH  14  17
ATOM     17  C   UNL A   1      32.477  26.012  22.089  1.00  0.00    -0.021 A 
ATOM     18  C   UNL A   1      33.272  27.104  22.528  1.00  0.00    -0.040 A 
ATOM     19  C   UNL A   1      31.166  26.450  22.123  1.00  0.00     0.013 A 
ATOM     20  C   UNL A   1      32.432  28.178  22.725  1.00  0.00     0.009 A 
ATOM     21  H   UNL A   1      34.294  27.094  22.673  1.00  0.00     0.064 H 
ATOM     22  N   UNL A   1      31.135  27.784  22.470  1.00  0.00    -0.321 N 
ATOM     23  H   UNL A   1      30.337  25.867  21.921  1.00  0.00     0.083 H 
ATOM     24  H   UNL A   1      32.726  29.124  23.015  1.00  0.00     0.082 H 
BRANCH  22  25
ATOM     25  C   UNL A   1      29.992  28.616  22.493  1.00  0.00     0.081 A 
ATOM     26  C   UNL A   1      30.044  29.888  21.906  1.00  0.00    -0.035 A 
ATOM     27  C   UNL A   1      28.799  28.169  23.067  1.00  0.00     0.147 A 
ATOM     28  C   UNL A   1      28.896  30.685  21.874  1.00  0.00    -0.060 A 
ATOM     29  H   UNL A   1      30.928  30.234  21.500  1.00  0.00     0.065 H 
ATOM     30  C   UNL A   1      27.668  28.982  23.068  1.00  0.00    -0.024 A 
ATOM     31  F   UNL A   1      28.727  26.985  23.691  1.00  0.00    -0.205 F 
ATOM     32  C   UNL A   1      27.713  30.235  22.460  1.00  0.00    -0.059 A 
ATOM     33  H   UNL A   1      28.925  31.609  21.415  1.00  0.00     0.062 H 
ATOM     34  H   UNL A   1      26.798  28.656  23.519  1.00  0.00     0.065 H 
ATOM     35  H   UNL A   1      26.871  30.832  22.445  1.00  0.00     0.062 H 
ENDBRANCH  22  25
ENDBRANCH  14  17
ENDBRANCH  12  14
ENDBRANCH   7  10
ENDBRANCH   4   7
ENDBRANCH   1   4
BRANCH   1  36
ATOM     36  C   UNL A   1      33.017  26.532  26.080  1.00  0.00    -0.052 C 
ATOM     37  H   UNL A   1      32.456  26.243  26.944  1.00  0.00     0.027 H 
ATOM     38  H   UNL A   1      32.415  26.668  25.205  1.00  0.00     0.027 H 
BRANCH  36  39
ATOM     39  C   UNL A   1      33.660  27.896  26.368  1.00  0.00    -0.036 C 
ATOM     40  H   UNL A   1      33.461  28.544  25.539  1.00  0.00     0.028 H 
ATOM     41  H   UNL A   1      34.705  27.723  26.512  1.00  0.00     0.028 H 
BRANCH  39  42
ATOM     42  C   UNL A   1      33.141  28.569  27.639  1.00  0.00     0.018 C 
ATOM     43  H   UNL A   1      33.731  28.248  28.472  1.00  0.00     0.049 H 
ATOM     44  H   UNL A   1      32.117  28.293  27.779  1.00  0.00     0.049 H 
BRANCH  42  45
ATOM     45  N   UNL A   1      33.221  30.016  27.528  1.00  0.00    -0.352 N 
ATOM     46  C   UNL A   1      34.177  30.886  27.983  1.00  0.00     0.251 C 
ATOM     47  H   UNL A   1      32.470  30.437  27.052  1.00  0.00     0.163 HD
ATOM     48  O   UNL A   1      33.891  32.070  28.118  1.00  0.00    -0.269 OA
BRANCH  46  49
ATOM     49  C   UNL A   1      35.542  30.432  28.323  1.00  0.00     0.039 A 
ATOM     50  C   UNL A   1      36.464  30.304  27.275  1.00  0.00    -0.049 A 
ATOM     51  C   UNL A   1      35.891  30.028  29.616  1.00  0.00    -0.049 A 
ATOM     52  C   UNL A   1      37.746  29.829  27.530  1.00  0.00    -0.053 A 
ATOM     53  H   UNL A   1      36.192  30.562  26.314  1.00  0.00     0.063 H 
ATOM     54  C   UNL A   1      37.179  29.573  29.881  1.00  0.00    -0.053 A 
ATOM     55  H   UNL A   1      35.191  30.068  30.375  1.00  0.00     0.063 H 
ATOM     56  C   UNL A   1      38.111  29.493  28.839  1.00  0.00    -0.014 A 
ATOM     57  H   UNL A   1      38.425  29.726  26.759  1.00  0.00     0.063 H 
ATOM     58  H   UNL A   1      37.446  29.298  30.839  1.00  0.00     0.063 H 
BRANCH  56  59
ATOM     59  C   UNL A   1      39.540  29.243  29.131  1.00  0.00     0.031 A 
ATOM     60  C   UNL A   1      40.250  30.530  29.612  1.00  0.00     0.074 A 
ATOM     61  C   UNL A   1      39.997  27.970  28.920  1.00  0.00     0.049 A 
ATOM     62  N   UNL A   1      41.509  30.846  29.610  1.00  0.00    -0.248 NA
ATOM     63  C   UNL A   1      39.427  31.659  30.137  1.00  0.00    -0.034 C 
ATOM     64  C   UNL A   1      39.148  26.834  28.504  1.00  0.00    -0.036 A 
ATOM     65  N   UNL A   1      41.238  27.363  29.000  1.00  0.00    -0.354 N 
ATOM     66  C   UNL A   1      41.648  32.085  30.280  1.00  0.00     0.074 A 
ATOM     67  C   UNL A   1      40.325  32.581  30.494  1.00  0.00    -0.034 C 
ATOM     68  H   UNL A   1      38.400  31.714  30.210  1.00  0.00     0.065 H 
ATOM     69  C   UNL A   1      39.890  25.727  28.287  1.00  0.00    -0.036 A 
ATOM     70  H   UNL A   1      38.122  26.880  28.395  1.00  0.00     0.065 H 
ATOM     71  C   UNL A   1      41.285  26.015  28.544  1.00  0.00     0.049 A 
ATOM     72  H   UNL A   1      42.031  27.831  29.346  1.00  0.00     0.167 HD
ATOM     73  C   UNL A   1      42.851  32.565  30.721  1.00  0.00     0.037 A 
ATOM     74  H   UNL A   1      40.097  33.515  30.868  1.00  0.00     0.065 H 
ATOM     75  H   UNL A   1      39.518  24.813  27.981  1.00  0.00     0.065 H 
ATOM     76  C   UNL A   1      42.377  25.209  28.343  1.00  0.00     0.037 A 
ATOM     77  C   UNL A   1      43.893  31.689  30.314  1.00  0.00     0.049 A 
ATOM     78  C   UNL A   1      43.510  25.955  28.908  1.00  0.00     0.074 A 
ATOM     79  C   UNL A   1      44.462  31.456  29.091  1.00  0.00    -0.036 A 
ATOM     80  N   UNL A   1      44.213  30.664  31.168  1.00  0.00    -0.354 N 
ATOM     81  N   UNL A   1      43.719  26.127  30.179  1.00  0.00    -0.248 NA
ATOM     82  C   UNL A   1      44.435  26.630  27.990  1.00  0.00    -0.034 C 
ATOM     83  C   UNL A   1      44.696  30.068  29.105  1.00  0.00    -0.036 A 
ATOM     84  H   UNL A   1      44.669  32.133  28.340  1.00  0.00     0.065 H 
ATOM     85  C   UNL A   1      44.485  29.565  30.395  1.00  0.00     0.049 A 
ATOM     86  H   UNL A   1      44.242  30.710  32.151  1.00  0.00     0.167 HD
ATOM     87  C   UNL A   1      44.579  27.197  30.182  1.00  0.00     0.074 A 
ATOM     88  C   UNL A   1      45.212  27.234  28.883  1.00  0.00    -0.034 C 
ATOM     89  H   UNL A   1      44.471  26.634  26.958  1.00  0.00     0.065 H 
ATOM     90  H   UNL A   1      44.980  29.505  28.289  1.00  0.00     0.065 H 
ATOM     91  C   UNL A   1      44.305  28.260  30.979  1.00  0.00     0.037 A 
ATOM     92  H   UNL A   1      46.128  27.664  28.680  1.00  0.00     0.065 H 
BRANCH  73  93
ATOM     93  C   UNL A   1      43.231  33.662  31.679  1.00  0.00     0.064 A 
ATOM     94  C   UNL A   1      43.580  34.954  31.271  1.00  0.00     0.173 A 
ATOM     95  C   UNL A   1      42.876  33.514  33.046  1.00  0.00     0.173 A 
ATOM     96  F   UNL A   1      43.919  35.211  30.002  1.00  0.00    -0.203 F 
ATOM     97  C   UNL A   1      43.488  36.042  32.148  1.00  0.00     0.198 A 
ATOM     98  C   UNL A   1      42.738  34.605  33.901  1.00  0.00     0.198 A 
ATOM     99  F   UNL A   1      42.574  32.307  33.552  1.00  0.00    -0.203 F 
ATOM    100  F   UNL A   1      43.777  37.274  31.706  1.00  0.00    -0.200 F 
ATOM    101  C   UNL A   1      43.027  35.875  33.444  1.00  0.00     0.200 A 
ATOM    102  F   UNL A   1      42.258  34.428  35.140  1.00  0.00    -0.200 F 
ATOM    103  F   UNL A   1      42.829  36.937  34.237  1.00  0.00    -0.200 F 
ENDBRANCH  73  93
BRANCH  76 104
ATOM    104  C   UNL A   1      42.722  23.901  27.652  1.00  0.00     0.064 A 
ATOM    105  C   UNL A   1      43.110  23.909  26.278  1.00  0.00     0.173 A 
ATOM    106  C   UNL A   1      42.580  22.617  28.189  1.00  0.00     0.173 A 
ATOM    107  F   UNL A   1      43.469  25.038  25.653  1.00  0.00    -0.203 F 
ATOM    108  C   UNL A   1      43.133  22.769  25.473  1.00  0.00     0.198 A 
ATOM    109  C   UNL A   1      42.667  21.459  27.391  1.00  0.00     0.198 A 
ATOM    110  F   UNL A   1      42.364  22.432  29.495  1.00  0.00    -0.203 F 
ATOM    111  F   UNL A   1      43.364  22.889  24.157  1.00  0.00    -0.200 F 
ATOM    112  C   UNL A   1      42.888  21.540  26.027  1.00  0.00     0.200 A 
ATOM    113  F   UNL A   1      42.507  20.252  27.953  1.00  0.00    -0.200 F 
ATOM    114  F   UNL A   1      42.877  20.443  25.257  1.00  0.00    -0.200 F 
ENDBRANCH  76 104
BRANCH  91 115
ATOM    115  C   UNL A   1      43.481  27.925  32.204  1.00  0.00     0.064 A 
ATOM    116  C   UNL A   1      42.132  28.278  32.374  1.00  0.00     0.173 A 
ATOM    117  C   UNL A   1      44.037  27.121  33.211  1.00  0.00     0.173 A 
ATOM    118  F   UNL A   1      41.511  29.039  31.477  1.00  0.00    -0.203 F 
ATOM    119  C   UNL A   1      41.380  27.860  33.476  1.00  0.00     0.198 A 
ATOM    120  C   UNL A   1      43.288  26.696  34.312  1.00  0.00     0.198 A 
ATOM    121  F   UNL A   1      45.323  26.749  33.132  1.00  0.00    -0.203 F 
ATOM    122  F   UNL A   1      40.098  28.239  33.597  1.00  0.00    -0.200 F 
ATOM    123  C   UNL A   1      41.960  27.066  34.444  1.00  0.00     0.200 A 
ATOM    124  F   UNL A   1      43.861  25.933  35.253  1.00  0.00    -0.200 F 
ATOM    125  F   UNL A   1      41.247  26.672  35.509  1.00  0.00    -0.200 F 
ENDBRANCH  91 115
ENDBRANCH  56  59
ENDBRANCH  46  49
ENDBRANCH  42  45
ENDBRANCH  39  42
ENDBRANCH  36  39
ENDBRANCH   1  36
TORSDOF 15
ENDMDL
MODEL 7
REMARK VINA RESULT:     -11.6      1.583      2.319
REMARK SMILES O=C(Cc1ccn(-c2ccccc2F)c1)NCCCCCCNC(=O)c1ccc(-c2c3nc(c(-c4c(F)c(F)c(F)c(F)c4F)c4ccc([nH]4)c(-c4c(F)c(F)c(F)c(F)c4F)c4nc(c(-c5c(F)c(F)c(F)c(F)c5F)c5ccc2[nH]5)C=C4)C=C3)cc1
REMARK SMILES IDX 19 1 18 4 17 7 16 10 1 11 2 12 3 14 4 17 5 18 15 19 6 20
REMARK SMILES IDX 7 22 8 25 9 26 13 27 10 28 12 30 14 31 11 32 20 36 21 39
REMARK SMILES IDX 22 42 23 45 24 46 25 48 26 49 27 50 88 51 28 52 87 54 29 56
REMARK SMILES IDX 30 59 31 60 81 61 32 62 86 63 80 64 82 65 33 66 85 67 79 69
REMARK SMILES IDX 78 71 34 73 66 76 46 77 65 78 47 79 50 80 64 81 83 82 48 83
REMARK SMILES IDX 49 85 63 87 84 88 51 91 35 93 36 94 44 95 37 96 38 97 42 98
REMARK SMILES IDX 45 99 39 100 40 101 43 102 41 103 67 104 68 105 76 106
REMARK SMILES IDX 69 107 70 108 74 109 77 110 71 111 72 112 75 113 73 114
REMARK SMILES IDX 52 115 53 116 61 117 54 118 55 119 59 120 62 121 56 122
REMARK SMILES IDX 57 123 60 124 58 125
REMARK H PARENT 19 2 19 3 18 5 18 6 17 8 17 9 16 13 3 15 3 16 5 21 15 23 6 24
REMARK H PARENT 9 29 10 33 12 34 11 35 20 37 20 38 21 40 21 41 22 43 22 44
REMARK H PARENT 23 47 27 53 88 55 28 57 87 58 86 68 80 70 82 72 85 74 79 75
REMARK H PARENT 47 84 50 86 83 89 48 90 84 92
REMARK Flexibility Score: inf
ROOT
ATOM      1  C   UNL A   1      31.912  27.595  24.577  1.00  0.00    -0.052 C 
ATOM      2  H   UNL A   1      31.196  26.818  24.740  1.00  0.00     0.027 H 
ATOM      3  H   UNL A   1      31.500  28.581  24.652  1.00  0.00     0.027 H 
ENDROOT
BRANCH   1   4
ATOM      4  C   UNL A   1      32.437  27.465  23.141  1.00  0.00    -0.036 C 
ATOM      5  H   UNL A   1      31.596  27.416  22.481  1.00  0.00     0.028 H 
ATOM      6  H   UNL A   1      33.059  28.318  22.965  1.00  0.00     0.028 H 
BRANCH   4   7
ATOM      7  C   UNL A   1      33.309  26.233  22.894  1.00  0.00     0.017 C 
ATOM      8  H   UNL A   1      33.537  26.171  21.850  1.00  0.00     0.049 H 
ATOM      9  H   UNL A   1      34.204  26.333  23.473  1.00  0.00     0.049 H 
BRANCH   7  10
ATOM     10  N   UNL A   1      32.636  25.021  23.303  1.00  0.00    -0.356 N 
ATOM     11  O   UNL A   1      33.519  23.677  21.665  1.00  0.00    -0.275 OA
ATOM     12  C   UNL A   1      32.789  23.821  22.643  1.00  0.00     0.224 C 
ATOM     13  H   UNL A   1      32.042  25.055  24.086  1.00  0.00     0.163 HD
BRANCH  12  14
ATOM     14  C   UNL A   1      31.889  22.706  23.144  1.00  0.00     0.053 C 
ATOM     15  H   UNL A   1      31.457  22.215  22.297  1.00  0.00     0.042 H 
ATOM     16  H   UNL A   1      31.155  23.162  23.775  1.00  0.00     0.042 H 
BRANCH  14  17
ATOM     17  C   UNL A   1      32.595  21.679  23.973  1.00  0.00    -0.021 A 
ATOM     18  C   UNL A   1      33.273  21.897  25.201  1.00  0.00    -0.040 A 
ATOM     19  C   UNL A   1      32.680  20.323  23.718  1.00  0.00     0.013 A 
ATOM     20  C   UNL A   1      33.663  20.667  25.685  1.00  0.00     0.009 A 
ATOM     21  H   UNL A   1      33.443  22.810  25.651  1.00  0.00     0.064 H 
ATOM     22  N   UNL A   1      33.294  19.693  24.780  1.00  0.00    -0.321 N 
ATOM     23  H   UNL A   1      32.337  19.854  22.864  1.00  0.00     0.083 H 
ATOM     24  H   UNL A   1      34.151  20.501  26.579  1.00  0.00     0.082 H 
BRANCH  22  25
ATOM     25  C   UNL A   1      33.455  18.298  24.946  1.00  0.00     0.081 A 
ATOM     26  C   UNL A   1      32.367  17.516  25.357  1.00  0.00    -0.035 A 
ATOM     27  C   UNL A   1      34.680  17.687  24.672  1.00  0.00     0.147 A 
ATOM     28  C   UNL A   1      32.509  16.129  25.460  1.00  0.00    -0.060 A 
ATOM     29  H   UNL A   1      31.465  17.963  25.583  1.00  0.00     0.065 H 
ATOM     30  C   UNL A   1      34.830  16.309  24.814  1.00  0.00    -0.024 A 
ATOM     31  F   UNL A   1      35.759  18.408  24.336  1.00  0.00    -0.205 F 
ATOM     32  C   UNL A   1      33.741  15.528  25.196  1.00  0.00    -0.059 A 
ATOM     33  H   UNL A   1      31.701  15.549  25.733  1.00  0.00     0.062 H 
ATOM     34  H   UNL A   1      35.746  15.868  24.637  1.00  0.00     0.065 H 
ATOM     35  H   UNL A   1      33.845  14.505  25.285  1.00  0.00     0.062 H 
ENDBRANCH  22  25
ENDBRANCH  14  17
ENDBRANCH  12  14
ENDBRANCH   7  10
ENDBRANCH   4   7
ENDBRANCH   1   4
BRANCH   1  36
ATOM     36  C   UNL A   1      32.976  27.497  25.676  1.00  0.00    -0.052 C 
ATOM     37  H   UNL A   1      33.466  26.551  25.579  1.00  0.00     0.027 H 
ATOM     38  H   UNL A   1      32.456  27.616  26.604  1.00  0.00     0.027 H 
BRANCH  36  39
ATOM     39  C   UNL A   1      34.051  28.592  25.649  1.00  0.00    -0.036 C 
ATOM     40  H   UNL A   1      33.577  29.525  25.425  1.00  0.00     0.028 H 
ATOM     41  H   UNL A   1      34.767  28.307  24.908  1.00  0.00     0.028 H 
BRANCH  39  42
ATOM     42  C   UNL A   1      34.813  28.745  26.966  1.00  0.00     0.018 C 
ATOM     43  H   UNL A   1      35.678  28.117  26.946  1.00  0.00     0.049 H 
ATOM     44  H   UNL A   1      34.165  28.463  27.771  1.00  0.00     0.049 H 
BRANCH  42  45
ATOM     45  N   UNL A   1      35.229  30.123  27.167  1.00  0.00    -0.352 N 
ATOM     46  C   UNL A   1      36.299  30.632  27.856  1.00  0.00     0.251 C 
ATOM     47  H   UNL A   1      34.653  30.797  26.740  1.00  0.00     0.163 HD
ATOM     48  O   UNL A   1      36.274  31.802  28.217  1.00  0.00    -0.269 OA
BRANCH  46  49
ATOM     49  C   UNL A   1      37.478  29.802  28.184  1.00  0.00     0.039 A 
ATOM     50  C   UNL A   1      38.515  29.745  27.242  1.00  0.00    -0.049 A 
ATOM     51  C   UNL A   1      37.528  29.002  29.331  1.00  0.00    -0.049 A 
ATOM     52  C   UNL A   1      39.623  28.938  27.475  1.00  0.00    -0.053 A 
ATOM     53  H   UNL A   1      38.456  30.303  26.376  1.00  0.00     0.063 H 
ATOM     54  C   UNL A   1      38.645  28.209  29.580  1.00  0.00    -0.053 A 
ATOM     55  H   UNL A   1      36.736  29.001  29.994  1.00  0.00     0.063 H 
ATOM     56  C   UNL A   1      39.699  28.194  28.658  1.00  0.00    -0.014 A 
ATOM     57  H   UNL A   1      40.384  28.888  26.780  1.00  0.00     0.063 H 
ATOM     58  H   UNL A   1      38.696  27.637  30.437  1.00  0.00     0.063 H 
BRANCH  56  59
ATOM     59  C   UNL A   1      40.987  27.553  29.007  1.00  0.00     0.031 A 
ATOM     60  C   UNL A   1      41.085  26.127  28.414  1.00  0.00     0.074 A 
ATOM     61  C   UNL A   1      41.846  28.282  29.784  1.00  0.00     0.049 A 
ATOM     62  N   UNL A   1      41.825  25.120  28.766  1.00  0.00    -0.248 NA
ATOM     63  C   UNL A   1      40.192  25.751  27.280  1.00  0.00    -0.034 C 
ATOM     64  C   UNL A   1      41.605  29.674  30.219  1.00  0.00    -0.036 A 
ATOM     65  N   UNL A   1      43.074  28.027  30.368  1.00  0.00    -0.354 N 
ATOM     66  C   UNL A   1      41.633  24.087  27.818  1.00  0.00     0.074 A 
ATOM     67  C   UNL A   1      40.546  24.498  26.986  1.00  0.00    -0.034 C 
ATOM     68  H   UNL A   1      39.467  26.328  26.826  1.00  0.00     0.065 H 
ATOM     69  C   UNL A   1      42.581  30.100  31.049  1.00  0.00    -0.036 A 
ATOM     70  H   UNL A   1      40.796  30.246  29.927  1.00  0.00     0.065 H 
ATOM     71  C   UNL A   1      43.559  29.048  31.234  1.00  0.00     0.049 A 
ATOM     72  H   UNL A   1      43.576  27.198  30.198  1.00  0.00     0.167 HD
ATOM     73  C   UNL A   1      42.467  23.008  27.710  1.00  0.00     0.037 A 
ATOM     74  H   UNL A   1      40.100  23.910  26.264  1.00  0.00     0.065 H 
ATOM     75  H   UNL A   1      42.623  31.034  31.486  1.00  0.00     0.065 H 
ATOM     76  C   UNL A   1      44.642  29.025  32.076  1.00  0.00     0.037 A 
ATOM     77  C   UNL A   1      43.449  23.059  28.736  1.00  0.00     0.049 A 
ATOM     78  C   UNL A   1      45.354  27.783  31.745  1.00  0.00     0.074 A 
ATOM     79  C   UNL A   1      43.372  22.833  30.084  1.00  0.00    -0.036 A 
ATOM     80  N   UNL A   1      44.609  23.735  28.453  1.00  0.00    -0.354 N 
ATOM     81  N   UNL A   1      46.041  27.594  30.658  1.00  0.00    -0.248 NA
ATOM     82  C   UNL A   1      45.225  26.636  32.652  1.00  0.00    -0.034 C 
ATOM     83  C   UNL A   1      44.240  23.801  30.622  1.00  0.00    -0.036 A 
ATOM     84  H   UNL A   1      42.812  22.125  30.584  1.00  0.00     0.065 H 
ATOM     85  C   UNL A   1      44.974  24.403  29.593  1.00  0.00     0.049 A 
ATOM     86  H   UNL A   1      45.090  23.738  27.594  1.00  0.00     0.167 HD
ATOM     87  C   UNL A   1      46.121  26.225  30.608  1.00  0.00     0.074 A 
ATOM     88  C   UNL A   1      45.916  25.740  31.954  1.00  0.00    -0.034 C 
ATOM     89  H   UNL A   1      44.743  26.551  33.560  1.00  0.00     0.065 H 
ATOM     90  H   UNL A   1      44.324  24.032  31.624  1.00  0.00     0.065 H 
ATOM     91  C   UNL A   1      45.784  25.587  29.459  1.00  0.00     0.037 A 
ATOM     92  H   UNL A   1      46.255  24.836  32.319  1.00  0.00     0.065 H 
BRANCH  73  93
ATOM     93  C   UNL A   1      42.661  21.961  26.646  1.00  0.00     0.064 A 
ATOM     94  C   UNL A   1      43.613  22.065  25.626  1.00  0.00     0.173 A 
ATOM     95  C   UNL A   1      42.135  20.662  26.878  1.00  0.00     0.173 A 
ATOM     96  F   UNL A   1      44.185  23.239  25.332  1.00  0.00    -0.203 F 
ATOM     97  C   UNL A   1      44.078  20.931  24.949  1.00  0.00     0.198 A 
ATOM     98  C   UNL A   1      42.636  19.532  26.237  1.00  0.00     0.198 A 
ATOM     99  F   UNL A   1      41.178  20.461  27.799  1.00  0.00    -0.203 F 
ATOM    100  F   UNL A   1      45.032  21.063  24.016  1.00  0.00    -0.200 F 
ATOM    101  C   UNL A   1      43.624  19.665  25.283  1.00  0.00     0.200 A 
ATOM    102  F   UNL A   1      42.208  18.313  26.597  1.00  0.00    -0.200 F 
ATOM    103  F   UNL A   1      44.161  18.578  24.713  1.00  0.00    -0.200 F 
ENDBRANCH  73  93
BRANCH  76 104
ATOM    104  C   UNL A   1      45.203  29.822  33.241  1.00  0.00     0.064 A 
ATOM    105  C   UNL A   1      46.558  30.272  33.202  1.00  0.00     0.173 A 
ATOM    106  C   UNL A   1      44.562  30.073  34.459  1.00  0.00     0.173 A 
ATOM    107  F   UNL A   1      47.266  30.281  32.065  1.00  0.00    -0.203 F 
ATOM    108  C   UNL A   1      47.259  30.716  34.323  1.00  0.00     0.198 A 
ATOM    109  C   UNL A   1      45.252  30.584  35.576  1.00  0.00     0.198 A 
ATOM    110  F   UNL A   1      43.253  29.846  34.612  1.00  0.00    -0.203 F 
ATOM    111  F   UNL A   1      48.571  30.979  34.227  1.00  0.00    -0.200 F 
ATOM    112  C   UNL A   1      46.609  30.851  35.523  1.00  0.00     0.200 A 
ATOM    113  F   UNL A   1      44.593  30.791  36.725  1.00  0.00    -0.200 F 
ATOM    114  F   UNL A   1      47.280  31.248  36.613  1.00  0.00    -0.200 F 
ENDBRANCH  76 104
BRANCH  91 115
ATOM    115  C   UNL A   1      45.966  26.420  28.207  1.00  0.00     0.064 A 
ATOM    116  C   UNL A   1      44.910  26.952  27.449  1.00  0.00     0.173 A 
ATOM    117  C   UNL A   1      47.259  26.792  27.807  1.00  0.00     0.173 A 
ATOM    118  F   UNL A   1      43.646  26.660  27.744  1.00  0.00    -0.203 F 
ATOM    119  C   UNL A   1      45.123  27.801  26.359  1.00  0.00     0.198 A 
ATOM    120  C   UNL A   1      47.477  27.645  26.721  1.00  0.00     0.198 A 
ATOM    121  F   UNL A   1      48.324  26.318  28.471  1.00  0.00    -0.203 F 
ATOM    122  F   UNL A   1      44.079  28.270  25.658  1.00  0.00    -0.200 F 
ATOM    123  C   UNL A   1      46.409  28.149  25.997  1.00  0.00     0.200 A 
ATOM    124  F   UNL A   1      48.728  27.970  26.371  1.00  0.00    -0.200 F 
ATOM    125  F   UNL A   1      46.620  28.953  24.946  1.00  0.00    -0.200 F 
ENDBRANCH  91 115
ENDBRANCH  56  59
ENDBRANCH  46  49
ENDBRANCH  42  45
ENDBRANCH  39  42
ENDBRANCH  36  39
ENDBRANCH   1  36
TORSDOF 15
ENDMDL
MODEL 8
REMARK VINA RESULT:     -11.6      4.489      9.487
REMARK SMILES O=C(Cc1ccn(-c2ccccc2F)c1)NCCCCCCNC(=O)c1ccc(-c2c3nc(c(-c4c(F)c(F)c(F)c(F)c4F)c4ccc([nH]4)c(-c4c(F)c(F)c(F)c(F)c4F)c4nc(c(-c5c(F)c(F)c(F)c(F)c5F)c5ccc2[nH]5)C=C4)C=C3)cc1
REMARK SMILES IDX 19 1 18 4 17 7 16 10 1 11 2 12 3 14 4 17 5 18 15 19 6 20
REMARK SMILES IDX 7 22 8 25 9 26 13 27 10 28 12 30 14 31 11 32 20 36 21 39
REMARK SMILES IDX 22 42 23 45 24 46 25 48 26 49 27 50 88 51 28 52 87 54 29 56
REMARK SMILES IDX 30 59 31 60 81 61 32 62 86 63 80 64 82 65 33 66 85 67 79 69
REMARK SMILES IDX 78 71 34 73 66 76 46 77 65 78 47 79 50 80 64 81 83 82 48 83
REMARK SMILES IDX 49 85 63 87 84 88 51 91 35 93 36 94 44 95 37 96 38 97 42 98
REMARK SMILES IDX 45 99 39 100 40 101 43 102 41 103 67 104 68 105 76 106
REMARK SMILES IDX 69 107 70 108 74 109 77 110 71 111 72 112 75 113 73 114
REMARK SMILES IDX 52 115 53 116 61 117 54 118 55 119 59 120 62 121 56 122
REMARK SMILES IDX 57 123 60 124 58 125
REMARK H PARENT 19 2 19 3 18 5 18 6 17 8 17 9 16 13 3 15 3 16 5 21 15 23 6 24
REMARK H PARENT 9 29 10 33 12 34 11 35 20 37 20 38 21 40 21 41 22 43 22 44
REMARK H PARENT 23 47 27 53 88 55 28 57 87 58 86 68 80 70 82 72 85 74 79 75
REMARK H PARENT 47 84 50 86 83 89 48 90 84 92
REMARK Flexibility Score: inf
ROOT
ATOM      1  C   UNL A   1      34.715  24.321  25.549  1.00  0.00    -0.052 C 
ATOM      2  H   UNL A   1      35.376  24.916  26.145  1.00  0.00     0.027 H 
ATOM      3  H   UNL A   1      34.045  24.899  24.946  1.00  0.00     0.027 H 
ENDROOT
BRANCH   1   4
ATOM      4  C   UNL A   1      33.829  23.501  26.497  1.00  0.00    -0.036 C 
ATOM      5  H   UNL A   1      34.408  22.683  26.870  1.00  0.00     0.028 H 
ATOM      6  H   UNL A   1      33.505  24.170  27.265  1.00  0.00     0.028 H 
BRANCH   4   7
ATOM      7  C   UNL A   1      32.564  22.935  25.851  1.00  0.00     0.017 C 
ATOM      8  H   UNL A   1      32.844  22.197  25.126  1.00  0.00     0.049 H 
ATOM      9  H   UNL A   1      31.958  22.501  26.619  1.00  0.00     0.049 H 
BRANCH   7  10
ATOM     10  N   UNL A   1      31.798  23.971  25.197  1.00  0.00    -0.356 N 
ATOM     11  O   UNL A   1      30.258  24.246  26.877  1.00  0.00    -0.275 OA
ATOM     12  C   UNL A   1      30.684  24.550  25.765  1.00  0.00     0.224 C 
ATOM     13  H   UNL A   1      32.085  24.277  24.307  1.00  0.00     0.163 HD
BRANCH  12  14
ATOM     14  C   UNL A   1      29.943  25.517  24.858  1.00  0.00     0.053 C 
ATOM     15  H   UNL A   1      28.947  25.633  25.232  1.00  0.00     0.042 H 
ATOM     16  H   UNL A   1      29.968  25.097  23.874  1.00  0.00     0.042 H 
BRANCH  14  17
ATOM     17  C   UNL A   1      30.572  26.871  24.768  1.00  0.00    -0.021 A 
ATOM     18  C   UNL A   1      30.400  27.822  23.728  1.00  0.00    -0.040 A 
ATOM     19  C   UNL A   1      31.403  27.464  25.702  1.00  0.00     0.013 A 
ATOM     20  C   UNL A   1      31.052  28.976  24.107  1.00  0.00     0.009 A 
ATOM     21  H   UNL A   1      29.881  27.677  22.849  1.00  0.00     0.064 H 
ATOM     22  N   UNL A   1      31.665  28.764  25.325  1.00  0.00    -0.321 N 
ATOM     23  H   UNL A   1      31.770  27.004  26.551  1.00  0.00     0.083 H 
ATOM     24  H   UNL A   1      31.078  29.855  23.568  1.00  0.00     0.082 H 
BRANCH  22  25
ATOM     25  C   UNL A   1      32.374  29.727  26.079  1.00  0.00     0.081 A 
ATOM     26  C   UNL A   1      31.743  30.921  26.452  1.00  0.00    -0.035 A 
ATOM     27  C   UNL A   1      33.688  29.485  26.484  1.00  0.00     0.147 A 
ATOM     28  C   UNL A   1      32.423  31.845  27.251  1.00  0.00    -0.060 A 
ATOM     29  H   UNL A   1      30.780  31.118  26.138  1.00  0.00     0.065 H 
ATOM     30  C   UNL A   1      34.377  30.425  27.247  1.00  0.00    -0.024 A 
ATOM     31  F   UNL A   1      34.346  28.383  26.096  1.00  0.00    -0.205 F 
ATOM     32  C   UNL A   1      33.740  31.601  27.641  1.00  0.00    -0.059 A 
ATOM     33  H   UNL A   1      31.949  32.711  27.552  1.00  0.00     0.062 H 
ATOM     34  H   UNL A   1      35.358  30.252  27.519  1.00  0.00     0.065 H 
ATOM     35  H   UNL A   1      34.243  32.291  28.221  1.00  0.00     0.062 H 
ENDBRANCH  22  25
ENDBRANCH  14  17
ENDBRANCH  12  14
ENDBRANCH   7  10
ENDBRANCH   4   7
ENDBRANCH   1   4
BRANCH   1  36
ATOM     36  C   UNL A   1      35.565  23.503  24.572  1.00  0.00    -0.052 C 
ATOM     37  H   UNL A   1      35.353  23.846  23.581  1.00  0.00     0.027 H 
ATOM     38  H   UNL A   1      35.302  22.478  24.735  1.00  0.00     0.027 H 
BRANCH  36  39
ATOM     39  C   UNL A   1      37.082  23.590  24.789  1.00  0.00    -0.036 C 
ATOM     40  H   UNL A   1      37.475  24.331  24.125  1.00  0.00     0.028 H 
ATOM     41  H   UNL A   1      37.480  22.616  24.599  1.00  0.00     0.028 H 
BRANCH  39  42
ATOM     42  C   UNL A   1      37.483  23.963  26.216  1.00  0.00     0.018 C 
ATOM     43  H   UNL A   1      36.728  23.621  26.893  1.00  0.00     0.049 H 
ATOM     44  H   UNL A   1      37.585  25.027  26.276  1.00  0.00     0.049 H 
BRANCH  42  45
ATOM     45  N   UNL A   1      38.753  23.354  26.573  1.00  0.00    -0.352 N 
ATOM     46  C   UNL A   1      39.950  23.935  26.906  1.00  0.00     0.251 C 
ATOM     47  H   UNL A   1      38.756  22.370  26.577  1.00  0.00     0.163 HD
ATOM     48  O   UNL A   1      40.979  23.277  26.812  1.00  0.00    -0.269 OA
BRANCH  46  49
ATOM     49  C   UNL A   1      40.031  25.338  27.366  1.00  0.00     0.039 A 
ATOM     50  C   UNL A   1      39.635  25.614  28.682  1.00  0.00    -0.049 A 
ATOM     51  C   UNL A   1      40.375  26.384  26.502  1.00  0.00    -0.049 A 
ATOM     52  C   UNL A   1      39.640  26.924  29.149  1.00  0.00    -0.053 A 
ATOM     53  H   UNL A   1      39.340  24.846  29.304  1.00  0.00     0.063 H 
ATOM     54  C   UNL A   1      40.403  27.694  26.972  1.00  0.00    -0.053 A 
ATOM     55  H   UNL A   1      40.609  26.183  25.517  1.00  0.00     0.063 H 
ATOM     56  C   UNL A   1      40.053  27.959  28.301  1.00  0.00    -0.014 A 
ATOM     57  H   UNL A   1      39.342  27.131  30.115  1.00  0.00     0.063 H 
ATOM     58  H   UNL A   1      40.681  28.465  26.344  1.00  0.00     0.063 H 
BRANCH  56  59
ATOM     59  C   UNL A   1      40.300  29.295  28.888  1.00  0.00     0.031 A 
ATOM     60  C   UNL A   1      38.978  30.069  29.102  1.00  0.00     0.074 A 
ATOM     61  C   UNL A   1      41.606  29.632  29.121  1.00  0.00     0.049 A 
ATOM     62  N   UNL A   1      38.761  31.344  29.224  1.00  0.00    -0.248 NA
ATOM     63  C   UNL A   1      37.693  29.312  29.145  1.00  0.00    -0.034 C 
ATOM     64  C   UNL A   1      42.756  28.729  28.903  1.00  0.00    -0.036 A 
ATOM     65  N   UNL A   1      42.244  30.773  29.575  1.00  0.00    -0.354 N 
ATOM     66  C   UNL A   1      37.392  31.524  29.534  1.00  0.00     0.074 A 
ATOM     67  C   UNL A   1      36.769  30.248  29.375  1.00  0.00    -0.034 C 
ATOM     68  H   UNL A   1      37.552  28.297  29.025  1.00  0.00     0.065 H 
ATOM     69  C   UNL A   1      43.924  29.365  29.131  1.00  0.00    -0.036 A 
ATOM     70  H   UNL A   1      42.676  27.741  28.614  1.00  0.00     0.065 H 
ATOM     71  C   UNL A   1      43.666  30.733  29.530  1.00  0.00     0.049 A 
ATOM     72  H   UNL A   1      41.749  31.557  29.905  1.00  0.00     0.167 HD
ATOM     73  C   UNL A   1      36.885  32.698  30.019  1.00  0.00     0.037 A 
ATOM     74  H   UNL A   1      35.753  30.075  29.429  1.00  0.00     0.065 H 
ATOM     75  H   UNL A   1      44.860  28.940  29.036  1.00  0.00     0.065 H 
ATOM     76  C   UNL A   1      44.566  31.745  29.749  1.00  0.00     0.037 A 
ATOM     77  C   UNL A   1      37.909  33.682  30.055  1.00  0.00     0.049 A 
ATOM     78  C   UNL A   1      43.764  32.863  30.265  1.00  0.00     0.074 A 
ATOM     79  C   UNL A   1      38.528  34.390  29.060  1.00  0.00    -0.036 A 
ATOM     80  N   UNL A   1      38.656  33.761  31.203  1.00  0.00    -0.354 N 
ATOM     81  N   UNL A   1      43.240  32.907  31.453  1.00  0.00    -0.248 NA
ATOM     82  C   UNL A   1      43.451  33.978  29.363  1.00  0.00    -0.034 C 
ATOM     83  C   UNL A   1      39.863  34.462  29.501  1.00  0.00    -0.036 A 
ATOM     84  H   UNL A   1      38.117  34.776  28.196  1.00  0.00     0.065 H 
ATOM     85  C   UNL A   1      39.949  34.016  30.825  1.00  0.00     0.049 A 
ATOM     86  H   UNL A   1      38.326  33.655  32.124  1.00  0.00     0.167 HD
ATOM     87  C   UNL A   1      42.276  33.872  31.302  1.00  0.00     0.074 A 
ATOM     88  C   UNL A   1      42.664  34.684  30.170  1.00  0.00    -0.034 C 
ATOM     89  H   UNL A   1      43.753  34.161  28.393  1.00  0.00     0.065 H 
ATOM     90  H   UNL A   1      40.659  34.795  28.935  1.00  0.00     0.065 H 
ATOM     91  C   UNL A   1      41.010  33.608  31.711  1.00  0.00     0.037 A 
ATOM     92  H   UNL A   1      42.375  35.662  30.012  1.00  0.00     0.065 H 
BRANCH  73  93
ATOM     93  C   UNL A   1      35.582  33.059  30.682  1.00  0.00     0.064 A 
ATOM     94  C   UNL A   1      35.265  32.707  31.999  1.00  0.00     0.173 A 
ATOM     95  C   UNL A   1      34.800  34.096  30.109  1.00  0.00     0.173 A 
ATOM     96  F   UNL A   1      35.947  31.751  32.642  1.00  0.00    -0.203 F 
ATOM     97  C   UNL A   1      34.294  33.408  32.724  1.00  0.00     0.198 A 
ATOM     98  C   UNL A   1      33.871  34.823  30.849  1.00  0.00     0.198 A 
ATOM     99  F   UNL A   1      34.988  34.475  28.834  1.00  0.00    -0.203 F 
ATOM    100  F   UNL A   1      34.057  33.078  34.002  1.00  0.00    -0.200 F 
ATOM    101  C   UNL A   1      33.632  34.490  32.167  1.00  0.00     0.200 A 
ATOM    102  F   UNL A   1      33.265  35.887  30.303  1.00  0.00    -0.200 F 
ATOM    103  F   UNL A   1      32.794  35.229  32.906  1.00  0.00    -0.200 F 
ENDBRANCH  73  93
BRANCH  76 104
ATOM    104  C   UNL A   1      46.039  32.036  29.519  1.00  0.00     0.064 A 
ATOM    105  C   UNL A   1      46.522  32.233  28.190  1.00  0.00     0.173 A 
ATOM    106  C   UNL A   1      47.050  32.010  30.487  1.00  0.00     0.173 A 
ATOM    107  F   UNL A   1      45.691  32.467  27.165  1.00  0.00    -0.203 F 
ATOM    108  C   UNL A   1      47.872  32.184  27.841  1.00  0.00     0.198 A 
ATOM    109  C   UNL A   1      48.416  32.026  30.141  1.00  0.00     0.198 A 
ATOM    110  F   UNL A   1      46.760  31.979  31.791  1.00  0.00    -0.203 F 
ATOM    111  F   UNL A   1      48.226  32.231  26.548  1.00  0.00    -0.200 F 
ATOM    112  C   UNL A   1      48.823  32.057  28.819  1.00  0.00     0.200 A 
ATOM    113  F   UNL A   1      49.345  31.984  31.107  1.00  0.00    -0.200 F 
ATOM    114  F   UNL A   1      50.121  31.978  28.492  1.00  0.00    -0.200 F 
ENDBRANCH  76 104
BRANCH  91 115
ATOM    115  C   UNL A   1      40.915  32.587  32.825  1.00  0.00     0.064 A 
ATOM    116  C   UNL A   1      41.241  32.846  34.167  1.00  0.00     0.173 A 
ATOM    117  C   UNL A   1      40.375  31.320  32.556  1.00  0.00     0.173 A 
ATOM    118  F   UNL A   1      41.761  34.016  34.527  1.00  0.00    -0.203 F 
ATOM    119  C   UNL A   1      41.042  31.904  35.181  1.00  0.00     0.198 A 
ATOM    120  C   UNL A   1      40.170  30.378  33.568  1.00  0.00     0.198 A 
ATOM    121  F   UNL A   1      40.048  30.988  31.299  1.00  0.00    -0.203 F 
ATOM    122  F   UNL A   1      41.384  32.197  36.446  1.00  0.00    -0.200 F 
ATOM    123  C   UNL A   1      40.504  30.670  34.880  1.00  0.00     0.200 A 
ATOM    124  F   UNL A   1      39.655  29.178  33.266  1.00  0.00    -0.200 F 
ATOM    125  F   UNL A   1      40.322  29.759  35.847  1.00  0.00    -0.200 F 
ENDBRANCH  91 115
ENDBRANCH  56  59
ENDBRANCH  46  49
ENDBRANCH  42  45
ENDBRANCH  39  42
ENDBRANCH  36  39
ENDBRANCH   1  36
TORSDOF 15
ENDMDL
MODEL 9
REMARK VINA RESULT:     -11.6      3.548      7.290
REMARK SMILES O=C(Cc1ccn(-c2ccccc2F)c1)NCCCCCCNC(=O)c1ccc(-c2c3nc(c(-c4c(F)c(F)c(F)c(F)c4F)c4ccc([nH]4)c(-c4c(F)c(F)c(F)c(F)c4F)c4nc(c(-c5c(F)c(F)c(F)c(F)c5F)c5ccc2[nH]5)C=C4)C=C3)cc1
REMARK SMILES IDX 19 1 18 4 17 7 16 10 1 11 2 12 3 14 4 17 5 18 15 19 6 20
REMARK SMILES IDX 7 22 8 25 9 26 13 27 10 28 12 30 14 31 11 32 20 36 21 39
REMARK SMILES IDX 22 42 23 45 24 46 25 48 26 49 27 50 88 51 28 52 87 54 29 56
REMARK SMILES IDX 30 59 31 60 81 61 32 62 86 63 80 64 82 65 33 66 85 67 79 69
REMARK SMILES IDX 78 71 34 73 66 76 46 77 65 78 47 79 50 80 64 81 83 82 48 83
REMARK SMILES IDX 49 85 63 87 84 88 51 91 35 93 36 94 44 95 37 96 38 97 42 98
REMARK SMILES IDX 45 99 39 100 40 101 43 102 41 103 67 104 68 105 76 106
REMARK SMILES IDX 69 107 70 108 74 109 77 110 71 111 72 112 75 113 73 114
REMARK SMILES IDX 52 115 53 116 61 117 54 118 55 119 59 120 62 121 56 122
REMARK SMILES IDX 57 123 60 124 58 125
REMARK H PARENT 19 2 19 3 18 5 18 6 17 8 17 9 16 13 3 15 3 16 5 21 15 23 6 24
REMARK H PARENT 9 29 10 33 12 34 11 35 20 37 20 38 21 40 21 41 22 43 22 44
REMARK H PARENT 23 47 27 53 88 55 28 57 87 58 86 68 80 70 82 72 85 74 79 75
REMARK H PARENT 47 84 50 86 83 89 48 90 84 92
REMARK Flexibility Score: inf
ROOT
ATOM      1  C   UNL A   1      38.307  30.837  32.101  1.00  0.00    -0.052 C 
ATOM      2  H   UNL A   1      37.884  31.432  32.882  1.00  0.00     0.027 H 
ATOM      3  H   UNL A   1      37.648  30.076  31.736  1.00  0.00     0.027 H 
ENDROOT
BRANCH   1   4
ATOM      4  C   UNL A   1      39.528  30.101  32.671  1.00  0.00    -0.036 C 
ATOM      5  H   UNL A   1      39.183  29.222  33.173  1.00  0.00     0.028 H 
ATOM      6  H   UNL A   1      40.169  29.887  31.842  1.00  0.00     0.028 H 
BRANCH   4   7
ATOM      7  C   UNL A   1      40.356  30.921  33.660  1.00  0.00     0.017 C 
ATOM      8  H   UNL A   1      40.710  30.276  34.437  1.00  0.00     0.049 H 
ATOM      9  H   UNL A   1      41.176  31.361  33.131  1.00  0.00     0.049 H 
BRANCH   7  10
ATOM     10  N   UNL A   1      39.573  31.983  34.250  1.00  0.00    -0.356 N 
ATOM     11  O   UNL A   1      40.798  33.717  33.376  1.00  0.00    -0.275 OA
ATOM     12  C   UNL A   1      39.862  33.318  34.066  1.00  0.00     0.224 C 
ATOM     13  H   UNL A   1      38.799  31.743  34.807  1.00  0.00     0.163 HD
BRANCH  12  14
ATOM     14  C   UNL A   1      39.004  34.269  34.882  1.00  0.00     0.053 C 
ATOM     15  H   UNL A   1      39.383  35.260  34.752  1.00  0.00     0.042 H 
ATOM     16  H   UNL A   1      39.057  33.936  35.898  1.00  0.00     0.042 H 
BRANCH  14  17
ATOM     17  C   UNL A   1      37.558  34.265  34.499  1.00  0.00    -0.021 A 
ATOM     18  C   UNL A   1      36.487  33.677  35.224  1.00  0.00    -0.040 A 
ATOM     19  C   UNL A   1      36.991  34.868  33.391  1.00  0.00     0.013 A 
ATOM     20  C   UNL A   1      35.315  34.019  34.584  1.00  0.00     0.009 A 
ATOM     21  H   UNL A   1      36.571  33.100  36.075  1.00  0.00     0.064 H 
ATOM     22  N   UNL A   1      35.618  34.759  33.459  1.00  0.00    -0.321 N 
ATOM     23  H   UNL A   1      37.515  35.330  32.631  1.00  0.00     0.083 H 
ATOM     24  H   UNL A   1      34.365  33.764  34.896  1.00  0.00     0.082 H 
BRANCH  22  25
ATOM     25  C   UNL A   1      34.687  35.353  32.577  1.00  0.00     0.081 A 
ATOM     26  C   UNL A   1      34.284  36.680  32.781  1.00  0.00    -0.035 A 
ATOM     27  C   UNL A   1      34.188  34.641  31.485  1.00  0.00     0.147 A 
ATOM     28  C   UNL A   1      33.412  37.288  31.874  1.00  0.00    -0.060 A 
ATOM     29  H   UNL A   1      34.631  37.206  33.599  1.00  0.00     0.065 H 
ATOM     30  C   UNL A   1      33.288  35.237  30.604  1.00  0.00    -0.024 A 
ATOM     31  F   UNL A   1      34.502  33.352  31.291  1.00  0.00    -0.205 F 
ATOM     32  C   UNL A   1      32.909  36.565  30.791  1.00  0.00    -0.059 A 
ATOM     33  H   UNL A   1      33.139  38.275  32.005  1.00  0.00     0.062 H 
ATOM     34  H   UNL A   1      32.902  34.695  29.815  1.00  0.00     0.065 H 
ATOM     35  H   UNL A   1      32.256  37.014  30.130  1.00  0.00     0.062 H 
ENDBRANCH  22  25
ENDBRANCH  14  17
ENDBRANCH  12  14
ENDBRANCH   7  10
ENDBRANCH   4   7
ENDBRANCH   1   4
BRANCH   1  36
ATOM     36  C   UNL A   1      38.593  31.755  30.908  1.00  0.00    -0.052 C 
ATOM     37  H   UNL A   1      38.914  31.145  30.089  1.00  0.00     0.027 H 
ATOM     38  H   UNL A   1      39.336  32.451  31.240  1.00  0.00     0.027 H 
BRANCH  36  39
ATOM     39  C   UNL A   1      37.404  32.601  30.431  1.00  0.00    -0.036 C 
ATOM     40  H   UNL A   1      37.534  33.599  30.793  1.00  0.00     0.028 H 
ATOM     41  H   UNL A   1      36.519  32.137  30.813  1.00  0.00     0.028 H 
BRANCH  39  42
ATOM     42  C   UNL A   1      37.255  32.657  28.910  1.00  0.00     0.018 C 
ATOM     43  H   UNL A   1      38.190  32.405  28.456  1.00  0.00     0.049 H 
ATOM     44  H   UNL A   1      36.958  33.647  28.632  1.00  0.00     0.049 H 
BRANCH  42  45
ATOM     45  N   UNL A   1      36.238  31.724  28.455  1.00  0.00    -0.352 N 
ATOM     46  C   UNL A   1      36.362  30.445  27.976  1.00  0.00     0.251 C 
ATOM     47  H   UNL A   1      35.315  32.063  28.497  1.00  0.00     0.163 HD
ATOM     48  O   UNL A   1      35.452  29.967  27.309  1.00  0.00    -0.269 OA
BRANCH  46  49
ATOM     49  C   UNL A   1      37.568  29.632  28.236  1.00  0.00     0.039 A 
ATOM     50  C   UNL A   1      38.607  29.691  27.296  1.00  0.00    -0.049 A 
ATOM     51  C   UNL A   1      37.646  28.741  29.313  1.00  0.00    -0.049 A 
ATOM     52  C   UNL A   1      39.742  28.906  27.463  1.00  0.00    -0.053 A 
ATOM     53  H   UNL A   1      38.529  30.317  26.480  1.00  0.00     0.063 H 
ATOM     54  C   UNL A   1      38.790  27.969  29.497  1.00  0.00    -0.053 A 
ATOM     55  H   UNL A   1      36.855  28.657  29.970  1.00  0.00     0.063 H 
ATOM     56  C   UNL A   1      39.844  28.068  28.581  1.00  0.00    -0.014 A 
ATOM     57  H   UNL A   1      40.505  28.941  26.769  1.00  0.00     0.063 H 
ATOM     58  H   UNL A   1      38.860  27.330  30.303  1.00  0.00     0.063 H 
BRANCH  56  59
ATOM     59  C   UNL A   1      41.153  27.445  28.878  1.00  0.00     0.031 A 
ATOM     60  C   UNL A   1      41.232  26.005  28.319  1.00  0.00     0.074 A 
ATOM     61  C   UNL A   1      42.046  28.200  29.589  1.00  0.00     0.049 A 
ATOM     62  N   UNL A   1      41.997  25.012  28.658  1.00  0.00    -0.248 NA
ATOM     63  C   UNL A   1      40.284  25.592  27.243  1.00  0.00    -0.034 C 
ATOM     64  C   UNL A   1      41.817  29.602  30.000  1.00  0.00    -0.036 A 
ATOM     65  N   UNL A   1      43.305  27.969  30.115  1.00  0.00    -0.354 N 
ATOM     66  C   UNL A   1      41.764  23.952  27.748  1.00  0.00     0.074 A 
ATOM     67  C   UNL A   1      40.632  24.334  26.964  1.00  0.00    -0.034 C 
ATOM     68  H   UNL A   1      39.532  26.152  26.812  1.00  0.00     0.065 H 
ATOM     69  C   UNL A   1      42.831  30.056  30.766  1.00  0.00    -0.036 A 
ATOM     70  H   UNL A   1      40.990  30.160  29.735  1.00  0.00     0.065 H 
ATOM     71  C   UNL A   1      43.826  29.016  30.927  1.00  0.00     0.049 A 
ATOM     72  H   UNL A   1      43.804  27.139  29.941  1.00  0.00     0.167 HD
ATOM     73  C   UNL A   1      42.600  22.877  27.625  1.00  0.00     0.037 A 
ATOM     74  H   UNL A   1      40.154  23.725  26.282  1.00  0.00     0.065 H 
ATOM     75  H   UNL A   1      42.889  31.002  31.176  1.00  0.00     0.065 H 
ATOM     76  C   UNL A   1      44.952  29.022  31.712  1.00  0.00     0.037 A 
ATOM     77  C   UNL A   1      43.634  22.962  28.597  1.00  0.00     0.049 A 
ATOM     78  C   UNL A   1      45.655  27.776  31.377  1.00  0.00     0.074 A 
ATOM     79  C   UNL A   1      43.628  22.771  29.953  1.00  0.00    -0.036 A 
ATOM     80  N   UNL A   1      44.772  23.637  28.236  1.00  0.00    -0.354 N 
ATOM     81  N   UNL A   1      46.286  27.563  30.261  1.00  0.00    -0.248 NA
ATOM     82  C   UNL A   1      45.583  26.654  32.319  1.00  0.00    -0.034 C 
ATOM     83  C   UNL A   1      44.516  23.758  30.419  1.00  0.00    -0.036 A 
ATOM     84  H   UNL A   1      43.101  22.073  30.500  1.00  0.00     0.065 H 
ATOM     85  C   UNL A   1      45.190  24.338  29.338  1.00  0.00     0.049 A 
ATOM     86  H   UNL A   1      45.207  23.621  27.354  1.00  0.00     0.167 HD
ATOM     87  C   UNL A   1      46.374  26.194  30.242  1.00  0.00     0.074 A 
ATOM     88  C   UNL A   1      46.244  25.744  31.610  1.00  0.00    -0.034 C 
ATOM     89  H   UNL A   1      45.149  26.590  33.253  1.00  0.00     0.065 H 
ATOM     90  H   UNL A   1      44.650  24.017  31.409  1.00  0.00     0.065 H 
ATOM     91  C   UNL A   1      45.983  25.523  29.130  1.00  0.00     0.037 A 
ATOM     92  H   UNL A   1      46.608  24.851  31.980  1.00  0.00     0.065 H 
BRANCH  73  93
ATOM     93  C   UNL A   1      42.746  21.803  26.581  1.00  0.00     0.064 A 
ATOM     94  C   UNL A   1      43.661  21.874  25.524  1.00  0.00     0.173 A 
ATOM     95  C   UNL A   1      42.220  20.515  26.863  1.00  0.00     0.173 A 
ATOM     96  F   UNL A   1      44.230  23.036  25.181  1.00  0.00    -0.203 F 
ATOM     97  C   UNL A   1      44.092  20.721  24.858  1.00  0.00     0.198 A 
ATOM     98  C   UNL A   1      42.688  19.365  26.231  1.00  0.00     0.198 A 
ATOM     99  F   UNL A   1      41.296  20.344  27.823  1.00  0.00    -0.203 F 
ATOM    100  F   UNL A   1      45.011  20.823  23.888  1.00  0.00    -0.200 F 
ATOM    101  C   UNL A   1      43.641  19.468  25.239  1.00  0.00     0.200 A 
ATOM    102  F   UNL A   1      42.265  18.159  26.636  1.00  0.00    -0.200 F 
ATOM    103  F   UNL A   1      44.148  18.363  24.676  1.00  0.00    -0.200 F 
ENDBRANCH  73  93
BRANCH  76 104
ATOM    104  C   UNL A   1      45.566  29.853  32.824  1.00  0.00     0.064 A 
ATOM    105  C   UNL A   1      44.901  29.949  34.085  1.00  0.00     0.173 A 
ATOM    106  C   UNL A   1      46.695  30.674  32.720  1.00  0.00     0.173 A 
ATOM    107  F   UNL A   1      43.918  29.108  34.429  1.00  0.00    -0.203 F 
ATOM    108  C   UNL A   1      45.196  30.919  35.044  1.00  0.00     0.198 A 
ATOM    109  C   UNL A   1      47.033  31.610  33.717  1.00  0.00     0.198 A 
ATOM    110  F   UNL A   1      47.511  30.599  31.664  1.00  0.00    -0.203 F 
ATOM    111  F   UNL A   1      44.424  31.031  36.135  1.00  0.00    -0.200 F 
ATOM    112  C   UNL A   1      46.253  31.769  34.849  1.00  0.00     0.200 A 
ATOM    113  F   UNL A   1      48.117  32.385  33.560  1.00  0.00    -0.200 F 
ATOM    114  F   UNL A   1      46.526  32.724  35.750  1.00  0.00    -0.200 F 
ENDBRANCH  76 104
BRANCH  91 115
ATOM    115  C   UNL A   1      46.093  26.324  27.849  1.00  0.00     0.064 A 
ATOM    116  C   UNL A   1      44.995  26.821  27.129  1.00  0.00     0.173 A 
ATOM    117  C   UNL A   1      47.360  26.701  27.377  1.00  0.00     0.173 A 
ATOM    118  F   UNL A   1      43.751  26.522  27.493  1.00  0.00    -0.203 F 
ATOM    119  C   UNL A   1      45.143  27.642  26.007  1.00  0.00     0.198 A 
ATOM    120  C   UNL A   1      47.513  27.526  26.259  1.00  0.00     0.198 A 
ATOM    121  F   UNL A   1      48.462  26.259  28.000  1.00  0.00    -0.203 F 
ATOM    122  F   UNL A   1      44.059  28.079  25.346  1.00  0.00    -0.200 F 
ATOM    123  C   UNL A   1      46.405  27.996  25.575  1.00  0.00     0.200 A 
ATOM    124  F   UNL A   1      48.742  27.857  25.840  1.00  0.00    -0.200 F 
ATOM    125  F   UNL A   1      46.553  28.774  24.493  1.00  0.00    -0.200 F 
ENDBRANCH  91 115
ENDBRANCH  56  59
ENDBRANCH  46  49
ENDBRANCH  42  45
ENDBRANCH  39  42
ENDBRANCH  36  39
ENDBRANCH   1  36
TORSDOF 15
ENDMDL
MODEL 10
REMARK VINA RESULT:     -11.5      3.661      8.387
REMARK SMILES O=C(Cc1ccn(-c2ccccc2F)c1)NCCCCCCNC(=O)c1ccc(-c2c3nc(c(-c4c(F)c(F)c(F)c(F)c4F)c4ccc([nH]4)c(-c4c(F)c(F)c(F)c(F)c4F)c4nc(c(-c5c(F)c(F)c(F)c(F)c5F)c5ccc2[nH]5)C=C4)C=C3)cc1
REMARK SMILES IDX 19 1 18 4 17 7 16 10 1 11 2 12 3 14 4 17 5 18 15 19 6 20
REMARK SMILES IDX 7 22 8 25 9 26 13 27 10 28 12 30 14 31 11 32 20 36 21 39
REMARK SMILES IDX 22 42 23 45 24 46 25 48 26 49 27 50 88 51 28 52 87 54 29 56
REMARK SMILES IDX 30 59 31 60 81 61 32 62 86 63 80 64 82 65 33 66 85 67 79 69
REMARK SMILES IDX 78 71 34 73 66 76 46 77 65 78 47 79 50 80 64 81 83 82 48 83
REMARK SMILES IDX 49 85 63 87 84 88 51 91 35 93 36 94 44 95 37 96 38 97 42 98
REMARK SMILES IDX 45 99 39 100 40 101 43 102 41 103 67 104 68 105 76 106
REMARK SMILES IDX 69 107 70 108 74 109 77 110 71 111 72 112 75 113 73 114
REMARK SMILES IDX 52 115 53 116 61 117 54 118 55 119 59 120 62 121 56 122
REMARK SMILES IDX 57 123 60 124 58 125
REMARK H PARENT 19 2 19 3 18 5 18 6 17 8 17 9 16 13 3 15 3 16 5 21 15 23 6 24
REMARK H PARENT 9 29 10 33 12 34 11 35 20 37 20 38 21 40 21 41 22 43 22 44
REMARK H PARENT 23 47 27 53 88 55 28 57 87 58 86 68 80 70 82 72 85 74 79 75
REMARK H PARENT 47 84 50 86 83 89 48 90 84 92
REMARK Flexibility Score: inf
ROOT
ATOM      1  C   UNL A   1      41.745  20.267  27.329  1.00  0.00    -0.052 C 
ATOM      2  H   UNL A   1      41.452  20.117  28.347  1.00  0.00     0.027 H 
ATOM      3  H   UNL A   1      42.445  21.066  27.197  1.00  0.00     0.027 H 
ENDROOT
BRANCH   1   4
ATOM      4  C   UNL A   1      40.496  20.663  26.529  1.00  0.00    -0.036 C 
ATOM      5  H   UNL A   1      40.710  20.530  25.489  1.00  0.00     0.028 H 
ATOM      6  H   UNL A   1      39.701  20.038  26.877  1.00  0.00     0.028 H 
BRANCH   4   7
ATOM      7  C   UNL A   1      40.040  22.107  26.740  1.00  0.00     0.017 C 
ATOM      8  H   UNL A   1      39.796  22.247  27.773  1.00  0.00     0.049 H 
ATOM      9  H   UNL A   1      40.836  22.759  26.447  1.00  0.00     0.049 H 
BRANCH   7  10
ATOM     10  N   UNL A   1      38.879  22.415  25.936  1.00  0.00    -0.356 N 
ATOM     11  O   UNL A   1      38.410  24.430  26.931  1.00  0.00    -0.275 OA
ATOM     12  C   UNL A   1      38.138  23.566  26.101  1.00  0.00     0.224 C 
ATOM     13  H   UNL A   1      38.606  21.776  25.241  1.00  0.00     0.163 HD
BRANCH  12  14
ATOM     14  C   UNL A   1      36.880  23.633  25.253  1.00  0.00     0.053 C 
ATOM     15  H   UNL A   1      37.167  23.621  24.223  1.00  0.00     0.042 H 
ATOM     16  H   UNL A   1      36.371  24.533  25.529  1.00  0.00     0.042 H 
BRANCH  14  17
ATOM     17  C   UNL A   1      35.926  22.505  25.489  1.00  0.00    -0.021 A 
ATOM     18  C   UNL A   1      34.965  22.405  26.529  1.00  0.00    -0.040 A 
ATOM     19  C   UNL A   1      35.775  21.371  24.712  1.00  0.00     0.013 A 
ATOM     20  C   UNL A   1      34.216  21.273  26.297  1.00  0.00     0.009 A 
ATOM     21  H   UNL A   1      34.849  23.062  27.316  1.00  0.00     0.064 H 
ATOM     22  N   UNL A   1      34.704  20.635  25.175  1.00  0.00    -0.321 N 
ATOM     23  H   UNL A   1      36.371  21.114  23.908  1.00  0.00     0.083 H 
ATOM     24  H   UNL A   1      33.418  20.953  26.869  1.00  0.00     0.082 H 
BRANCH  22  25
ATOM     25  C   UNL A   1      34.161  19.477  24.572  1.00  0.00     0.081 A 
ATOM     26  C   UNL A   1      32.846  19.496  24.089  1.00  0.00    -0.035 A 
ATOM     27  C   UNL A   1      34.935  18.325  24.424  1.00  0.00     0.147 A 
ATOM     28  C   UNL A   1      32.330  18.372  23.436  1.00  0.00    -0.060 A 
ATOM     29  H   UNL A   1      32.260  20.337  24.214  1.00  0.00     0.065 H 
ATOM     30  C   UNL A   1      34.405  17.193  23.808  1.00  0.00    -0.024 A 
ATOM     31  F   UNL A   1      36.175  18.247  24.927  1.00  0.00    -0.205 F 
ATOM     32  C   UNL A   1      33.106  17.220  23.304  1.00  0.00    -0.059 A 
ATOM     33  H   UNL A   1      31.373  18.395  23.053  1.00  0.00     0.062 H 
ATOM     34  H   UNL A   1      34.973  16.335  23.728  1.00  0.00     0.065 H 
ATOM     35  H   UNL A   1      32.718  16.388  22.832  1.00  0.00     0.062 H 
ENDBRANCH  22  25
ENDBRANCH  14  17
ENDBRANCH  12  14
ENDBRANCH   7  10
ENDBRANCH   4   7
ENDBRANCH   1   4
BRANCH   1  36
ATOM     36  C   UNL A   1      42.457  18.998  26.848  1.00  0.00    -0.052 C 
ATOM     37  H   UNL A   1      41.777  18.178  26.950  1.00  0.00     0.027 H 
ATOM     38  H   UNL A   1      43.335  18.903  27.453  1.00  0.00     0.027 H 
BRANCH  36  39
ATOM     39  C   UNL A   1      42.945  19.030  25.394  1.00  0.00    -0.036 C 
ATOM     40  H   UNL A   1      42.362  19.749  24.858  1.00  0.00     0.028 H 
ATOM     41  H   UNL A   1      42.833  18.039  25.006  1.00  0.00     0.028 H 
BRANCH  39  42
ATOM     42  C   UNL A   1      44.421  19.400  25.244  1.00  0.00     0.018 C 
ATOM     43  H   UNL A   1      44.999  18.506  25.144  1.00  0.00     0.049 H 
ATOM     44  H   UNL A   1      44.726  19.947  26.112  1.00  0.00     0.049 H 
BRANCH  42  45
ATOM     45  N   UNL A   1      44.629  20.235  24.073  1.00  0.00    -0.352 N 
ATOM     46  C   UNL A   1      44.514  21.593  23.923  1.00  0.00     0.251 C 
ATOM     47  H   UNL A   1      44.895  19.750  23.259  1.00  0.00     0.163 HD
ATOM     48  O   UNL A   1      44.368  22.059  22.799  1.00  0.00    -0.269 OA
BRANCH  46  49
ATOM     49  C   UNL A   1      44.552  22.508  25.083  1.00  0.00     0.039 A 
ATOM     50  C   UNL A   1      45.783  22.691  25.727  1.00  0.00    -0.049 A 
ATOM     51  C   UNL A   1      43.393  23.091  25.608  1.00  0.00    -0.049 A 
ATOM     52  C   UNL A   1      45.865  23.498  26.856  1.00  0.00    -0.053 A 
ATOM     53  H   UNL A   1      46.629  22.225  25.363  1.00  0.00     0.063 H 
ATOM     54  C   UNL A   1      43.473  23.919  26.724  1.00  0.00    -0.053 A 
ATOM     55  H   UNL A   1      42.478  22.907  25.166  1.00  0.00     0.063 H 
ATOM     56  C   UNL A   1      44.714  24.135  27.335  1.00  0.00    -0.014 A 
ATOM     57  H   UNL A   1      46.769  23.628  27.337  1.00  0.00     0.063 H 
ATOM     58  H   UNL A   1      42.624  24.370  27.098  1.00  0.00     0.063 H 
BRANCH  56  59
ATOM     59  C   UNL A   1      44.867  25.186  28.366  1.00  0.00     0.031 A 
ATOM     60  C   UNL A   1      45.303  26.531  27.739  1.00  0.00     0.074 A 
ATOM     61  C   UNL A   1      44.629  24.815  29.662  1.00  0.00     0.049 A 
ATOM     62  N   UNL A   1      45.891  27.557  28.275  1.00  0.00    -0.248 NA
ATOM     63  C   UNL A   1      45.088  26.754  26.279  1.00  0.00    -0.034 C 
ATOM     64  C   UNL A   1      44.159  23.477  30.076  1.00  0.00    -0.036 A 
ATOM     65  N   UNL A   1      44.729  25.455  30.884  1.00  0.00    -0.354 N 
ATOM     66  C   UNL A   1      45.948  28.584  27.302  1.00  0.00     0.074 A 
ATOM     67  C   UNL A   1      45.528  27.997  26.069  1.00  0.00    -0.034 C 
ATOM     68  H   UNL A   1      44.691  26.097  25.590  1.00  0.00     0.065 H 
ATOM     69  C   UNL A   1      44.102  23.376  31.421  1.00  0.00    -0.036 A 
ATOM     70  H   UNL A   1      43.908  22.717  29.424  1.00  0.00     0.065 H 
ATOM     71  C   UNL A   1      44.513  24.628  32.023  1.00  0.00     0.049 A 
ATOM     72  H   UNL A   1      44.936  26.414  30.961  1.00  0.00     0.167 HD
ATOM     73  C   UNL A   1      46.227  29.887  27.608  1.00  0.00     0.037 A 
ATOM     74  H   UNL A   1      45.561  28.465  25.150  1.00  0.00     0.065 H 
ATOM     75  H   UNL A   1      43.810  22.535  31.943  1.00  0.00     0.065 H 
ATOM     76  C   UNL A   1      44.701  24.919  33.350  1.00  0.00     0.037 A 
ATOM     77  C   UNL A   1      46.534  29.998  28.991  1.00  0.00     0.049 A 
ATOM     78  C   UNL A   1      44.973  26.363  33.388  1.00  0.00     0.074 A 
ATOM     79  C   UNL A   1      47.634  29.620  29.713  1.00  0.00    -0.036 A 
ATOM     80  N   UNL A   1      45.486  30.230  29.844  1.00  0.00    -0.354 N 
ATOM     81  N   UNL A   1      44.082  27.287  33.187  1.00  0.00    -0.248 NA
ATOM     82  C   UNL A   1      46.357  26.812  33.584  1.00  0.00    -0.034 C 
ATOM     83  C   UNL A   1      47.080  29.164  30.924  1.00  0.00    -0.036 A 
ATOM     84  H   UNL A   1      48.627  29.658  29.437  1.00  0.00     0.065 H 
ATOM     85  C   UNL A   1      45.722  29.499  30.980  1.00  0.00     0.049 A 
ATOM     86  H   UNL A   1      44.710  30.811  29.674  1.00  0.00     0.167 HD
ATOM     87  C   UNL A   1      44.864  28.376  32.895  1.00  0.00     0.074 A 
ATOM     88  C   UNL A   1      46.170  28.122  33.460  1.00  0.00    -0.034 C 
ATOM     89  H   UNL A   1      47.217  26.271  33.764  1.00  0.00     0.065 H 
ATOM     90  H   UNL A   1      47.597  28.660  31.661  1.00  0.00     0.065 H 
ATOM     91  C   UNL A   1      44.592  29.102  31.782  1.00  0.00     0.037 A 
ATOM     92  H   UNL A   1      46.854  28.848  33.728  1.00  0.00     0.065 H 
BRANCH  73  93
ATOM     93  C   UNL A   1      46.068  31.178  26.849  1.00  0.00     0.064 A 
ATOM     94  C   UNL A   1      44.827  31.758  26.567  1.00  0.00     0.173 A 
ATOM     95  C   UNL A   1      47.197  32.032  26.732  1.00  0.00     0.173 A 
ATOM     96  F   UNL A   1      43.695  31.049  26.660  1.00  0.00    -0.203 F 
ATOM     97  C   UNL A   1      44.712  33.124  26.280  1.00  0.00     0.198 A 
ATOM     98  C   UNL A   1      47.073  33.399  26.495  1.00  0.00     0.198 A 
ATOM     99  F   UNL A   1      48.440  31.562  26.930  1.00  0.00    -0.203 F 
ATOM    100  F   UNL A   1      43.499  33.656  26.070  1.00  0.00    -0.200 F 
ATOM    101  C   UNL A   1      45.825  33.949  26.288  1.00  0.00     0.200 A 
ATOM    102  F   UNL A   1      48.157  34.187  26.539  1.00  0.00    -0.200 F 
ATOM    103  F   UNL A   1      45.690  35.273  26.130  1.00  0.00    -0.200 F 
ENDBRANCH  73  93
BRANCH  76 104
ATOM    104  C   UNL A   1      44.801  24.190  34.679  1.00  0.00     0.064 A 
ATOM    105  C   UNL A   1      44.221  24.768  35.848  1.00  0.00     0.173 A 
ATOM    106  C   UNL A   1      45.536  23.026  34.932  1.00  0.00     0.173 A 
ATOM    107  F   UNL A   1      43.339  25.774  35.774  1.00  0.00    -0.203 F 
ATOM    108  C   UNL A   1      44.525  24.359  37.147  1.00  0.00     0.198 A 
ATOM    109  C   UNL A   1      45.790  22.573  36.242  1.00  0.00     0.198 A 
ATOM    110  F   UNL A   1      46.022  22.283  33.933  1.00  0.00    -0.203 F 
ATOM    111  F   UNL A   1      44.049  25.054  38.191  1.00  0.00    -0.200 F 
ATOM    112  C   UNL A   1      45.333  23.270  37.346  1.00  0.00     0.200 A 
ATOM    113  F   UNL A   1      46.514  21.459  36.430  1.00  0.00    -0.200 F 
ATOM    114  F   UNL A   1      45.656  22.888  38.589  1.00  0.00    -0.200 F 
ENDBRANCH  76 104
BRANCH  91 115
ATOM    115  C   UNL A   1      43.145  29.047  31.340  1.00  0.00     0.064 A 
ATOM    116  C   UNL A   1      42.683  28.325  30.227  1.00  0.00     0.173 A 
ATOM    117  C   UNL A   1      42.158  29.660  32.127  1.00  0.00     0.173 A 
ATOM    118  F   UNL A   1      43.538  27.708  29.414  1.00  0.00    -0.203 F 
ATOM    119  C   UNL A   1      41.325  28.217  29.913  1.00  0.00     0.198 A 
ATOM    120  C   UNL A   1      40.799  29.550  31.821  1.00  0.00     0.198 A 
ATOM    121  F   UNL A   1      42.515  30.379  33.202  1.00  0.00    -0.203 F 
ATOM    122  F   UNL A   1      40.938  27.527  28.829  1.00  0.00    -0.200 F 
ATOM    123  C   UNL A   1      40.383  28.830  30.714  1.00  0.00     0.200 A 
ATOM    124  F   UNL A   1      39.890  30.156  32.598  1.00  0.00    -0.200 F 
ATOM    125  F   UNL A   1      39.080  28.740  30.411  1.00  0.00    -0.200 F 
ENDBRANCH  91 115
ENDBRANCH  56  59
ENDBRANCH  46  49
ENDBRANCH  42  45
ENDBRANCH  39  42
ENDBRANCH  36  39
ENDBRANCH   1  36
TORSDOF 15
ENDMDL
