MODEL 1
REMARK VINA RESULT:     -12.6      0.000      0.000
REMARK SMILES O=C(NCCCCCCNC(=O)c1cccnc1Nc1cccc(C(F)(F)F)c1)c1ccc(-c2c3nc(c(-c4c(F)c(F)c(F)c(F)c4F)c4ccc([nH]4)c(-c4c(F)c(F)c(F)c(F)c4F)c4nc(c(-c5c(F)c(F)c(F)c(F)c5F)c5ccc2[nH]5)C=C4)C=C3)cc1
REMARK SMILES IDX 7 1 6 4 5 7 4 10 3 13 1 14 2 15 30 17 31 18 92 19 32 20
REMARK SMILES IDX 91 22 33 24 34 27 35 28 85 29 36 30 90 31 84 32 86 33 37 34
REMARK SMILES IDX 89 35 83 37 82 39 38 41 70 44 50 45 69 46 51 47 54 48 68 49
REMARK SMILES IDX 87 50 52 51 53 53 67 55 88 56 55 59 39 61 40 62 48 63 41 64
REMARK SMILES IDX 42 65 46 66 49 67 43 68 44 69 47 70 45 71 71 72 72 73 80 74
REMARK SMILES IDX 73 75 74 76 78 77 81 78 75 79 76 80 79 81 77 82 56 83 57 84
REMARK SMILES IDX 65 85 58 86 59 87 63 88 66 89 60 90 61 91 64 92 62 93 8 94
REMARK SMILES IDX 9 97 10 100 11 101 12 103 13 104 14 105 18 106 15 107 17 109
REMARK SMILES IDX 16 110 19 113 20 115 21 116 29 117 22 118 24 120 23 122
REMARK SMILES IDX 25 125 26 126 27 127 28 128
REMARK H PARENT 7 2 7 3 6 5 6 6 5 8 5 9 4 11 4 12 3 16 31 21 92 23 32 25 91 26
REMARK H PARENT 90 36 84 38 86 40 89 42 83 43 51 52 54 54 87 57 52 58 88 60
REMARK H PARENT 8 95 8 96 9 98 9 99 10 102 14 108 15 111 16 112 19 114 21 119
REMARK H PARENT 29 121 22 123 23 124
REMARK Flexibility Score: inf
ROOT
ATOM      1  C   UNL A   1      32.515  29.909  27.018  1.00  0.00    -0.052 C 
ATOM      2  H   UNL A   1      31.969  29.057  27.367  1.00  0.00     0.027 H 
ATOM      3  H   UNL A   1      32.817  30.573  27.799  1.00  0.00     0.027 H 
ENDROOT
BRANCH   1   4
ATOM      4  C   UNL A   1      31.592  30.721  26.103  1.00  0.00    -0.052 C 
ATOM      5  H   UNL A   1      32.002  30.701  25.115  1.00  0.00     0.027 H 
ATOM      6  H   UNL A   1      30.626  30.266  26.172  1.00  0.00     0.027 H 
BRANCH   4   7
ATOM      7  C   UNL A   1      31.405  32.183  26.508  1.00  0.00    -0.036 C 
ATOM      8  H   UNL A   1      31.265  32.761  25.619  1.00  0.00     0.028 H 
ATOM      9  H   UNL A   1      30.558  32.213  27.162  1.00  0.00     0.028 H 
BRANCH   7  10
ATOM     10  C   UNL A   1      32.574  32.773  27.281  1.00  0.00     0.018 C 
ATOM     11  H   UNL A   1      32.708  32.213  28.183  1.00  0.00     0.049 H 
ATOM     12  H   UNL A   1      33.442  32.721  26.657  1.00  0.00     0.049 H 
BRANCH  10  13
ATOM     13  N   UNL A   1      32.355  34.168  27.626  1.00  0.00    -0.352 N 
ATOM     14  O   UNL A   1      32.546  36.026  28.897  1.00  0.00    -0.269 OA
ATOM     15  C   UNL A   1      32.969  34.912  28.599  1.00  0.00     0.251 C 
ATOM     16  H   UNL A   1      31.678  34.640  27.089  1.00  0.00     0.163 HD
BRANCH  15  17
ATOM     17  C   UNL A   1      34.146  34.357  29.298  1.00  0.00     0.039 A 
ATOM     18  C   UNL A   1      33.983  33.635  30.484  1.00  0.00    -0.049 A 
ATOM     19  C   UNL A   1      35.419  34.545  28.754  1.00  0.00    -0.049 A 
ATOM     20  C   UNL A   1      35.098  33.191  31.180  1.00  0.00    -0.053 A 
ATOM     21  H   UNL A   1      33.036  33.432  30.840  1.00  0.00     0.063 H 
ATOM     22  C   UNL A   1      36.534  34.018  29.409  1.00  0.00    -0.053 A 
ATOM     23  H   UNL A   1      35.535  35.070  27.873  1.00  0.00     0.063 H 
ATOM     24  C   UNL A   1      36.380  33.338  30.629  1.00  0.00    -0.014 A 
ATOM     25  H   UNL A   1      34.984  32.751  32.108  1.00  0.00     0.063 H 
ATOM     26  H   UNL A   1      37.473  34.129  28.997  1.00  0.00     0.063 H 
BRANCH  24  27
ATOM     27  C   UNL A   1      37.522  32.638  31.264  1.00  0.00     0.031 A 
ATOM     28  C   UNL A   1      38.216  31.493  30.591  1.00  0.00     0.074 A 
ATOM     29  C   UNL A   1      37.912  33.059  32.484  1.00  0.00     0.049 A 
ATOM     30  N   UNL A   1      39.205  30.759  31.036  1.00  0.00    -0.248 NA
ATOM     31  C   UNL A   1      37.743  31.111  29.252  1.00  0.00    -0.034 C 
ATOM     32  C   UNL A   1      37.288  34.153  33.235  1.00  0.00    -0.036 A 
ATOM     33  N   UNL A   1      38.916  32.624  33.310  1.00  0.00    -0.354 N 
ATOM     34  C   UNL A   1      39.459  29.819  30.047  1.00  0.00     0.074 A 
ATOM     35  C   UNL A   1      38.514  30.065  28.979  1.00  0.00    -0.034 C 
ATOM     36  H   UNL A   1      37.003  31.543  28.676  1.00  0.00     0.065 H 
ATOM     37  C   UNL A   1      37.936  34.320  34.395  1.00  0.00    -0.036 A 
ATOM     38  H   UNL A   1      36.477  34.707  32.918  1.00  0.00     0.065 H 
ATOM     39  C   UNL A   1      38.968  33.297  34.506  1.00  0.00     0.049 A 
ATOM     40  H   UNL A   1      39.539  31.900  33.069  1.00  0.00     0.167 HD
ATOM     41  C   UNL A   1      40.400  28.845  30.042  1.00  0.00     0.037 A 
ATOM     42  H   UNL A   1      38.449  29.501  28.116  1.00  0.00     0.065 H 
ATOM     43  H   UNL A   1      37.736  35.052  35.095  1.00  0.00     0.065 H 
ATOM     44  C   UNL A   1      39.730  33.088  35.594  1.00  0.00     0.037 A 
ATOM     45  C   UNL A   1      41.346  28.628  31.109  1.00  0.00     0.049 A 
ATOM     46  C   UNL A   1      40.734  31.971  35.566  1.00  0.00     0.074 A 
ATOM     47  C   UNL A   1      42.390  27.718  31.160  1.00  0.00    -0.036 A 
ATOM     48  N   UNL A   1      41.354  29.311  32.315  1.00  0.00    -0.354 N 
ATOM     49  N   UNL A   1      41.019  31.142  34.592  1.00  0.00    -0.248 NA
ATOM     50  C   UNL A   1      41.514  31.752  36.790  1.00  0.00    -0.034 C 
ATOM     51  C   UNL A   1      42.981  27.803  32.423  1.00  0.00    -0.036 A 
ATOM     52  H   UNL A   1      42.679  27.086  30.397  1.00  0.00     0.065 H 
ATOM     53  C   UNL A   1      42.350  28.809  33.137  1.00  0.00     0.049 A 
ATOM     54  H   UNL A   1      40.743  30.046  32.553  1.00  0.00     0.167 HD
ATOM     55  C   UNL A   1      42.017  30.312  35.080  1.00  0.00     0.074 A 
ATOM     56  C   UNL A   1      42.314  30.761  36.424  1.00  0.00    -0.034 C 
ATOM     57  H   UNL A   1      41.457  32.242  37.697  1.00  0.00     0.065 H 
ATOM     58  H   UNL A   1      43.758  27.215  32.765  1.00  0.00     0.065 H 
ATOM     59  C   UNL A   1      42.626  29.264  34.474  1.00  0.00     0.037 A 
ATOM     60  H   UNL A   1      43.052  30.360  37.021  1.00  0.00     0.065 H 
BRANCH  41  61
ATOM     61  C   UNL A   1      40.460  27.912  28.868  1.00  0.00     0.064 A 
ATOM     62  C   UNL A   1      39.693  26.740  28.814  1.00  0.00     0.173 A 
ATOM     63  C   UNL A   1      41.208  28.260  27.732  1.00  0.00     0.173 A 
ATOM     64  F   UNL A   1      38.965  26.360  29.874  1.00  0.00    -0.203 F 
ATOM     65  C   UNL A   1      39.675  25.949  27.667  1.00  0.00     0.198 A 
ATOM     66  C   UNL A   1      41.169  27.481  26.578  1.00  0.00     0.198 A 
ATOM     67  F   UNL A   1      41.953  29.376  27.729  1.00  0.00    -0.203 F 
ATOM     68  F   UNL A   1      38.948  24.823  27.643  1.00  0.00    -0.200 F 
ATOM     69  C   UNL A   1      40.403  26.326  26.547  1.00  0.00     0.200 A 
ATOM     70  F   UNL A   1      41.859  27.856  25.493  1.00  0.00    -0.200 F 
ATOM     71  F   UNL A   1      40.362  25.578  25.436  1.00  0.00    -0.200 F 
ENDBRANCH  41  61
BRANCH  44  72
ATOM     72  C   UNL A   1      39.536  33.915  36.815  1.00  0.00     0.064 A 
ATOM     73  C   UNL A   1      38.761  33.458  37.887  1.00  0.00     0.173 A 
ATOM     74  C   UNL A   1      40.103  35.196  36.919  1.00  0.00     0.173 A 
ATOM     75  F   UNL A   1      38.184  32.248  37.828  1.00  0.00    -0.203 F 
ATOM     76  C   UNL A   1      38.528  34.262  39.000  1.00  0.00     0.198 A 
ATOM     77  C   UNL A   1      39.903  35.983  38.050  1.00  0.00     0.198 A 
ATOM     78  F   UNL A   1      40.861  35.680  35.924  1.00  0.00    -0.203 F 
ATOM     79  F   UNL A   1      37.727  33.827  39.982  1.00  0.00    -0.200 F 
ATOM     80  C   UNL A   1      39.103  35.522  39.083  1.00  0.00     0.200 A 
ATOM     81  F   UNL A   1      40.478  37.190  38.133  1.00  0.00    -0.200 F 
ATOM     82  F   UNL A   1      38.877  36.296  40.153  1.00  0.00    -0.200 F 
ENDBRANCH  44  72
BRANCH  59  83
ATOM     83  C   UNL A   1      43.678  28.541  35.262  1.00  0.00     0.064 A 
ATOM     84  C   UNL A   1      45.027  28.924  35.205  1.00  0.00     0.173 A 
ATOM     85  C   UNL A   1      43.332  27.477  36.108  1.00  0.00     0.173 A 
ATOM     86  F   UNL A   1      45.411  29.922  34.395  1.00  0.00    -0.203 F 
ATOM     87  C   UNL A   1      45.993  28.252  35.948  1.00  0.00     0.198 A 
ATOM     88  C   UNL A   1      44.296  26.830  36.876  1.00  0.00     0.198 A 
ATOM     89  F   UNL A   1      42.056  27.074  36.202  1.00  0.00    -0.203 F 
ATOM     90  F   UNL A   1      47.282  28.601  35.837  1.00  0.00    -0.200 F 
ATOM     91  C   UNL A   1      45.626  27.213  36.789  1.00  0.00     0.200 A 
ATOM     92  F   UNL A   1      43.938  25.836  37.699  1.00  0.00    -0.200 F 
ATOM     93  F   UNL A   1      46.557  26.574  37.511  1.00  0.00    -0.200 F 
ENDBRANCH  59  83
ENDBRANCH  24  27
ENDBRANCH  15  17
ENDBRANCH  10  13
ENDBRANCH   7  10
ENDBRANCH   4   7
ENDBRANCH   1   4
BRANCH   1  94
ATOM     94  C   UNL A   1      33.807  29.408  26.363  1.00  0.00    -0.036 C 
ATOM     95  H   UNL A   1      34.576  29.398  27.107  1.00  0.00     0.028 H 
ATOM     96  H   UNL A   1      34.015  30.076  25.554  1.00  0.00     0.028 H 
BRANCH  94  97
ATOM     97  C   UNL A   1      33.714  28.011  25.756  1.00  0.00     0.018 C 
ATOM     98  H   UNL A   1      34.696  27.592  25.694  1.00  0.00     0.049 H 
ATOM     99  H   UNL A   1      33.274  28.095  24.783  1.00  0.00     0.049 H 
BRANCH  97 100
ATOM    100  N   UNL A   1      32.878  27.138  26.561  1.00  0.00    -0.352 N 
ATOM    101  C   UNL A   1      32.309  25.942  26.208  1.00  0.00     0.255 C 
ATOM    102  H   UNL A   1      32.697  27.444  27.478  1.00  0.00     0.163 HD
ATOM    103  O   UNL A   1      31.391  25.472  26.876  1.00  0.00    -0.269 OA
BRANCH 101 104
ATOM    104  C   UNL A   1      32.785  25.221  25.015  1.00  0.00     0.082 A 
ATOM    105  C   UNL A   1      34.022  24.564  25.044  1.00  0.00    -0.044 A 
ATOM    106  C   UNL A   1      31.985  25.140  23.871  1.00  0.00     0.143 A 
ATOM    107  C   UNL A   1      34.477  23.915  23.905  1.00  0.00    -0.043 A 
ATOM    108  H   UNL A   1      34.591  24.563  25.906  1.00  0.00     0.063 H 
ATOM    109  N   UNL A   1      32.444  24.510  22.759  1.00  0.00    -0.238 NA
ATOM    110  C   UNL A   1      33.661  23.925  22.792  1.00  0.00     0.029 A 
ATOM    111  H   UNL A   1      35.394  23.442  23.890  1.00  0.00     0.064 H 
ATOM    112  H   UNL A   1      34.000  23.459  21.935  1.00  0.00     0.084 H 
BRANCH 106 113
ATOM    113  N   UNL A   1      30.736  25.798  23.808  1.00  0.00    -0.340 N 
ATOM    114  H   UNL A   1      29.955  25.299  24.141  1.00  0.00     0.168 HD
BRANCH 113 115
ATOM    115  C   UNL A   1      30.501  27.093  23.315  1.00  0.00     0.040 A 
ATOM    116  C   UNL A   1      31.573  27.879  22.888  1.00  0.00    -0.039 A 
ATOM    117  C   UNL A   1      29.219  27.655  23.336  1.00  0.00    -0.026 A 
ATOM    118  C   UNL A   1      31.359  29.175  22.416  1.00  0.00    -0.060 A 
ATOM    119  H   UNL A   1      32.532  27.498  22.921  1.00  0.00     0.064 H 
ATOM    120  C   UNL A   1      28.987  28.962  22.885  1.00  0.00     0.058 A 
ATOM    121  H   UNL A   1      28.428  27.096  23.693  1.00  0.00     0.065 H 
ATOM    122  C   UNL A   1      30.072  29.713  22.410  1.00  0.00    -0.050 A 
ATOM    123  H   UNL A   1      32.154  29.737  22.072  1.00  0.00     0.062 H 
ATOM    124  H   UNL A   1      29.916  30.669  22.053  1.00  0.00     0.063 H 
BRANCH 120 125
ATOM    125  C   UNL A   1      27.601  29.548  22.905  1.00  0.00     0.416 C 
ATOM    126  F   UNL A   1      27.450  30.492  23.876  1.00  0.00    -0.166 F 
ATOM    127  F   UNL A   1      27.278  30.167  21.734  1.00  0.00    -0.166 F 
ATOM    128  F   UNL A   1      26.615  28.633  23.126  1.00  0.00    -0.166 F 
ENDBRANCH 120 125
ENDBRANCH 113 115
ENDBRANCH 106 113
ENDBRANCH 101 104
ENDBRANCH  97 100
ENDBRANCH  94  97
ENDBRANCH   1  94
TORSDOF 16
ENDMDL
MODEL 2
REMARK VINA RESULT:     -12.5      6.208     11.626
REMARK SMILES O=C(NCCCCCCNC(=O)c1cccnc1Nc1cccc(C(F)(F)F)c1)c1ccc(-c2c3nc(c(-c4c(F)c(F)c(F)c(F)c4F)c4ccc([nH]4)c(-c4c(F)c(F)c(F)c(F)c4F)c4nc(c(-c5c(F)c(F)c(F)c(F)c5F)c5ccc2[nH]5)C=C4)C=C3)cc1
REMARK SMILES IDX 7 1 6 4 5 7 4 10 3 13 1 14 2 15 30 17 31 18 92 19 32 20
REMARK SMILES IDX 91 22 33 24 34 27 35 28 85 29 36 30 90 31 84 32 86 33 37 34
REMARK SMILES IDX 89 35 83 37 82 39 38 41 70 44 50 45 69 46 51 47 54 48 68 49
REMARK SMILES IDX 87 50 52 51 53 53 67 55 88 56 55 59 39 61 40 62 48 63 41 64
REMARK SMILES IDX 42 65 46 66 49 67 43 68 44 69 47 70 45 71 71 72 72 73 80 74
REMARK SMILES IDX 73 75 74 76 78 77 81 78 75 79 76 80 79 81 77 82 56 83 57 84
REMARK SMILES IDX 65 85 58 86 59 87 63 88 66 89 60 90 61 91 64 92 62 93 8 94
REMARK SMILES IDX 9 97 10 100 11 101 12 103 13 104 14 105 18 106 15 107 17 109
REMARK SMILES IDX 16 110 19 113 20 115 21 116 29 117 22 118 24 120 23 122
REMARK SMILES IDX 25 125 26 126 27 127 28 128
REMARK H PARENT 7 2 7 3 6 5 6 6 5 8 5 9 4 11 4 12 3 16 31 21 92 23 32 25 91 26
REMARK H PARENT 90 36 84 38 86 40 89 42 83 43 51 52 54 54 87 57 52 58 88 60
REMARK H PARENT 8 95 8 96 9 98 9 99 10 102 14 108 15 111 16 112 19 114 21 119
REMARK H PARENT 29 121 22 123 23 124
REMARK Flexibility Score: inf
ROOT
ATOM      1  C   UNL A   1      37.396  22.180  24.708  1.00  0.00    -0.052 C 
ATOM      2  H   UNL A   1      36.939  22.578  23.826  1.00  0.00     0.027 H 
ATOM      3  H   UNL A   1      38.464  22.144  24.658  1.00  0.00     0.027 H 
ENDROOT
BRANCH   1   4
ATOM      4  C   UNL A   1      36.929  20.730  24.872  1.00  0.00    -0.052 C 
ATOM      5  H   UNL A   1      36.325  20.674  25.753  1.00  0.00     0.027 H 
ATOM      6  H   UNL A   1      36.399  20.484  23.977  1.00  0.00     0.027 H 
BRANCH   4   7
ATOM      7  C   UNL A   1      38.051  19.701  25.001  1.00  0.00    -0.036 C 
ATOM      8  H   UNL A   1      37.660  18.840  25.500  1.00  0.00     0.028 H 
ATOM      9  H   UNL A   1      38.388  19.490  24.007  1.00  0.00     0.028 H 
BRANCH   7  10
ATOM     10  C   UNL A   1      39.265  20.191  25.776  1.00  0.00     0.018 C 
ATOM     11  H   UNL A   1      39.696  21.019  25.253  1.00  0.00     0.049 H 
ATOM     12  H   UNL A   1      38.938  20.475  26.755  1.00  0.00     0.049 H 
BRANCH  10  13
ATOM     13  N   UNL A   1      40.274  19.156  25.926  1.00  0.00    -0.352 N 
ATOM     14  O   UNL A   1      42.376  18.335  26.040  1.00  0.00    -0.269 OA
ATOM     15  C   UNL A   1      41.623  19.301  26.120  1.00  0.00     0.251 C 
ATOM     16  H   UNL A   1      39.945  18.229  25.885  1.00  0.00     0.163 HD
BRANCH  15  17
ATOM     17  C   UNL A   1      42.169  20.641  26.417  1.00  0.00     0.039 A 
ATOM     18  C   UNL A   1      42.551  21.491  25.375  1.00  0.00    -0.049 A 
ATOM     19  C   UNL A   1      42.282  21.056  27.746  1.00  0.00    -0.049 A 
ATOM     20  C   UNL A   1      43.143  22.713  25.663  1.00  0.00    -0.053 A 
ATOM     21  H   UNL A   1      42.393  21.211  24.395  1.00  0.00     0.063 H 
ATOM     22  C   UNL A   1      42.795  22.324  28.032  1.00  0.00    -0.053 A 
ATOM     23  H   UNL A   1      41.990  20.430  28.513  1.00  0.00     0.063 H 
ATOM     24  C   UNL A   1      43.230  23.160  26.991  1.00  0.00    -0.014 A 
ATOM     25  H   UNL A   1      43.522  23.294  24.898  1.00  0.00     0.063 H 
ATOM     26  H   UNL A   1      42.854  22.647  29.010  1.00  0.00     0.063 H 
BRANCH  24  27
ATOM     27  C   UNL A   1      43.631  24.563  27.252  1.00  0.00     0.031 A 
ATOM     28  C   UNL A   1      42.651  25.583  27.749  1.00  0.00     0.074 A 
ATOM     29  C   UNL A   1      44.914  24.901  27.015  1.00  0.00     0.049 A 
ATOM     30  N   UNL A   1      42.844  26.855  27.991  1.00  0.00    -0.248 NA
ATOM     31  C   UNL A   1      41.276  25.127  28.004  1.00  0.00    -0.034 C 
ATOM     32  C   UNL A   1      45.944  23.987  26.510  1.00  0.00    -0.036 A 
ATOM     33  N   UNL A   1      45.575  26.094  27.160  1.00  0.00    -0.354 N 
ATOM     34  C   UNL A   1      41.617  27.356  28.404  1.00  0.00     0.074 A 
ATOM     35  C   UNL A   1      40.679  26.255  28.372  1.00  0.00    -0.034 C 
ATOM     36  H   UNL A   1      40.878  24.177  27.919  1.00  0.00     0.065 H 
ATOM     37  C   UNL A   1      47.107  24.643  26.410  1.00  0.00    -0.036 A 
ATOM     38  H   UNL A   1      45.794  22.995  26.269  1.00  0.00     0.065 H 
ATOM     39  C   UNL A   1      46.891  26.038  26.769  1.00  0.00     0.049 A 
ATOM     40  H   UNL A   1      45.149  26.909  27.510  1.00  0.00     0.167 HD
ATOM     41  C   UNL A   1      41.315  28.623  28.775  1.00  0.00     0.037 A 
ATOM     42  H   UNL A   1      39.676  26.335  28.606  1.00  0.00     0.065 H 
ATOM     43  H   UNL A   1      48.009  24.227  26.126  1.00  0.00     0.065 H 
ATOM     44  C   UNL A   1      47.813  27.011  26.664  1.00  0.00     0.037 A 
ATOM     45  C   UNL A   1      42.269  29.704  28.819  1.00  0.00     0.049 A 
ATOM     46  C   UNL A   1      47.427  28.412  27.045  1.00  0.00     0.074 A 
ATOM     47  C   UNL A   1      42.076  31.003  29.258  1.00  0.00    -0.036 A 
ATOM     48  N   UNL A   1      43.585  29.618  28.392  1.00  0.00    -0.354 N 
ATOM     49  N   UNL A   1      46.285  28.856  27.513  1.00  0.00    -0.248 NA
ATOM     50  C   UNL A   1      48.452  29.450  26.876  1.00  0.00    -0.034 C 
ATOM     51  C   UNL A   1      43.254  31.720  29.031  1.00  0.00    -0.036 A 
ATOM     52  H   UNL A   1      41.211  31.377  29.680  1.00  0.00     0.065 H 
ATOM     53  C   UNL A   1      44.201  30.854  28.509  1.00  0.00     0.049 A 
ATOM     54  H   UNL A   1      44.019  28.800  28.056  1.00  0.00     0.167 HD
ATOM     55  C   UNL A   1      46.458  30.218  27.703  1.00  0.00     0.074 A 
ATOM     56  C   UNL A   1      47.825  30.522  27.336  1.00  0.00    -0.034 C 
ATOM     57  H   UNL A   1      49.409  29.365  26.500  1.00  0.00     0.065 H 
ATOM     58  H   UNL A   1      43.393  32.726  29.220  1.00  0.00     0.065 H 
ATOM     59  C   UNL A   1      45.561  31.139  28.133  1.00  0.00     0.037 A 
ATOM     60  H   UNL A   1      48.256  31.455  27.420  1.00  0.00     0.065 H 
BRANCH  41  61
ATOM     61  C   UNL A   1      39.896  28.942  29.148  1.00  0.00     0.064 A 
ATOM     62  C   UNL A   1      38.947  29.322  28.189  1.00  0.00     0.173 A 
ATOM     63  C   UNL A   1      39.456  28.749  30.467  1.00  0.00     0.173 A 
ATOM     64  F   UNL A   1      39.316  29.525  26.916  1.00  0.00    -0.203 F 
ATOM     65  C   UNL A   1      37.609  29.500  28.538  1.00  0.00     0.198 A 
ATOM     66  C   UNL A   1      38.115  28.903  30.808  1.00  0.00     0.198 A 
ATOM     67  F   UNL A   1      40.323  28.377  31.421  1.00  0.00    -0.203 F 
ATOM     68  F   UNL A   1      36.721  29.880  27.608  1.00  0.00    -0.200 F 
ATOM     69  C   UNL A   1      37.193  29.279  29.843  1.00  0.00     0.200 A 
ATOM     70  F   UNL A   1      37.712  28.672  32.064  1.00  0.00    -0.200 F 
ATOM     71  F   UNL A   1      35.901  29.424  30.169  1.00  0.00    -0.200 F 
ENDBRANCH  41  61
BRANCH  44  72
ATOM     72  C   UNL A   1      49.166  26.707  26.128  1.00  0.00     0.064 A 
ATOM     73  C   UNL A   1      49.483  26.932  24.783  1.00  0.00     0.173 A 
ATOM     74  C   UNL A   1      50.163  26.156  26.950  1.00  0.00     0.173 A 
ATOM     75  F   UNL A   1      48.559  27.441  23.954  1.00  0.00    -0.203 F 
ATOM     76  C   UNL A   1      50.730  26.584  24.271  1.00  0.00     0.198 A 
ATOM     77  C   UNL A   1      51.423  25.846  26.445  1.00  0.00     0.198 A 
ATOM     78  F   UNL A   1      49.915  25.927  28.248  1.00  0.00    -0.203 F 
ATOM     79  F   UNL A   1      50.984  26.748  22.965  1.00  0.00    -0.200 F 
ATOM     80  C   UNL A   1      51.701  26.047  25.103  1.00  0.00     0.200 A 
ATOM     81  F   UNL A   1      52.363  25.347  27.258  1.00  0.00    -0.200 F 
ATOM     82  F   UNL A   1      52.900  25.711  24.608  1.00  0.00    -0.200 F 
ENDBRANCH  44  72
BRANCH  59  83
ATOM     83  C   UNL A   1      46.038  32.558  28.234  1.00  0.00     0.064 A 
ATOM     84  C   UNL A   1      45.873  33.463  27.175  1.00  0.00     0.173 A 
ATOM     85  C   UNL A   1      46.634  33.028  29.414  1.00  0.00     0.173 A 
ATOM     86  F   UNL A   1      45.326  33.055  26.019  1.00  0.00    -0.203 F 
ATOM     87  C   UNL A   1      46.310  34.779  27.284  1.00  0.00     0.198 A 
ATOM     88  C   UNL A   1      47.038  34.355  29.532  1.00  0.00     0.198 A 
ATOM     89  F   UNL A   1      46.812  32.204  30.458  1.00  0.00    -0.203 F 
ATOM     90  F   UNL A   1      46.190  35.611  26.240  1.00  0.00    -0.200 F 
ATOM     91  C   UNL A   1      46.883  35.227  28.465  1.00  0.00     0.200 A 
ATOM     92  F   UNL A   1      47.579  34.789  30.678  1.00  0.00    -0.200 F 
ATOM     93  F   UNL A   1      47.294  36.497  28.571  1.00  0.00    -0.200 F 
ENDBRANCH  59  83
ENDBRANCH  24  27
ENDBRANCH  15  17
ENDBRANCH  10  13
ENDBRANCH   7  10
ENDBRANCH   4   7
ENDBRANCH   1   4
BRANCH   1  94
ATOM     94  C   UNL A   1      37.059  23.112  25.878  1.00  0.00    -0.036 C 
ATOM     95  H   UNL A   1      37.931  23.687  26.109  1.00  0.00     0.028 H 
ATOM     96  H   UNL A   1      36.745  22.483  26.685  1.00  0.00     0.028 H 
BRANCH  94  97
ATOM     97  C   UNL A   1      35.908  24.078  25.612  1.00  0.00     0.018 C 
ATOM     98  H   UNL A   1      36.232  25.074  25.828  1.00  0.00     0.049 H 
ATOM     99  H   UNL A   1      35.084  23.802  26.238  1.00  0.00     0.049 H 
BRANCH  97 100
ATOM    100  N   UNL A   1      35.471  24.014  24.228  1.00  0.00    -0.352 N 
ATOM    101  C   UNL A   1      34.225  23.713  23.742  1.00  0.00     0.255 C 
ATOM    102  H   UNL A   1      36.158  24.212  23.553  1.00  0.00     0.163 HD
ATOM    103  O   UNL A   1      34.080  23.400  22.563  1.00  0.00    -0.269 OA
BRANCH 101 104
ATOM    104  C   UNL A   1      33.056  23.746  24.637  1.00  0.00     0.082 A 
ATOM    105  C   UNL A   1      32.308  24.924  24.764  1.00  0.00    -0.044 A 
ATOM    106  C   UNL A   1      32.653  22.592  25.317  1.00  0.00     0.143 A 
ATOM    107  C   UNL A   1      31.227  24.954  25.634  1.00  0.00    -0.043 A 
ATOM    108  H   UNL A   1      32.558  25.761  24.215  1.00  0.00     0.063 H 
ATOM    109  N   UNL A   1      31.599  22.637  26.173  1.00  0.00    -0.238 NA
ATOM    110  C   UNL A   1      30.921  23.796  26.318  1.00  0.00     0.029 A 
ATOM    111  H   UNL A   1      30.671  25.814  25.764  1.00  0.00     0.064 H 
ATOM    112  H   UNL A   1      30.129  23.817  26.981  1.00  0.00     0.084 H 
BRANCH 106 113
ATOM    113  N   UNL A   1      33.390  21.392  25.216  1.00  0.00    -0.340 N 
ATOM    114  H   UNL A   1      34.154  21.287  25.828  1.00  0.00     0.168 HD
BRANCH 113 115
ATOM    115  C   UNL A   1      33.141  20.334  24.324  1.00  0.00     0.040 A 
ATOM    116  C   UNL A   1      32.252  20.516  23.262  1.00  0.00    -0.039 A 
ATOM    117  C   UNL A   1      33.688  19.063  24.535  1.00  0.00    -0.026 A 
ATOM    118  C   UNL A   1      31.977  19.469  22.380  1.00  0.00    -0.060 A 
ATOM    119  H   UNL A   1      31.795  21.431  23.128  1.00  0.00     0.064 H 
ATOM    120  C   UNL A   1      33.408  17.994  23.672  1.00  0.00     0.058 A 
ATOM    121  H   UNL A   1      34.310  18.909  25.344  1.00  0.00     0.065 H 
ATOM    122  C   UNL A   1      32.555  18.216  22.581  1.00  0.00    -0.050 A 
ATOM    123  H   UNL A   1      31.344  19.622  21.579  1.00  0.00     0.062 H 
ATOM    124  H   UNL A   1      32.355  17.446  21.923  1.00  0.00     0.063 H 
BRANCH 120 125
ATOM    125  C   UNL A   1      34.013  16.637  23.907  1.00  0.00     0.416 C 
ATOM    126  F   UNL A   1      33.140  15.774  24.500  1.00  0.00    -0.166 F 
ATOM    127  F   UNL A   1      34.404  16.031  22.751  1.00  0.00    -0.166 F 
ATOM    128  F   UNL A   1      35.115  16.652  24.709  1.00  0.00    -0.166 F 
ENDBRANCH 120 125
ENDBRANCH 113 115
ENDBRANCH 106 113
ENDBRANCH 101 104
ENDBRANCH  97 100
ENDBRANCH  94  97
ENDBRANCH   1  94
TORSDOF 16
ENDMDL
MODEL 3
REMARK VINA RESULT:     -12.5      1.056      2.034
REMARK SMILES O=C(NCCCCCCNC(=O)c1cccnc1Nc1cccc(C(F)(F)F)c1)c1ccc(-c2c3nc(c(-c4c(F)c(F)c(F)c(F)c4F)c4ccc([nH]4)c(-c4c(F)c(F)c(F)c(F)c4F)c4nc(c(-c5c(F)c(F)c(F)c(F)c5F)c5ccc2[nH]5)C=C4)C=C3)cc1
REMARK SMILES IDX 7 1 6 4 5 7 4 10 3 13 1 14 2 15 30 17 31 18 92 19 32 20
REMARK SMILES IDX 91 22 33 24 34 27 35 28 85 29 36 30 90 31 84 32 86 33 37 34
REMARK SMILES IDX 89 35 83 37 82 39 38 41 70 44 50 45 69 46 51 47 54 48 68 49
REMARK SMILES IDX 87 50 52 51 53 53 67 55 88 56 55 59 39 61 40 62 48 63 41 64
REMARK SMILES IDX 42 65 46 66 49 67 43 68 44 69 47 70 45 71 71 72 72 73 80 74
REMARK SMILES IDX 73 75 74 76 78 77 81 78 75 79 76 80 79 81 77 82 56 83 57 84
REMARK SMILES IDX 65 85 58 86 59 87 63 88 66 89 60 90 61 91 64 92 62 93 8 94
REMARK SMILES IDX 9 97 10 100 11 101 12 103 13 104 14 105 18 106 15 107 17 109
REMARK SMILES IDX 16 110 19 113 20 115 21 116 29 117 22 118 24 120 23 122
REMARK SMILES IDX 25 125 26 126 27 127 28 128
REMARK H PARENT 7 2 7 3 6 5 6 6 5 8 5 9 4 11 4 12 3 16 31 21 92 23 32 25 91 26
REMARK H PARENT 90 36 84 38 86 40 89 42 83 43 51 52 54 54 87 57 52 58 88 60
REMARK H PARENT 8 95 8 96 9 98 9 99 10 102 14 108 15 111 16 112 19 114 21 119
REMARK H PARENT 29 121 22 123 23 124
REMARK Flexibility Score: inf
ROOT
ATOM      1  C   UNL A   1      32.235  29.970  27.158  1.00  0.00    -0.052 C 
ATOM      2  H   UNL A   1      31.721  30.051  28.093  1.00  0.00     0.027 H 
ATOM      3  H   UNL A   1      33.230  30.363  27.181  1.00  0.00     0.027 H 
ENDROOT
BRANCH   1   4
ATOM      4  C   UNL A   1      31.473  30.805  26.124  1.00  0.00    -0.052 C 
ATOM      5  H   UNL A   1      31.984  30.720  25.188  1.00  0.00     0.027 H 
ATOM      6  H   UNL A   1      30.476  30.417  26.102  1.00  0.00     0.027 H 
BRANCH   4   7
ATOM      7  C   UNL A   1      31.346  32.290  26.459  1.00  0.00    -0.036 C 
ATOM      8  H   UNL A   1      31.305  32.839  25.542  1.00  0.00     0.028 H 
ATOM      9  H   UNL A   1      30.458  32.396  27.047  1.00  0.00     0.028 H 
BRANCH   7  10
ATOM     10  C   UNL A   1      32.489  32.844  27.296  1.00  0.00     0.018 C 
ATOM     11  H   UNL A   1      32.563  32.274  28.199  1.00  0.00     0.049 H 
ATOM     12  H   UNL A   1      33.386  32.773  26.716  1.00  0.00     0.049 H 
BRANCH  10  13
ATOM     13  N   UNL A   1      32.290  34.242  27.640  1.00  0.00    -0.352 N 
ATOM     14  O   UNL A   1      32.528  36.103  28.899  1.00  0.00    -0.269 OA
ATOM     15  C   UNL A   1      32.935  34.985  28.594  1.00  0.00     0.251 C 
ATOM     16  H   UNL A   1      31.603  34.717  27.119  1.00  0.00     0.163 HD
BRANCH  15  17
ATOM     17  C   UNL A   1      34.125  34.423  29.265  1.00  0.00     0.039 A 
ATOM     18  C   UNL A   1      33.987  33.713  30.461  1.00  0.00    -0.049 A 
ATOM     19  C   UNL A   1      35.384  34.594  28.684  1.00  0.00    -0.049 A 
ATOM     20  C   UNL A   1      35.117  33.263  31.130  1.00  0.00    -0.053 A 
ATOM     21  H   UNL A   1      33.048  33.523  30.844  1.00  0.00     0.063 H 
ATOM     22  C   UNL A   1      36.512  34.060  29.313  1.00  0.00    -0.053 A 
ATOM     23  H   UNL A   1      35.481  35.111  27.796  1.00  0.00     0.063 H 
ATOM     24  C   UNL A   1      36.385  33.392  30.542  1.00  0.00    -0.014 A 
ATOM     25  H   UNL A   1      35.024  32.832  32.064  1.00  0.00     0.063 H 
ATOM     26  H   UNL A   1      37.440  34.159  28.874  1.00  0.00     0.063 H 
BRANCH  24  27
ATOM     27  C   UNL A   1      37.536  32.685  31.152  1.00  0.00     0.031 A 
ATOM     28  C   UNL A   1      38.187  31.515  30.479  1.00  0.00     0.074 A 
ATOM     29  C   UNL A   1      37.977  33.124  32.348  1.00  0.00     0.049 A 
ATOM     30  N   UNL A   1      39.179  30.773  30.904  1.00  0.00    -0.248 NA
ATOM     31  C   UNL A   1      37.660  31.114  29.165  1.00  0.00    -0.034 C 
ATOM     32  C   UNL A   1      37.398  34.244  33.097  1.00  0.00    -0.036 A 
ATOM     33  N   UNL A   1      39.002  32.688  33.147  1.00  0.00    -0.354 N 
ATOM     34  C   UNL A   1      39.383  29.809  29.926  1.00  0.00     0.074 A 
ATOM     35  C   UNL A   1      38.404  30.050  28.887  1.00  0.00    -0.034 C 
ATOM     36  H   UNL A   1      36.908  31.547  28.606  1.00  0.00     0.065 H 
ATOM     37  C   UNL A   1      38.089  34.422  34.230  1.00  0.00    -0.036 A 
ATOM     38  H   UNL A   1      36.585  34.806  32.797  1.00  0.00     0.065 H 
ATOM     39  C   UNL A   1      39.107  33.385  34.327  1.00  0.00     0.049 A 
ATOM     40  H   UNL A   1      39.603  31.950  32.900  1.00  0.00     0.167 HD
ATOM     41  C   UNL A   1      40.306  28.820  29.908  1.00  0.00     0.037 A 
ATOM     42  H   UNL A   1      38.299  29.470  28.039  1.00  0.00     0.065 H 
ATOM     43  H   UNL A   1      37.926  35.172  34.921  1.00  0.00     0.065 H 
ATOM     44  C   UNL A   1      39.903  33.185  35.391  1.00  0.00     0.037 A 
ATOM     45  C   UNL A   1      41.286  28.607  30.945  1.00  0.00     0.049 A 
ATOM     46  C   UNL A   1      40.887  32.050  35.351  1.00  0.00     0.074 A 
ATOM     47  C   UNL A   1      42.315  27.681  30.979  1.00  0.00    -0.036 A 
ATOM     48  N   UNL A   1      41.347  29.315  32.136  1.00  0.00    -0.354 N 
ATOM     49  N   UNL A   1      41.124  31.196  34.385  1.00  0.00    -0.248 NA
ATOM     50  C   UNL A   1      41.707  31.842  36.552  1.00  0.00    -0.034 C 
ATOM     51  C   UNL A   1      42.952  27.781  32.219  1.00  0.00    -0.036 A 
ATOM     52  H   UNL A   1      42.567  27.029  30.219  1.00  0.00     0.065 H 
ATOM     53  C   UNL A   1      42.363  28.812  32.933  1.00  0.00     0.049 A 
ATOM     54  H   UNL A   1      40.757  30.065  32.380  1.00  0.00     0.167 HD
ATOM     55  C   UNL A   1      42.125  30.360  34.855  1.00  0.00     0.074 A 
ATOM     56  C   UNL A   1      42.476  30.831  36.178  1.00  0.00    -0.034 C 
ATOM     57  H   UNL A   1      41.689  32.352  37.449  1.00  0.00     0.065 H 
ATOM     58  H   UNL A   1      43.731  27.187  32.546  1.00  0.00     0.065 H 
ATOM     59  C   UNL A   1      42.694  29.290  34.250  1.00  0.00     0.037 A 
ATOM     60  H   UNL A   1      43.229  30.429  36.757  1.00  0.00     0.065 H 
BRANCH  41  61
ATOM     61  C   UNL A   1      40.310  27.862  28.753  1.00  0.00     0.064 A 
ATOM     62  C   UNL A   1      41.053  28.108  27.590  1.00  0.00     0.173 A 
ATOM     63  C   UNL A   1      39.652  26.627  28.862  1.00  0.00     0.173 A 
ATOM     64  F   UNL A   1      41.696  29.274  27.433  1.00  0.00    -0.203 F 
ATOM     65  C   UNL A   1      41.136  27.153  26.578  1.00  0.00     0.198 A 
ATOM     66  C   UNL A   1      39.756  25.665  27.861  1.00  0.00     0.198 A 
ATOM     67  F   UNL A   1      38.933  26.339  29.958  1.00  0.00    -0.203 F 
ATOM     68  F   UNL A   1      41.839  27.415  25.468  1.00  0.00    -0.200 F 
ATOM     69  C   UNL A   1      40.498  25.929  26.720  1.00  0.00     0.200 A 
ATOM     70  F   UNL A   1      39.153  24.477  28.007  1.00  0.00    -0.200 F 
ATOM     71  F   UNL A   1      40.601  25.002  25.757  1.00  0.00    -0.200 F 
ENDBRANCH  41  61
BRANCH  44  72
ATOM     72  C   UNL A   1      39.767  34.039  36.600  1.00  0.00     0.064 A 
ATOM     73  C   UNL A   1      40.485  35.234  36.731  1.00  0.00     0.173 A 
ATOM     74  C   UNL A   1      38.932  33.661  37.664  1.00  0.00     0.173 A 
ATOM     75  F   UNL A   1      41.309  35.631  35.749  1.00  0.00    -0.203 F 
ATOM     76  C   UNL A   1      40.404  35.998  37.893  1.00  0.00     0.198 A 
ATOM     77  C   UNL A   1      38.821  34.446  38.808  1.00  0.00     0.198 A 
ATOM     78  F   UNL A   1      38.215  32.530  37.588  1.00  0.00    -0.203 F 
ATOM     79  F   UNL A   1      41.154  37.102  38.019  1.00  0.00    -0.200 F 
ATOM     80  C   UNL A   1      39.568  35.607  38.928  1.00  0.00     0.200 A 
ATOM     81  F   UNL A   1      37.996  34.074  39.796  1.00  0.00    -0.200 F 
ATOM     82  F   UNL A   1      39.492  36.341  40.046  1.00  0.00    -0.200 F 
ENDBRANCH  44  72
BRANCH  59  83
ATOM     83  C   UNL A   1      43.762  28.564  35.015  1.00  0.00     0.064 A 
ATOM     84  C   UNL A   1      45.106  28.959  34.948  1.00  0.00     0.173 A 
ATOM     85  C   UNL A   1      43.434  27.486  35.851  1.00  0.00     0.173 A 
ATOM     86  F   UNL A   1      45.473  29.971  34.147  1.00  0.00    -0.203 F 
ATOM     87  C   UNL A   1      46.087  28.285  35.669  1.00  0.00     0.198 A 
ATOM     88  C   UNL A   1      44.412  26.837  36.598  1.00  0.00     0.198 A 
ATOM     89  F   UNL A   1      42.162  27.072  35.954  1.00  0.00    -0.203 F 
ATOM     90  F   UNL A   1      47.372  28.646  35.548  1.00  0.00    -0.200 F 
ATOM     91  C   UNL A   1      45.738  27.231  36.501  1.00  0.00     0.200 A 
ATOM     92  F   UNL A   1      44.072  25.828  37.412  1.00  0.00    -0.200 F 
ATOM     93  F   UNL A   1      46.682  26.590  37.203  1.00  0.00    -0.200 F 
ENDBRANCH  59  83
ENDBRANCH  24  27
ENDBRANCH  15  17
ENDBRANCH  10  13
ENDBRANCH   7  10
ENDBRANCH   4   7
ENDBRANCH   1   4
BRANCH   1  94
ATOM     94  C   UNL A   1      32.375  28.481  26.821  1.00  0.00    -0.036 C 
ATOM     95  H   UNL A   1      31.603  28.223  26.125  1.00  0.00     0.028 H 
ATOM     96  H   UNL A   1      32.298  27.952  27.747  1.00  0.00     0.028 H 
BRANCH  94  97
ATOM     97  C   UNL A   1      33.717  28.090  26.209  1.00  0.00     0.018 C 
ATOM     98  H   UNL A   1      33.739  27.030  26.065  1.00  0.00     0.049 H 
ATOM     99  H   UNL A   1      34.494  28.399  26.877  1.00  0.00     0.049 H 
BRANCH  97 100
ATOM    100  N   UNL A   1      33.928  28.744  24.930  1.00  0.00    -0.352 N 
ATOM    101  C   UNL A   1      33.949  28.183  23.680  1.00  0.00     0.255 C 
ATOM    102  H   UNL A   1      34.075  29.716  24.965  1.00  0.00     0.163 HD
ATOM    103  O   UNL A   1      34.435  28.797  22.734  1.00  0.00    -0.269 OA
BRANCH 101 104
ATOM    104  C   UNL A   1      33.402  26.831  23.469  1.00  0.00     0.082 A 
ATOM    105  C   UNL A   1      34.030  25.726  24.058  1.00  0.00    -0.044 A 
ATOM    106  C   UNL A   1      32.227  26.650  22.732  1.00  0.00     0.143 A 
ATOM    107  C   UNL A   1      33.526  24.453  23.828  1.00  0.00    -0.043 A 
ATOM    108  H   UNL A   1      34.859  25.856  24.658  1.00  0.00     0.063 H 
ATOM    109  N   UNL A   1      31.749  25.399  22.505  1.00  0.00    -0.238 NA
ATOM    110  C   UNL A   1      32.397  24.342  23.042  1.00  0.00     0.029 A 
ATOM    111  H   UNL A   1      33.980  23.618  24.230  1.00  0.00     0.064 H 
ATOM    112  H   UNL A   1      32.027  23.397  22.852  1.00  0.00     0.084 H 
BRANCH 106 113
ATOM    113  N   UNL A   1      31.576  27.743  22.120  1.00  0.00    -0.340 N 
ATOM    114  H   UNL A   1      32.052  28.186  21.380  1.00  0.00     0.168 HD
BRANCH 113 115
ATOM    115  C   UNL A   1      30.316  28.263  22.466  1.00  0.00     0.040 A 
ATOM    116  C   UNL A   1      29.394  27.458  23.138  1.00  0.00    -0.039 A 
ATOM    117  C   UNL A   1      29.923  29.544  22.060  1.00  0.00    -0.026 A 
ATOM    118  C   UNL A   1      28.131  27.951  23.469  1.00  0.00    -0.060 A 
ATOM    119  H   UNL A   1      29.649  26.490  23.392  1.00  0.00     0.064 H 
ATOM    120  C   UNL A   1      28.652  30.049  22.366  1.00  0.00     0.058 A 
ATOM    121  H   UNL A   1      30.583  30.128  21.523  1.00  0.00     0.065 H 
ATOM    122  C   UNL A   1      27.763  29.242  23.090  1.00  0.00    -0.050 A 
ATOM    123  H   UNL A   1      27.468  27.359  23.995  1.00  0.00     0.062 H 
ATOM    124  H   UNL A   1      26.830  29.606  23.343  1.00  0.00     0.063 H 
BRANCH 120 125
ATOM    125  C   UNL A   1      28.249  31.432  21.932  1.00  0.00     0.416 C 
ATOM    126  F   UNL A   1      27.360  32.008  22.789  1.00  0.00    -0.166 F 
ATOM    127  F   UNL A   1      29.307  32.289  21.867  1.00  0.00    -0.166 F 
ATOM    128  F   UNL A   1      27.658  31.478  20.704  1.00  0.00    -0.166 F 
ENDBRANCH 120 125
ENDBRANCH 113 115
ENDBRANCH 106 113
ENDBRANCH 101 104
ENDBRANCH  97 100
ENDBRANCH  94  97
ENDBRANCH   1  94
TORSDOF 16
ENDMDL
MODEL 4
REMARK VINA RESULT:     -12.4      0.672      7.222
REMARK SMILES O=C(NCCCCCCNC(=O)c1cccnc1Nc1cccc(C(F)(F)F)c1)c1ccc(-c2c3nc(c(-c4c(F)c(F)c(F)c(F)c4F)c4ccc([nH]4)c(-c4c(F)c(F)c(F)c(F)c4F)c4nc(c(-c5c(F)c(F)c(F)c(F)c5F)c5ccc2[nH]5)C=C4)C=C3)cc1
REMARK SMILES IDX 7 1 6 4 5 7 4 10 3 13 1 14 2 15 30 17 31 18 92 19 32 20
REMARK SMILES IDX 91 22 33 24 34 27 35 28 85 29 36 30 90 31 84 32 86 33 37 34
REMARK SMILES IDX 89 35 83 37 82 39 38 41 70 44 50 45 69 46 51 47 54 48 68 49
REMARK SMILES IDX 87 50 52 51 53 53 67 55 88 56 55 59 39 61 40 62 48 63 41 64
REMARK SMILES IDX 42 65 46 66 49 67 43 68 44 69 47 70 45 71 71 72 72 73 80 74
REMARK SMILES IDX 73 75 74 76 78 77 81 78 75 79 76 80 79 81 77 82 56 83 57 84
REMARK SMILES IDX 65 85 58 86 59 87 63 88 66 89 60 90 61 91 64 92 62 93 8 94
REMARK SMILES IDX 9 97 10 100 11 101 12 103 13 104 14 105 18 106 15 107 17 109
REMARK SMILES IDX 16 110 19 113 20 115 21 116 29 117 22 118 24 120 23 122
REMARK SMILES IDX 25 125 26 126 27 127 28 128
REMARK H PARENT 7 2 7 3 6 5 6 6 5 8 5 9 4 11 4 12 3 16 31 21 92 23 32 25 91 26
REMARK H PARENT 90 36 84 38 86 40 89 42 83 43 51 52 54 54 87 57 52 58 88 60
REMARK H PARENT 8 95 8 96 9 98 9 99 10 102 14 108 15 111 16 112 19 114 21 119
REMARK H PARENT 29 121 22 123 23 124
REMARK Flexibility Score: inf
ROOT
ATOM      1  C   UNL A   1      31.979  29.396  26.314  1.00  0.00    -0.052 C 
ATOM      2  H   UNL A   1      31.380  28.609  25.905  1.00  0.00     0.027 H 
ATOM      3  H   UNL A   1      31.899  29.488  27.376  1.00  0.00     0.027 H 
ENDROOT
BRANCH   1   4
ATOM      4  C   UNL A   1      31.479  30.723  25.734  1.00  0.00    -0.052 C 
ATOM      5  H   UNL A   1      32.179  31.046  24.992  1.00  0.00     0.027 H 
ATOM      6  H   UNL A   1      30.503  30.529  25.341  1.00  0.00     0.027 H 
BRANCH   4   7
ATOM      7  C   UNL A   1      31.313  31.851  26.751  1.00  0.00    -0.036 C 
ATOM      8  H   UNL A   1      30.678  32.598  26.323  1.00  0.00     0.028 H 
ATOM      9  H   UNL A   1      30.899  31.408  27.634  1.00  0.00     0.028 H 
BRANCH   7  10
ATOM     10  C   UNL A   1      32.616  32.516  27.168  1.00  0.00     0.018 C 
ATOM     11  H   UNL A   1      33.005  32.005  28.024  1.00  0.00     0.049 H 
ATOM     12  H   UNL A   1      33.293  32.461  26.341  1.00  0.00     0.049 H 
BRANCH  10  13
ATOM     13  N   UNL A   1      32.434  33.918  27.502  1.00  0.00    -0.352 N 
ATOM     14  O   UNL A   1      32.663  35.777  28.767  1.00  0.00    -0.269 OA
ATOM     15  C   UNL A   1      33.057  34.650  28.480  1.00  0.00     0.251 C 
ATOM     16  H   UNL A   1      31.778  34.407  26.954  1.00  0.00     0.163 HD
BRANCH  15  17
ATOM     17  C   UNL A   1      34.208  34.064  29.197  1.00  0.00     0.039 A 
ATOM     18  C   UNL A   1      33.997  33.210  30.284  1.00  0.00    -0.049 A 
ATOM     19  C   UNL A   1      35.504  34.356  28.768  1.00  0.00    -0.049 A 
ATOM     20  C   UNL A   1      35.082  32.733  31.007  1.00  0.00    -0.053 A 
ATOM     21  H   UNL A   1      33.038  32.936  30.548  1.00  0.00     0.063 H 
ATOM     22  C   UNL A   1      36.596  33.801  29.441  1.00  0.00    -0.053 A 
ATOM     23  H   UNL A   1      35.656  34.979  27.959  1.00  0.00     0.063 H 
ATOM     24  C   UNL A   1      36.390  32.986  30.566  1.00  0.00    -0.014 A 
ATOM     25  H   UNL A   1      34.926  32.190  31.871  1.00  0.00     0.063 H 
ATOM     26  H   UNL A   1      37.554  33.991  29.111  1.00  0.00     0.063 H 
BRANCH  24  27
ATOM     27  C   UNL A   1      37.516  32.262  31.203  1.00  0.00     0.031 A 
ATOM     28  C   UNL A   1      38.020  32.631  32.565  1.00  0.00     0.074 A 
ATOM     29  C   UNL A   1      38.087  31.259  30.507  1.00  0.00     0.049 A 
ATOM     30  N   UNL A   1      39.018  32.114  33.238  1.00  0.00    -0.248 NA
ATOM     31  C   UNL A   1      37.328  33.723  33.267  1.00  0.00    -0.034 C 
ATOM     32  C   UNL A   1      37.684  30.833  29.162  1.00  0.00    -0.036 A 
ATOM     33  N   UNL A   1      39.123  30.418  30.820  1.00  0.00    -0.354 N 
ATOM     34  C   UNL A   1      39.087  32.826  34.427  1.00  0.00     0.074 A 
ATOM     35  C   UNL A   1      38.037  33.822  34.385  1.00  0.00    -0.034 C 
ATOM     36  H   UNL A   1      36.504  34.270  32.967  1.00  0.00     0.065 H 
ATOM     37  C   UNL A   1      38.444  29.800  28.778  1.00  0.00    -0.036 A 
ATOM     38  H   UNL A   1      36.932  31.264  28.601  1.00  0.00     0.065 H 
ATOM     39  C   UNL A   1      39.437  29.539  29.812  1.00  0.00     0.049 A 
ATOM     40  H   UNL A   1      39.595  30.441  31.684  1.00  0.00     0.167 HD
ATOM     41  C   UNL A   1      39.952  32.653  35.455  1.00  0.00     0.037 A 
ATOM     42  H   UNL A   1      37.863  34.518  35.127  1.00  0.00     0.065 H 
ATOM     43  H   UNL A   1      38.343  29.275  27.895  1.00  0.00     0.065 H 
ATOM     44  C   UNL A   1      40.442  28.652  29.708  1.00  0.00     0.037 A 
ATOM     45  C   UNL A   1      40.980  31.642  35.487  1.00  0.00     0.049 A 
ATOM     46  C   UNL A   1      41.407  28.519  30.851  1.00  0.00     0.074 A 
ATOM     47  C   UNL A   1      41.853  31.336  36.518  1.00  0.00    -0.036 A 
ATOM     48  N   UNL A   1      41.285  30.787  34.439  1.00  0.00    -0.354 N 
ATOM     49  N   UNL A   1      41.411  29.142  32.005  1.00  0.00    -0.248 NA
ATOM     50  C   UNL A   1      42.512  27.569  30.677  1.00  0.00    -0.034 C 
ATOM     51  C   UNL A   1      42.731  30.347  36.067  1.00  0.00    -0.036 A 
ATOM     52  H   UNL A   1      41.854  31.765  37.456  1.00  0.00     0.065 H 
ATOM     53  C   UNL A   1      42.367  29.990  34.779  1.00  0.00     0.049 A 
ATOM     54  H   UNL A   1      40.805  30.751  33.580  1.00  0.00     0.167 HD
ATOM     55  C   UNL A   1      42.508  28.652  32.697  1.00  0.00     0.074 A 
ATOM     56  C   UNL A   1      43.125  27.654  31.848  1.00  0.00    -0.034 C 
ATOM     57  H   UNL A   1      42.748  26.986  29.859  1.00  0.00     0.065 H 
ATOM     58  H   UNL A   1      43.518  29.949  36.605  1.00  0.00     0.065 H 
ATOM     59  C   UNL A   1      42.971  29.006  33.919  1.00  0.00     0.037 A 
ATOM     60  H   UNL A   1      43.939  27.083  32.121  1.00  0.00     0.065 H 
BRANCH  41  61
ATOM     61  C   UNL A   1      39.860  33.579  36.632  1.00  0.00     0.064 A 
ATOM     62  C   UNL A   1      40.535  34.807  36.662  1.00  0.00     0.173 A 
ATOM     63  C   UNL A   1      38.991  33.281  37.694  1.00  0.00     0.173 A 
ATOM     64  F   UNL A   1      41.381  35.138  35.676  1.00  0.00    -0.203 F 
ATOM     65  C   UNL A   1      40.344  35.703  37.713  1.00  0.00     0.198 A 
ATOM     66  C   UNL A   1      38.783  34.189  38.730  1.00  0.00     0.198 A 
ATOM     67  F   UNL A   1      38.316  32.122  37.709  1.00  0.00    -0.203 F 
ATOM     68  F   UNL A   1      41.011  36.865  37.729  1.00  0.00    -0.200 F 
ATOM     69  C   UNL A   1      39.460  35.399  38.738  1.00  0.00     0.200 A 
ATOM     70  F   UNL A   1      37.917  33.899  39.710  1.00  0.00    -0.200 F 
ATOM     71  F   UNL A   1      39.258  36.273  39.733  1.00  0.00    -0.200 F 
ENDBRANCH  41  61
BRANCH  44  72
ATOM     72  C   UNL A   1      40.619  27.864  28.459  1.00  0.00     0.064 A 
ATOM     73  C   UNL A   1      40.053  26.590  28.317  1.00  0.00     0.173 A 
ATOM     74  C   UNL A   1      41.383  28.361  27.391  1.00  0.00     0.173 A 
ATOM     75  F   UNL A   1      39.329  26.065  29.316  1.00  0.00    -0.203 F 
ATOM     76  C   UNL A   1      40.276  25.829  27.173  1.00  0.00     0.198 A 
ATOM     77  C   UNL A   1      41.571  27.615  26.230  1.00  0.00     0.198 A 
ATOM     78  F   UNL A   1      41.940  29.578  27.471  1.00  0.00    -0.203 F 
ATOM     79  F   UNL A   1      39.780  24.587  27.091  1.00  0.00    -0.200 F 
ATOM     80  C   UNL A   1      41.030  26.343  26.128  1.00  0.00     0.200 A 
ATOM     81  F   UNL A   1      42.282  28.126  25.217  1.00  0.00    -0.200 F 
ATOM     82  F   UNL A   1      41.245  25.609  25.028  1.00  0.00    -0.200 F 
ENDBRANCH  44  72
BRANCH  59  83
ATOM     83  C   UNL A   1      44.200  28.299  34.412  1.00  0.00     0.064 A 
ATOM     84  C   UNL A   1      45.481  28.837  34.216  1.00  0.00     0.173 A 
ATOM     85  C   UNL A   1      44.095  27.091  35.118  1.00  0.00     0.173 A 
ATOM     86  F   UNL A   1      45.635  29.980  33.530  1.00  0.00    -0.203 F 
ATOM     87  C   UNL A   1      46.613  28.178  34.686  1.00  0.00     0.198 A 
ATOM     88  C   UNL A   1      45.226  26.453  35.616  1.00  0.00     0.198 A 
ATOM     89  F   UNL A   1      42.892  26.537  35.336  1.00  0.00    -0.203 F 
ATOM     90  F   UNL A   1      47.829  28.684  34.440  1.00  0.00    -0.200 F 
ATOM     91  C   UNL A   1      46.484  26.993  35.394  1.00  0.00     0.200 A 
ATOM     92  F   UNL A   1      45.100  25.315  36.313  1.00  0.00    -0.200 F 
ATOM     93  F   UNL A   1      47.575  26.365  35.854  1.00  0.00    -0.200 F 
ENDBRANCH  59  83
ENDBRANCH  24  27
ENDBRANCH  15  17
ENDBRANCH  10  13
ENDBRANCH   7  10
ENDBRANCH   4   7
ENDBRANCH   1   4
BRANCH   1  94
ATOM     94  C   UNL A   1      33.450  29.071  26.027  1.00  0.00    -0.036 C 
ATOM     95  H   UNL A   1      34.025  29.340  26.888  1.00  0.00     0.028 H 
ATOM     96  H   UNL A   1      33.718  29.627  25.153  1.00  0.00     0.028 H 
BRANCH  94  97
ATOM     97  C   UNL A   1      33.728  27.605  25.708  1.00  0.00     0.018 C 
ATOM     98  H   UNL A   1      34.764  27.402  25.876  1.00  0.00     0.049 H 
ATOM     99  H   UNL A   1      33.466  27.428  24.685  1.00  0.00     0.049 H 
BRANCH  97 100
ATOM    100  N   UNL A   1      32.933  26.721  26.542  1.00  0.00    -0.352 N 
ATOM    101  C   UNL A   1      32.305  25.554  26.190  1.00  0.00     0.255 C 
ATOM    102  H   UNL A   1      32.832  26.995  27.481  1.00  0.00     0.163 HD
ATOM    103  O   UNL A   1      31.429  25.082  26.909  1.00  0.00    -0.269 OA
BRANCH 101 104
ATOM    104  C   UNL A   1      32.667  24.871  24.936  1.00  0.00     0.082 A 
ATOM    105  C   UNL A   1      33.843  24.112  24.869  1.00  0.00    -0.044 A 
ATOM    106  C   UNL A   1      31.815  24.928  23.828  1.00  0.00     0.143 A 
ATOM    107  C   UNL A   1      34.191  23.499  23.674  1.00  0.00    -0.043 A 
ATOM    108  H   UNL A   1      34.445  24.010  25.702  1.00  0.00     0.063 H 
ATOM    109  N   UNL A   1      32.171  24.331  22.661  1.00  0.00    -0.238 NA
ATOM    110  C   UNL A   1      33.333  23.645  22.604  1.00  0.00     0.029 A 
ATOM    111  H   UNL A   1      35.062  22.951  23.590  1.00  0.00     0.064 H 
ATOM    112  H   UNL A   1      33.595  23.206  21.706  1.00  0.00     0.084 H 
BRANCH 106 113
ATOM    113  N   UNL A   1      30.627  25.690  23.862  1.00  0.00    -0.340 N 
ATOM    114  H   UNL A   1      29.840  25.268  24.278  1.00  0.00     0.168 HD
BRANCH 113 115
ATOM    115  C   UNL A   1      30.457  26.992  23.358  1.00  0.00     0.040 A 
ATOM    116  C   UNL A   1      31.569  27.721  22.929  1.00  0.00    -0.039 A 
ATOM    117  C   UNL A   1      29.204  27.617  23.369  1.00  0.00    -0.026 A 
ATOM    118  C   UNL A   1      31.421  29.022  22.447  1.00  0.00    -0.060 A 
ATOM    119  H   UNL A   1      32.508  27.294  22.970  1.00  0.00     0.064 H 
ATOM    120  C   UNL A   1      29.039  28.930  22.907  1.00  0.00     0.058 A 
ATOM    121  H   UNL A   1      28.386  27.100  23.726  1.00  0.00     0.065 H 
ATOM    122  C   UNL A   1      30.162  29.623  22.430  1.00  0.00    -0.050 A 
ATOM    123  H   UNL A   1      32.244  29.541  22.103  1.00  0.00     0.062 H 
ATOM    124  H   UNL A   1      30.055  30.582  22.066  1.00  0.00     0.063 H 
BRANCH 120 125
ATOM    125  C   UNL A   1      27.684  29.583  22.915  1.00  0.00     0.416 C 
ATOM    126  F   UNL A   1      27.580  30.552  23.868  1.00  0.00    -0.166 F 
ATOM    127  F   UNL A   1      27.390  30.194  21.733  1.00  0.00    -0.166 F 
ATOM    128  F   UNL A   1      26.654  28.722  23.154  1.00  0.00    -0.166 F 
ENDBRANCH 120 125
ENDBRANCH 113 115
ENDBRANCH 106 113
ENDBRANCH 101 104
ENDBRANCH  97 100
ENDBRANCH  94  97
ENDBRANCH   1  94
TORSDOF 16
ENDMDL
MODEL 5
REMARK VINA RESULT:     -12.4      6.234     11.504
REMARK SMILES O=C(NCCCCCCNC(=O)c1cccnc1Nc1cccc(C(F)(F)F)c1)c1ccc(-c2c3nc(c(-c4c(F)c(F)c(F)c(F)c4F)c4ccc([nH]4)c(-c4c(F)c(F)c(F)c(F)c4F)c4nc(c(-c5c(F)c(F)c(F)c(F)c5F)c5ccc2[nH]5)C=C4)C=C3)cc1
REMARK SMILES IDX 7 1 6 4 5 7 4 10 3 13 1 14 2 15 30 17 31 18 92 19 32 20
REMARK SMILES IDX 91 22 33 24 34 27 35 28 85 29 36 30 90 31 84 32 86 33 37 34
REMARK SMILES IDX 89 35 83 37 82 39 38 41 70 44 50 45 69 46 51 47 54 48 68 49
REMARK SMILES IDX 87 50 52 51 53 53 67 55 88 56 55 59 39 61 40 62 48 63 41 64
REMARK SMILES IDX 42 65 46 66 49 67 43 68 44 69 47 70 45 71 71 72 72 73 80 74
REMARK SMILES IDX 73 75 74 76 78 77 81 78 75 79 76 80 79 81 77 82 56 83 57 84
REMARK SMILES IDX 65 85 58 86 59 87 63 88 66 89 60 90 61 91 64 92 62 93 8 94
REMARK SMILES IDX 9 97 10 100 11 101 12 103 13 104 14 105 18 106 15 107 17 109
REMARK SMILES IDX 16 110 19 113 20 115 21 116 29 117 22 118 24 120 23 122
REMARK SMILES IDX 25 125 26 126 27 127 28 128
REMARK H PARENT 7 2 7 3 6 5 6 6 5 8 5 9 4 11 4 12 3 16 31 21 92 23 32 25 91 26
REMARK H PARENT 90 36 84 38 86 40 89 42 83 43 51 52 54 54 87 57 52 58 88 60
REMARK H PARENT 8 95 8 96 9 98 9 99 10 102 14 108 15 111 16 112 19 114 21 119
REMARK H PARENT 29 121 22 123 23 124
REMARK Flexibility Score: inf
ROOT
ATOM      1  C   UNL A   1      37.432  21.714  24.705  1.00  0.00    -0.052 C 
ATOM      2  H   UNL A   1      36.776  22.091  23.948  1.00  0.00     0.027 H 
ATOM      3  H   UNL A   1      38.460  21.695  24.409  1.00  0.00     0.027 H 
ENDROOT
BRANCH   1   4
ATOM      4  C   UNL A   1      37.044  20.258  24.986  1.00  0.00    -0.052 C 
ATOM      5  H   UNL A   1      36.537  20.227  25.928  1.00  0.00     0.027 H 
ATOM      6  H   UNL A   1      36.435  19.947  24.164  1.00  0.00     0.027 H 
BRANCH   4   7
ATOM      7  C   UNL A   1      38.215  19.278  25.046  1.00  0.00    -0.036 C 
ATOM      8  H   UNL A   1      37.898  18.410  25.585  1.00  0.00     0.028 H 
ATOM      9  H   UNL A   1      38.485  19.062  24.032  1.00  0.00     0.028 H 
BRANCH   7  10
ATOM     10  C   UNL A   1      39.461  19.831  25.719  1.00  0.00     0.018 C 
ATOM     11  H   UNL A   1      39.839  20.641  25.132  1.00  0.00     0.049 H 
ATOM     12  H   UNL A   1      39.188  20.154  26.702  1.00  0.00     0.049 H 
BRANCH  10  13
ATOM     13  N   UNL A   1      40.503  18.826  25.854  1.00  0.00    -0.352 N 
ATOM     14  O   UNL A   1      42.630  18.073  25.979  1.00  0.00    -0.269 OA
ATOM     15  C   UNL A   1      41.843  19.011  26.076  1.00  0.00     0.251 C 
ATOM     16  H   UNL A   1      40.207  17.890  25.777  1.00  0.00     0.163 HD
BRANCH  15  17
ATOM     17  C   UNL A   1      42.337  20.358  26.426  1.00  0.00     0.039 A 
ATOM     18  C   UNL A   1      42.860  21.193  25.435  1.00  0.00    -0.049 A 
ATOM     19  C   UNL A   1      42.260  20.794  27.751  1.00  0.00    -0.049 A 
ATOM     20  C   UNL A   1      43.403  22.422  25.784  1.00  0.00    -0.053 A 
ATOM     21  H   UNL A   1      42.843  20.897  24.447  1.00  0.00     0.063 H 
ATOM     22  C   UNL A   1      42.723  22.069  28.085  1.00  0.00    -0.053 A 
ATOM     23  H   UNL A   1      41.864  20.179  28.479  1.00  0.00     0.063 H 
ATOM     24  C   UNL A   1      43.299  22.891  27.103  1.00  0.00    -0.014 A 
ATOM     25  H   UNL A   1      43.884  22.994  25.071  1.00  0.00     0.063 H 
ATOM     26  H   UNL A   1      42.643  22.407  29.056  1.00  0.00     0.063 H 
BRANCH  24  27
ATOM     27  C   UNL A   1      43.655  24.300  27.395  1.00  0.00     0.031 A 
ATOM     28  C   UNL A   1      42.626  25.297  27.835  1.00  0.00     0.074 A 
ATOM     29  C   UNL A   1      44.943  24.664  27.240  1.00  0.00     0.049 A 
ATOM     30  N   UNL A   1      42.778  26.571  28.094  1.00  0.00    -0.248 NA
ATOM     31  C   UNL A   1      41.247  24.813  28.002  1.00  0.00    -0.034 C 
ATOM     32  C   UNL A   1      46.021  23.774  26.796  1.00  0.00    -0.036 A 
ATOM     33  N   UNL A   1      45.571  25.868  27.431  1.00  0.00    -0.354 N 
ATOM     34  C   UNL A   1      41.518  27.046  28.433  1.00  0.00     0.074 A 
ATOM     35  C   UNL A   1      40.606  25.926  28.337  1.00  0.00    -0.034 C 
ATOM     36  H   UNL A   1      40.875  23.856  27.887  1.00  0.00     0.065 H 
ATOM     37  C   UNL A   1      47.175  24.452  26.772  1.00  0.00    -0.036 A 
ATOM     38  H   UNL A   1      45.906  22.780  26.541  1.00  0.00     0.065 H 
ATOM     39  C   UNL A   1      46.909  25.841  27.123  1.00  0.00     0.049 A 
ATOM     40  H   UNL A   1      45.107  26.673  27.758  1.00  0.00     0.167 HD
ATOM     41  C   UNL A   1      41.168  28.304  28.790  1.00  0.00     0.037 A 
ATOM     42  H   UNL A   1      39.590  25.986  28.508  1.00  0.00     0.065 H 
ATOM     43  H   UNL A   1      48.100  24.056  26.543  1.00  0.00     0.065 H 
ATOM     44  C   UNL A   1      47.816  26.833  27.081  1.00  0.00     0.037 A 
ATOM     45  C   UNL A   1      42.096  29.403  28.898  1.00  0.00     0.049 A 
ATOM     46  C   UNL A   1      47.379  28.224  27.444  1.00  0.00     0.074 A 
ATOM     47  C   UNL A   1      41.850  30.696  29.331  1.00  0.00    -0.036 A 
ATOM     48  N   UNL A   1      43.438  29.346  28.554  1.00  0.00    -0.354 N 
ATOM     49  N   UNL A   1      46.202  28.642  27.841  1.00  0.00    -0.248 NA
ATOM     50  C   UNL A   1      48.392  29.282  27.344  1.00  0.00    -0.034 C 
ATOM     51  C   UNL A   1      43.026  31.437  29.181  1.00  0.00    -0.036 A 
ATOM     52  H   UNL A   1      40.954  31.050  29.700  1.00  0.00     0.065 H 
ATOM     53  C   UNL A   1      44.021  30.593  28.715  1.00  0.00     0.049 A 
ATOM     54  H   UNL A   1      43.908  28.539  28.242  1.00  0.00     0.167 HD
ATOM     55  C   UNL A   1      46.335  30.006  28.049  1.00  0.00     0.074 A 
ATOM     56  C   UNL A   1      47.716  30.339  27.768  1.00  0.00    -0.034 C 
ATOM     57  H   UNL A   1      49.372  29.219  27.027  1.00  0.00     0.065 H 
ATOM     58  H   UNL A   1      43.133  32.444  29.384  1.00  0.00     0.065 H 
ATOM     59  C   UNL A   1      45.396  30.907  28.426  1.00  0.00     0.037 A 
ATOM     60  H   UNL A   1      48.123  31.280  27.884  1.00  0.00     0.065 H 
BRANCH  41  61
ATOM     61  C   UNL A   1      39.723  28.593  29.075  1.00  0.00     0.064 A 
ATOM     62  C   UNL A   1      39.173  28.423  30.353  1.00  0.00     0.173 A 
ATOM     63  C   UNL A   1      38.911  29.160  28.080  1.00  0.00     0.173 A 
ATOM     64  F   UNL A   1      39.904  27.882  31.338  1.00  0.00    -0.203 F 
ATOM     65  C   UNL A   1      37.860  28.808  30.623  1.00  0.00     0.198 A 
ATOM     66  C   UNL A   1      37.609  29.566  28.359  1.00  0.00     0.198 A 
ATOM     67  F   UNL A   1      39.392  29.350  26.842  1.00  0.00    -0.203 F 
ATOM     68  F   UNL A   1      37.349  28.622  31.848  1.00  0.00    -0.200 F 
ATOM     69  C   UNL A   1      37.084  29.389  29.631  1.00  0.00     0.200 A 
ATOM     70  F   UNL A   1      36.867  30.142  27.404  1.00  0.00    -0.200 F 
ATOM     71  F   UNL A   1      35.833  29.783  29.901  1.00  0.00    -0.200 F 
ENDBRANCH  41  61
BRANCH  44  72
ATOM     72  C   UNL A   1      49.205  26.558  26.629  1.00  0.00     0.064 A 
ATOM     73  C   UNL A   1      50.186  26.110  27.523  1.00  0.00     0.173 A 
ATOM     74  C   UNL A   1      49.587  26.767  25.294  1.00  0.00     0.173 A 
ATOM     75  F   UNL A   1      49.875  25.912  28.812  1.00  0.00    -0.203 F 
ATOM     76  C   UNL A   1      51.501  25.917  27.109  1.00  0.00     0.198 A 
ATOM     77  C   UNL A   1      50.894  26.534  24.872  1.00  0.00     0.198 A 
ATOM     78  F   UNL A   1      48.687  27.188  24.394  1.00  0.00    -0.203 F 
ATOM     79  F   UNL A   1      52.434  25.553  28.000  1.00  0.00    -0.200 F 
ATOM     80  C   UNL A   1      51.854  26.123  25.784  1.00  0.00     0.200 A 
ATOM     81  F   UNL A   1      51.223  26.716  23.587  1.00  0.00    -0.200 F 
ATOM     82  F   UNL A   1      53.120  25.940  25.387  1.00  0.00    -0.200 F 
ENDBRANCH  44  72
BRANCH  59  83
ATOM     83  C   UNL A   1      45.837  32.334  28.564  1.00  0.00     0.064 A 
ATOM     84  C   UNL A   1      45.724  33.241  27.499  1.00  0.00     0.173 A 
ATOM     85  C   UNL A   1      46.345  32.810  29.782  1.00  0.00     0.173 A 
ATOM     86  F   UNL A   1      45.262  32.828  26.308  1.00  0.00    -0.203 F 
ATOM     87  C   UNL A   1      46.127  34.565  27.641  1.00  0.00     0.198 A 
ATOM     88  C   UNL A   1      46.715  34.143  29.930  1.00  0.00     0.198 A 
ATOM     89  F   UNL A   1      46.470  31.985  30.832  1.00  0.00    -0.203 F 
ATOM     90  F   UNL A   1      46.059  35.399  26.595  1.00  0.00    -0.200 F 
ATOM     91  C   UNL A   1      46.612  35.017  28.859  1.00  0.00     0.200 A 
ATOM     92  F   UNL A   1      47.170  34.583  31.111  1.00  0.00    -0.200 F 
ATOM     93  F   UNL A   1      46.991  36.295  28.997  1.00  0.00    -0.200 F 
ENDBRANCH  59  83
ENDBRANCH  24  27
ENDBRANCH  15  17
ENDBRANCH  10  13
ENDBRANCH   7  10
ENDBRANCH   4   7
ENDBRANCH   1   4
BRANCH   1  94
ATOM     94  C   UNL A   1      37.355  22.655  25.912  1.00  0.00    -0.036 C 
ATOM     95  H   UNL A   1      38.347  22.987  26.140  1.00  0.00     0.028 H 
ATOM     96  H   UNL A   1      36.908  22.095  26.706  1.00  0.00     0.028 H 
BRANCH  94  97
ATOM     97  C   UNL A   1      36.478  23.887  25.705  1.00  0.00     0.018 C 
ATOM     98  H   UNL A   1      37.063  24.765  25.879  1.00  0.00     0.049 H 
ATOM     99  H   UNL A   1      35.657  23.835  26.391  1.00  0.00     0.049 H 
BRANCH  97 100
ATOM    100  N   UNL A   1      35.943  23.936  24.356  1.00  0.00    -0.352 N 
ATOM    101  C   UNL A   1      34.646  23.760  23.947  1.00  0.00     0.255 C 
ATOM    102  H   UNL A   1      36.596  24.119  23.643  1.00  0.00     0.163 HD
ATOM    103  O   UNL A   1      34.396  23.528  22.768  1.00  0.00    -0.269 OA
BRANCH 101 104
ATOM    104  C   UNL A   1      33.548  23.831  24.927  1.00  0.00     0.082 A 
ATOM    105  C   UNL A   1      32.892  25.049  25.151  1.00  0.00    -0.044 A 
ATOM    106  C   UNL A   1      33.117  22.679  25.592  1.00  0.00     0.143 A 
ATOM    107  C   UNL A   1      31.880  25.113  26.099  1.00  0.00    -0.043 A 
ATOM    108  H   UNL A   1      33.159  25.891  24.617  1.00  0.00     0.063 H 
ATOM    109  N   UNL A   1      32.132  22.756  26.524  1.00  0.00    -0.238 NA
ATOM    110  C   UNL A   1      31.546  23.950  26.760  1.00  0.00     0.029 A 
ATOM    111  H   UNL A   1      31.394  26.001  26.301  1.00  0.00     0.064 H 
ATOM    112  H   UNL A   1      30.805  23.994  27.479  1.00  0.00     0.084 H 
BRANCH 106 113
ATOM    113  N   UNL A   1      33.763  21.439  25.393  1.00  0.00    -0.340 N 
ATOM    114  H   UNL A   1      34.572  21.269  25.928  1.00  0.00     0.168 HD
BRANCH 113 115
ATOM    115  C   UNL A   1      33.365  20.426  24.504  1.00  0.00     0.040 A 
ATOM    116  C   UNL A   1      32.417  20.702  23.515  1.00  0.00    -0.039 A 
ATOM    117  C   UNL A   1      33.823  19.111  24.650  1.00  0.00    -0.026 A 
ATOM    118  C   UNL A   1      31.994  19.701  22.638  1.00  0.00    -0.060 A 
ATOM    119  H   UNL A   1      32.027  21.654  23.432  1.00  0.00     0.064 H 
ATOM    120  C   UNL A   1      33.394  18.089  23.792  1.00  0.00     0.058 A 
ATOM    121  H   UNL A   1      34.488  18.889  25.407  1.00  0.00     0.065 H 
ATOM    122  C   UNL A   1      32.484  18.402  22.772  1.00  0.00    -0.050 A 
ATOM    123  H   UNL A   1      31.318  19.923  21.890  1.00  0.00     0.062 H 
ATOM    124  H   UNL A   1      32.175  17.666  22.117  1.00  0.00     0.063 H 
BRANCH 120 125
ATOM    125  C   UNL A   1      33.904  16.682  23.956  1.00  0.00     0.416 C 
ATOM    126  F   UNL A   1      32.941  15.829  24.406  1.00  0.00    -0.166 F 
ATOM    127  F   UNL A   1      34.353  16.148  22.785  1.00  0.00    -0.166 F 
ATOM    128  F   UNL A   1      34.938  16.567  24.838  1.00  0.00    -0.166 F 
ENDBRANCH 120 125
ENDBRANCH 113 115
ENDBRANCH 106 113
ENDBRANCH 101 104
ENDBRANCH  97 100
ENDBRANCH  94  97
ENDBRANCH   1  94
TORSDOF 16
ENDMDL
MODEL 6
REMARK VINA RESULT:     -12.4      2.285      3.552
REMARK SMILES O=C(NCCCCCCNC(=O)c1cccnc1Nc1cccc(C(F)(F)F)c1)c1ccc(-c2c3nc(c(-c4c(F)c(F)c(F)c(F)c4F)c4ccc([nH]4)c(-c4c(F)c(F)c(F)c(F)c4F)c4nc(c(-c5c(F)c(F)c(F)c(F)c5F)c5ccc2[nH]5)C=C4)C=C3)cc1
REMARK SMILES IDX 7 1 6 4 5 7 4 10 3 13 1 14 2 15 30 17 31 18 92 19 32 20
REMARK SMILES IDX 91 22 33 24 34 27 35 28 85 29 36 30 90 31 84 32 86 33 37 34
REMARK SMILES IDX 89 35 83 37 82 39 38 41 70 44 50 45 69 46 51 47 54 48 68 49
REMARK SMILES IDX 87 50 52 51 53 53 67 55 88 56 55 59 39 61 40 62 48 63 41 64
REMARK SMILES IDX 42 65 46 66 49 67 43 68 44 69 47 70 45 71 71 72 72 73 80 74
REMARK SMILES IDX 73 75 74 76 78 77 81 78 75 79 76 80 79 81 77 82 56 83 57 84
REMARK SMILES IDX 65 85 58 86 59 87 63 88 66 89 60 90 61 91 64 92 62 93 8 94
REMARK SMILES IDX 9 97 10 100 11 101 12 103 13 104 14 105 18 106 15 107 17 109
REMARK SMILES IDX 16 110 19 113 20 115 21 116 29 117 22 118 24 120 23 122
REMARK SMILES IDX 25 125 26 126 27 127 28 128
REMARK H PARENT 7 2 7 3 6 5 6 6 5 8 5 9 4 11 4 12 3 16 31 21 92 23 32 25 91 26
REMARK H PARENT 90 36 84 38 86 40 89 42 83 43 51 52 54 54 87 57 52 58 88 60
REMARK H PARENT 8 95 8 96 9 98 9 99 10 102 14 108 15 111 16 112 19 114 21 119
REMARK H PARENT 29 121 22 123 23 124
REMARK Flexibility Score: inf
ROOT
ATOM      1  C   UNL A   1      32.454  29.893  27.104  1.00  0.00    -0.052 C 
ATOM      2  H   UNL A   1      31.929  28.976  27.271  1.00  0.00     0.027 H 
ATOM      3  H   UNL A   1      32.583  30.481  27.988  1.00  0.00     0.027 H 
ENDROOT
BRANCH   1   4
ATOM      4  C   UNL A   1      31.621  30.748  26.144  1.00  0.00    -0.052 C 
ATOM      5  H   UNL A   1      32.111  30.753  25.193  1.00  0.00     0.027 H 
ATOM      6  H   UNL A   1      30.647  30.305  26.117  1.00  0.00     0.027 H 
BRANCH   4   7
ATOM      7  C   UNL A   1      31.419  32.198  26.579  1.00  0.00    -0.036 C 
ATOM      8  H   UNL A   1      31.217  32.785  25.708  1.00  0.00     0.028 H 
ATOM      9  H   UNL A   1      30.608  32.198  27.278  1.00  0.00     0.028 H 
BRANCH   7  10
ATOM     10  C   UNL A   1      32.612  32.808  27.299  1.00  0.00     0.018 C 
ATOM     11  H   UNL A   1      32.782  32.265  28.205  1.00  0.00     0.049 H 
ATOM     12  H   UNL A   1      33.456  32.749  26.644  1.00  0.00     0.049 H 
BRANCH  10  13
ATOM     13  N   UNL A   1      32.399  34.208  27.626  1.00  0.00    -0.352 N 
ATOM     14  O   UNL A   1      32.593  36.081  28.875  1.00  0.00    -0.269 OA
ATOM     15  C   UNL A   1      33.012  34.961  28.593  1.00  0.00     0.251 C 
ATOM     16  H   UNL A   1      31.726  34.677  27.080  1.00  0.00     0.163 HD
BRANCH  15  17
ATOM     17  C   UNL A   1      34.183  34.409  29.303  1.00  0.00     0.039 A 
ATOM     18  C   UNL A   1      34.015  33.746  30.523  1.00  0.00    -0.049 A 
ATOM     19  C   UNL A   1      35.453  34.540  28.738  1.00  0.00    -0.049 A 
ATOM     20  C   UNL A   1      35.127  33.306  31.227  1.00  0.00    -0.053 A 
ATOM     21  H   UNL A   1      33.068  33.583  30.897  1.00  0.00     0.063 H 
ATOM     22  C   UNL A   1      36.563  34.015  29.405  1.00  0.00    -0.053 A 
ATOM     23  H   UNL A   1      35.572  35.021  27.833  1.00  0.00     0.063 H 
ATOM     24  C   UNL A   1      36.406  33.395  30.655  1.00  0.00    -0.014 A 
ATOM     25  H   UNL A   1      35.014  32.911  32.175  1.00  0.00     0.063 H 
ATOM     26  H   UNL A   1      37.500  34.084  28.978  1.00  0.00     0.063 H 
BRANCH  24  27
ATOM     27  C   UNL A   1      37.538  32.696  31.310  1.00  0.00     0.031 A 
ATOM     28  C   UNL A   1      38.212  31.520  30.671  1.00  0.00     0.074 A 
ATOM     29  C   UNL A   1      37.937  33.146  32.516  1.00  0.00     0.049 A 
ATOM     30  N   UNL A   1      39.190  30.784  31.136  1.00  0.00    -0.248 NA
ATOM     31  C   UNL A   1      37.731  31.106  29.344  1.00  0.00    -0.034 C 
ATOM     32  C   UNL A   1      37.332  34.273  33.236  1.00  0.00    -0.036 A 
ATOM     33  N   UNL A   1      38.935  32.720  33.354  1.00  0.00    -0.354 N 
ATOM     34  C   UNL A   1      39.428  29.812  30.175  1.00  0.00     0.074 A 
ATOM     35  C   UNL A   1      38.485  30.041  29.101  1.00  0.00    -0.034 C 
ATOM     36  H   UNL A   1      36.997  31.533  28.756  1.00  0.00     0.065 H 
ATOM     37  C   UNL A   1      37.984  34.463  34.390  1.00  0.00    -0.036 A 
ATOM     38  H   UNL A   1      36.529  34.830  32.903  1.00  0.00     0.065 H 
ATOM     39  C   UNL A   1      38.999  33.428  34.530  1.00  0.00     0.049 A 
ATOM     40  H   UNL A   1      39.546  31.980  33.134  1.00  0.00     0.167 HD
ATOM     41  C   UNL A   1      40.353  28.823  30.198  1.00  0.00     0.037 A 
ATOM     42  H   UNL A   1      38.409  29.453  28.256  1.00  0.00     0.065 H 
ATOM     43  H   UNL A   1      37.797  35.218  35.068  1.00  0.00     0.065 H 
ATOM     44  C   UNL A   1      39.760  33.239  35.622  1.00  0.00     0.037 A 
ATOM     45  C   UNL A   1      41.297  28.622  31.269  1.00  0.00     0.049 A 
ATOM     46  C   UNL A   1      40.745  32.105  35.627  1.00  0.00     0.074 A 
ATOM     47  C   UNL A   1      42.326  27.698  31.346  1.00  0.00    -0.036 A 
ATOM     48  N   UNL A   1      41.318  29.341  32.454  1.00  0.00    -0.354 N 
ATOM     49  N   UNL A   1      41.016  31.243  34.677  1.00  0.00    -0.248 NA
ATOM     50  C   UNL A   1      41.524  31.910  36.856  1.00  0.00    -0.034 C 
ATOM     51  C   UNL A   1      42.921  27.811  32.606  1.00  0.00    -0.036 A 
ATOM     52  H   UNL A   1      42.604  27.039  30.602  1.00  0.00     0.065 H 
ATOM     53  C   UNL A   1      42.307  28.847  33.290  1.00  0.00     0.049 A 
ATOM     54  H   UNL A   1      40.719  30.092  32.671  1.00  0.00     0.167 HD
ATOM     55  C   UNL A   1      42.002  30.413  35.188  1.00  0.00     0.074 A 
ATOM     56  C   UNL A   1      42.307  30.896  36.518  1.00  0.00    -0.034 C 
ATOM     57  H   UNL A   1      41.476  32.428  37.747  1.00  0.00     0.065 H 
ATOM     58  H   UNL A   1      43.689  27.221  32.964  1.00  0.00     0.065 H 
ATOM     59  C   UNL A   1      42.593  29.338  34.613  1.00  0.00     0.037 A 
ATOM     60  H   UNL A   1      43.041  30.502  37.126  1.00  0.00     0.065 H 
BRANCH  41  61
ATOM     61  C   UNL A   1      40.397  27.855  29.052  1.00  0.00     0.064 A 
ATOM     62  C   UNL A   1      39.607  26.696  29.032  1.00  0.00     0.173 A 
ATOM     63  C   UNL A   1      41.152  28.155  27.907  1.00  0.00     0.173 A 
ATOM     64  F   UNL A   1      38.871  26.362  30.101  1.00  0.00    -0.203 F 
ATOM     65  C   UNL A   1      39.575  25.873  27.908  1.00  0.00     0.198 A 
ATOM     66  C   UNL A   1      41.099  27.343  26.777  1.00  0.00     0.198 A 
ATOM     67  F   UNL A   1      41.918  29.256  27.873  1.00  0.00    -0.203 F 
ATOM     68  F   UNL A   1      38.826  24.761  27.916  1.00  0.00    -0.200 F 
ATOM     69  C   UNL A   1      40.311  26.203  26.778  1.00  0.00     0.200 A 
ATOM     70  F   UNL A   1      41.797  27.673  25.682  1.00  0.00    -0.200 F 
ATOM     71  F   UNL A   1      40.257  25.423  25.690  1.00  0.00    -0.200 F 
ENDBRANCH  41  61
BRANCH  44  72
ATOM     72  C   UNL A   1      39.581  34.105  36.818  1.00  0.00     0.064 A 
ATOM     73  C   UNL A   1      40.197  35.360  36.905  1.00  0.00     0.173 A 
ATOM     74  C   UNL A   1      38.810  33.679  37.912  1.00  0.00     0.173 A 
ATOM     75  F   UNL A   1      40.957  35.804  35.894  1.00  0.00    -0.203 F 
ATOM     76  C   UNL A   1      40.080  36.139  38.054  1.00  0.00     0.198 A 
ATOM     77  C   UNL A   1      38.662  34.477  39.043  1.00  0.00     0.198 A 
ATOM     78  F   UNL A   1      38.193  32.489  37.878  1.00  0.00    -0.203 F 
ATOM     79  F   UNL A   1      40.735  37.305  38.138  1.00  0.00    -0.200 F 
ATOM     80  C   UNL A   1      39.309  35.700  39.120  1.00  0.00     0.200 A 
ATOM     81  F   UNL A   1      37.899  34.056  40.060  1.00  0.00    -0.200 F 
ATOM     82  F   UNL A   1      39.199  36.449  40.225  1.00  0.00    -0.200 F 
ENDBRANCH  44  72
BRANCH  59  83
ATOM     83  C   UNL A   1      43.634  28.621  35.420  1.00  0.00     0.064 A 
ATOM     84  C   UNL A   1      44.997  28.932  35.298  1.00  0.00     0.173 A 
ATOM     85  C   UNL A   1      43.266  27.638  36.351  1.00  0.00     0.173 A 
ATOM     86  F   UNL A   1      45.401  29.851  34.407  1.00  0.00    -0.203 F 
ATOM     87  C   UNL A   1      45.954  28.269  36.059  1.00  0.00     0.198 A 
ATOM     88  C   UNL A   1      44.223  27.001  37.136  1.00  0.00     0.198 A 
ATOM     89  F   UNL A   1      41.976  27.306  36.510  1.00  0.00    -0.203 F 
ATOM     90  F   UNL A   1      47.254  28.545  35.887  1.00  0.00    -0.200 F 
ATOM     91  C   UNL A   1      45.566  27.311  36.984  1.00  0.00     0.200 A 
ATOM     92  F   UNL A   1      43.845  26.086  38.039  1.00  0.00    -0.200 F 
ATOM     93  F   UNL A   1      46.488  26.680  37.723  1.00  0.00    -0.200 F 
ENDBRANCH  59  83
ENDBRANCH  24  27
ENDBRANCH  15  17
ENDBRANCH  10  13
ENDBRANCH   7  10
ENDBRANCH   4   7
ENDBRANCH   1   4
BRANCH   1  94
ATOM     94  C   UNL A   1      33.866  29.549  26.614  1.00  0.00    -0.036 C 
ATOM     95  H   UNL A   1      34.497  29.432  27.471  1.00  0.00     0.028 H 
ATOM     96  H   UNL A   1      34.169  30.352  25.976  1.00  0.00     0.028 H 
BRANCH  94  97
ATOM     97  C   UNL A   1      33.957  28.276  25.778  1.00  0.00     0.018 C 
ATOM     98  H   UNL A   1      33.050  27.720  25.889  1.00  0.00     0.049 H 
ATOM     99  H   UNL A   1      34.797  27.707  26.122  1.00  0.00     0.049 H 
BRANCH  97 100
ATOM    100  N   UNL A   1      34.156  28.577  24.372  1.00  0.00    -0.352 N 
ATOM    101  C   UNL A   1      33.508  28.046  23.287  1.00  0.00     0.255 C 
ATOM    102  H   UNL A   1      34.845  29.251  24.172  1.00  0.00     0.163 HD
ATOM    103  O   UNL A   1      33.985  28.166  22.161  1.00  0.00    -0.269 OA
BRANCH 101 104
ATOM    104  C   UNL A   1      32.244  27.311  23.470  1.00  0.00     0.082 A 
ATOM    105  C   UNL A   1      31.048  28.016  23.652  1.00  0.00    -0.044 A 
ATOM    106  C   UNL A   1      32.222  25.914  23.404  1.00  0.00     0.143 A 
ATOM    107  C   UNL A   1      29.867  27.315  23.855  1.00  0.00    -0.043 A 
ATOM    108  H   UNL A   1      31.044  29.048  23.637  1.00  0.00     0.063 H 
ATOM    109  N   UNL A   1      31.063  25.238  23.613  1.00  0.00    -0.238 NA
ATOM    110  C   UNL A   1      29.929  25.937  23.837  1.00  0.00     0.029 A 
ATOM    111  H   UNL A   1      28.975  27.808  24.015  1.00  0.00     0.064 H 
ATOM    112  H   UNL A   1      29.057  25.408  24.005  1.00  0.00     0.084 H 
BRANCH 106 113
ATOM    113  N   UNL A   1      33.413  25.175  23.228  1.00  0.00    -0.340 N 
ATOM    114  H   UNL A   1      33.899  25.310  22.382  1.00  0.00     0.168 HD
BRANCH 113 115
ATOM    115  C   UNL A   1      33.970  24.263  24.141  1.00  0.00     0.040 A 
ATOM    116  C   UNL A   1      34.879  24.711  25.102  1.00  0.00    -0.039 A 
ATOM    117  C   UNL A   1      33.712  22.890  24.045  1.00  0.00    -0.026 A 
ATOM    118  C   UNL A   1      35.459  23.815  26.002  1.00  0.00    -0.060 A 
ATOM    119  H   UNL A   1      35.124  25.712  25.147  1.00  0.00     0.064 H 
ATOM    120  C   UNL A   1      34.300  21.973  24.927  1.00  0.00     0.058 A 
ATOM    121  H   UNL A   1      33.076  22.546  23.308  1.00  0.00     0.065 H 
ATOM    122  C   UNL A   1      35.167  22.453  25.919  1.00  0.00    -0.050 A 
ATOM    123  H   UNL A   1      36.105  24.160  26.730  1.00  0.00     0.062 H 
ATOM    124  H   UNL A   1      35.592  21.795  26.591  1.00  0.00     0.063 H 
BRANCH 120 125
ATOM    125  C   UNL A   1      34.003  20.502  24.817  1.00  0.00     0.416 C 
ATOM    126  F   UNL A   1      33.139  20.221  23.801  1.00  0.00    -0.166 F 
ATOM    127  F   UNL A   1      35.119  19.760  24.569  1.00  0.00    -0.166 F 
ATOM    128  F   UNL A   1      33.441  19.964  25.937  1.00  0.00    -0.166 F 
ENDBRANCH 120 125
ENDBRANCH 113 115
ENDBRANCH 106 113
ENDBRANCH 101 104
ENDBRANCH  97 100
ENDBRANCH  94  97
ENDBRANCH   1  94
TORSDOF 16
ENDMDL
MODEL 7
REMARK VINA RESULT:     -12.3      2.335      3.549
REMARK SMILES O=C(NCCCCCCNC(=O)c1cccnc1Nc1cccc(C(F)(F)F)c1)c1ccc(-c2c3nc(c(-c4c(F)c(F)c(F)c(F)c4F)c4ccc([nH]4)c(-c4c(F)c(F)c(F)c(F)c4F)c4nc(c(-c5c(F)c(F)c(F)c(F)c5F)c5ccc2[nH]5)C=C4)C=C3)cc1
REMARK SMILES IDX 7 1 6 4 5 7 4 10 3 13 1 14 2 15 30 17 31 18 92 19 32 20
REMARK SMILES IDX 91 22 33 24 34 27 35 28 85 29 36 30 90 31 84 32 86 33 37 34
REMARK SMILES IDX 89 35 83 37 82 39 38 41 70 44 50 45 69 46 51 47 54 48 68 49
REMARK SMILES IDX 87 50 52 51 53 53 67 55 88 56 55 59 39 61 40 62 48 63 41 64
REMARK SMILES IDX 42 65 46 66 49 67 43 68 44 69 47 70 45 71 71 72 72 73 80 74
REMARK SMILES IDX 73 75 74 76 78 77 81 78 75 79 76 80 79 81 77 82 56 83 57 84
REMARK SMILES IDX 65 85 58 86 59 87 63 88 66 89 60 90 61 91 64 92 62 93 8 94
REMARK SMILES IDX 9 97 10 100 11 101 12 103 13 104 14 105 18 106 15 107 17 109
REMARK SMILES IDX 16 110 19 113 20 115 21 116 29 117 22 118 24 120 23 122
REMARK SMILES IDX 25 125 26 126 27 127 28 128
REMARK H PARENT 7 2 7 3 6 5 6 6 5 8 5 9 4 11 4 12 3 16 31 21 92 23 32 25 91 26
REMARK H PARENT 90 36 84 38 86 40 89 42 83 43 51 52 54 54 87 57 52 58 88 60
REMARK H PARENT 8 95 8 96 9 98 9 99 10 102 14 108 15 111 16 112 19 114 21 119
REMARK H PARENT 29 121 22 123 23 124
REMARK Flexibility Score: inf
ROOT
ATOM      1  C   UNL A   1      32.723  29.748  26.885  1.00  0.00    -0.052 C 
ATOM      2  H   UNL A   1      32.259  28.890  27.325  1.00  0.00     0.027 H 
ATOM      3  H   UNL A   1      33.120  30.435  27.603  1.00  0.00     0.027 H 
ENDROOT
BRANCH   1   4
ATOM      4  C   UNL A   1      31.652  30.520  26.108  1.00  0.00    -0.052 C 
ATOM      5  H   UNL A   1      31.937  30.536  25.077  1.00  0.00     0.027 H 
ATOM      6  H   UNL A   1      30.728  30.011  26.285  1.00  0.00     0.027 H 
BRANCH   4   7
ATOM      7  C   UNL A   1      31.438  31.963  26.562  1.00  0.00    -0.036 C 
ATOM      8  H   UNL A   1      31.239  32.561  25.698  1.00  0.00     0.028 H 
ATOM      9  H   UNL A   1      30.621  31.948  27.254  1.00  0.00     0.028 H 
BRANCH   7  10
ATOM     10  C   UNL A   1      32.622  32.570  27.299  1.00  0.00     0.018 C 
ATOM     11  H   UNL A   1      32.762  32.041  28.219  1.00  0.00     0.049 H 
ATOM     12  H   UNL A   1      33.481  32.487  26.667  1.00  0.00     0.049 H 
BRANCH  10  13
ATOM     13  N   UNL A   1      32.420  33.979  27.596  1.00  0.00    -0.352 N 
ATOM     14  O   UNL A   1      32.646  35.880  28.795  1.00  0.00    -0.269 OA
ATOM     15  C   UNL A   1      33.055  34.753  28.532  1.00  0.00     0.251 C 
ATOM     16  H   UNL A   1      31.738  34.436  27.052  1.00  0.00     0.163 HD
BRANCH  15  17
ATOM     17  C   UNL A   1      34.238  34.212  29.232  1.00  0.00     0.039 A 
ATOM     18  C   UNL A   1      34.077  33.418  30.371  1.00  0.00    -0.049 A 
ATOM     19  C   UNL A   1      35.514  34.489  28.737  1.00  0.00    -0.049 A 
ATOM     20  C   UNL A   1      35.193  32.986  31.075  1.00  0.00    -0.053 A 
ATOM     21  H   UNL A   1      33.131  33.152  30.687  1.00  0.00     0.063 H 
ATOM     22  C   UNL A   1      36.635  33.977  29.395  1.00  0.00    -0.053 A 
ATOM     23  H   UNL A   1      35.629  35.068  27.890  1.00  0.00     0.063 H 
ATOM     24  C   UNL A   1      36.481  33.223  30.569  1.00  0.00    -0.014 A 
ATOM     25  H   UNL A   1      35.075  32.490  31.972  1.00  0.00     0.063 H 
ATOM     26  H   UNL A   1      37.579  34.154  29.017  1.00  0.00     0.063 H 
BRANCH  24  27
ATOM     27  C   UNL A   1      37.637  32.540  31.198  1.00  0.00     0.031 A 
ATOM     28  C   UNL A   1      38.341  31.402  30.525  1.00  0.00     0.074 A 
ATOM     29  C   UNL A   1      38.032  32.971  32.413  1.00  0.00     0.049 A 
ATOM     30  N   UNL A   1      39.343  30.683  30.964  1.00  0.00    -0.248 NA
ATOM     31  C   UNL A   1      37.861  31.008  29.191  1.00  0.00    -0.034 C 
ATOM     32  C   UNL A   1      37.400  34.061  33.165  1.00  0.00    -0.036 A 
ATOM     33  N   UNL A   1      39.048  32.553  33.233  1.00  0.00    -0.354 N 
ATOM     34  C   UNL A   1      39.602  29.742  29.977  1.00  0.00     0.074 A 
ATOM     35  C   UNL A   1      38.644  29.971  28.915  1.00  0.00    -0.034 C 
ATOM     36  H   UNL A   1      37.111  31.428  28.619  1.00  0.00     0.065 H 
ATOM     37  C   UNL A   1      38.054  34.240  34.319  1.00  0.00    -0.036 A 
ATOM     38  H   UNL A   1      36.579  34.603  32.852  1.00  0.00     0.065 H 
ATOM     39  C   UNL A   1      39.101  33.232  34.426  1.00  0.00     0.049 A 
ATOM     40  H   UNL A   1      39.678  31.837  32.990  1.00  0.00     0.167 HD
ATOM     41  C   UNL A   1      40.555  28.781  29.968  1.00  0.00     0.037 A 
ATOM     42  H   UNL A   1      38.579  29.403  28.056  1.00  0.00     0.065 H 
ATOM     43  H   UNL A   1      37.851  34.973  35.018  1.00  0.00     0.065 H 
ATOM     44  C   UNL A   1      39.875  33.038  35.508  1.00  0.00     0.037 A 
ATOM     45  C   UNL A   1      41.513  28.581  31.027  1.00  0.00     0.049 A 
ATOM     46  C   UNL A   1      40.893  31.934  35.476  1.00  0.00     0.074 A 
ATOM     47  C   UNL A   1      42.568  27.685  31.074  1.00  0.00    -0.036 A 
ATOM     48  N   UNL A   1      41.521  29.269  32.230  1.00  0.00    -0.354 N 
ATOM     49  N   UNL A   1      41.181  31.104  34.503  1.00  0.00    -0.248 NA
ATOM     50  C   UNL A   1      41.686  31.730  36.695  1.00  0.00    -0.034 C 
ATOM     51  C   UNL A   1      43.169  27.783  32.331  1.00  0.00    -0.036 A 
ATOM     52  H   UNL A   1      42.860  27.054  30.311  1.00  0.00     0.065 H 
ATOM     53  C   UNL A   1      42.530  28.783  33.046  1.00  0.00     0.049 A 
ATOM     54  H   UNL A   1      40.902  29.997  32.471  1.00  0.00     0.167 HD
ATOM     55  C   UNL A   1      42.194  30.290  34.986  1.00  0.00     0.074 A 
ATOM     56  C   UNL A   1      42.496  30.749  36.326  1.00  0.00    -0.034 C 
ATOM     57  H   UNL A   1      41.630  32.224  37.599  1.00  0.00     0.065 H 
ATOM     58  H   UNL A   1      43.957  27.207  32.670  1.00  0.00     0.065 H 
ATOM     59  C   UNL A   1      42.812  29.248  34.380  1.00  0.00     0.037 A 
ATOM     60  H   UNL A   1      43.245  30.360  36.919  1.00  0.00     0.065 H 
BRANCH  41  61
ATOM     61  C   UNL A   1      40.618  27.844  28.797  1.00  0.00     0.064 A 
ATOM     62  C   UNL A   1      39.854  26.669  28.747  1.00  0.00     0.173 A 
ATOM     63  C   UNL A   1      41.365  28.190  27.660  1.00  0.00     0.173 A 
ATOM     64  F   UNL A   1      39.127  26.291  29.808  1.00  0.00    -0.203 F 
ATOM     65  C   UNL A   1      39.838  25.874  27.602  1.00  0.00     0.198 A 
ATOM     66  C   UNL A   1      41.328  27.407  26.509  1.00  0.00     0.198 A 
ATOM     67  F   UNL A   1      42.107  29.308  27.653  1.00  0.00    -0.203 F 
ATOM     68  F   UNL A   1      39.114  24.747  27.582  1.00  0.00    -0.200 F 
ATOM     69  C   UNL A   1      40.565  26.250  26.481  1.00  0.00     0.200 A 
ATOM     70  F   UNL A   1      42.018  27.780  25.423  1.00  0.00    -0.200 F 
ATOM     71  F   UNL A   1      40.526  25.498  25.373  1.00  0.00    -0.200 F 
ENDBRANCH  41  61
BRANCH  44  72
ATOM     72  C   UNL A   1      39.680  33.867  36.727  1.00  0.00     0.064 A 
ATOM     73  C   UNL A   1      38.867  33.432  37.781  1.00  0.00     0.173 A 
ATOM     74  C   UNL A   1      40.284  35.129  36.847  1.00  0.00     0.173 A 
ATOM     75  F   UNL A   1      38.255  32.241  37.705  1.00  0.00    -0.203 F 
ATOM     76  C   UNL A   1      38.635  34.240  38.891  1.00  0.00     0.198 A 
ATOM     77  C   UNL A   1      40.084  35.920  37.976  1.00  0.00     0.198 A 
ATOM     78  F   UNL A   1      41.078  35.592  35.871  1.00  0.00    -0.203 F 
ATOM     79  F   UNL A   1      37.800  33.827  39.853  1.00  0.00    -0.200 F 
ATOM     80  C   UNL A   1      39.248  35.481  38.991  1.00  0.00     0.200 A 
ATOM     81  F   UNL A   1      40.694  37.107  38.076  1.00  0.00    -0.200 F 
ATOM     82  F   UNL A   1      39.022  36.258  40.058  1.00  0.00    -0.200 F 
ENDBRANCH  44  72
BRANCH  59  83
ATOM     83  C   UNL A   1      43.880  28.542  35.161  1.00  0.00     0.064 A 
ATOM     84  C   UNL A   1      43.587  27.423  35.955  1.00  0.00     0.173 A 
ATOM     85  C   UNL A   1      45.216  28.965  35.089  1.00  0.00     0.173 A 
ATOM     86  F   UNL A   1      42.321  26.992  36.072  1.00  0.00    -0.203 F 
ATOM     87  C   UNL A   1      44.587  26.769  36.668  1.00  0.00     0.198 A 
ATOM     88  C   UNL A   1      46.219  28.287  35.776  1.00  0.00     0.198 A 
ATOM     89  F   UNL A   1      45.550  30.027  34.341  1.00  0.00    -0.203 F 
ATOM     90  F   UNL A   1      44.275  25.736  37.462  1.00  0.00    -0.200 F 
ATOM     91  C   UNL A   1      45.903  27.196  36.570  1.00  0.00     0.200 A 
ATOM     92  F   UNL A   1      47.492  28.692  35.670  1.00  0.00    -0.200 F 
ATOM     93  F   UNL A   1      46.866  26.559  37.250  1.00  0.00    -0.200 F 
ENDBRANCH  59  83
ENDBRANCH  24  27
ENDBRANCH  15  17
ENDBRANCH  10  13
ENDBRANCH   7  10
ENDBRANCH   4   7
ENDBRANCH   1   4
BRANCH   1  94
ATOM     94  C   UNL A   1      33.916  29.268  26.052  1.00  0.00    -0.036 C 
ATOM     95  H   UNL A   1      34.774  29.225  26.691  1.00  0.00     0.028 H 
ATOM     96  H   UNL A   1      34.025  29.966  25.249  1.00  0.00     0.028 H 
BRANCH  94  97
ATOM     97  C   UNL A   1      33.733  27.896  25.409  1.00  0.00     0.018 C 
ATOM     98  H   UNL A   1      32.731  27.562  25.579  1.00  0.00     0.049 H 
ATOM     99  H   UNL A   1      34.439  27.221  25.849  1.00  0.00     0.049 H 
BRANCH  97 100
ATOM    100  N   UNL A   1      33.977  27.943  23.978  1.00  0.00    -0.352 N 
ATOM    101  C   UNL A   1      33.185  27.474  22.963  1.00  0.00     0.255 C 
ATOM    102  H   UNL A   1      34.821  28.367  23.702  1.00  0.00     0.163 HD
ATOM    103  O   UNL A   1      33.652  27.309  21.839  1.00  0.00    -0.269 OA
BRANCH 101 104
ATOM    104  C   UNL A   1      31.771  27.149  23.221  1.00  0.00     0.082 A 
ATOM    105  C   UNL A   1      30.838  28.180  23.389  1.00  0.00    -0.044 A 
ATOM    106  C   UNL A   1      31.344  25.817  23.241  1.00  0.00     0.143 A 
ATOM    107  C   UNL A   1      29.515  27.864  23.663  1.00  0.00    -0.043 A 
ATOM    108  H   UNL A   1      31.132  29.167  23.311  1.00  0.00     0.063 H 
ATOM    109  N   UNL A   1      30.048  25.520  23.519  1.00  0.00    -0.238 NA
ATOM    110  C   UNL A   1      29.174  26.528  23.727  1.00  0.00     0.029 A 
ATOM    111  H   UNL A   1      28.810  28.603  23.814  1.00  0.00     0.064 H 
ATOM    112  H   UNL A   1      28.195  26.286  23.948  1.00  0.00     0.084 H 
BRANCH 106 113
ATOM    113  N   UNL A   1      32.262  24.756  23.081  1.00  0.00    -0.340 N 
ATOM    114  H   UNL A   1      32.250  24.285  22.216  1.00  0.00     0.168 HD
BRANCH 113 115
ATOM    115  C   UNL A   1      33.188  24.305  24.037  1.00  0.00     0.040 A 
ATOM    116  C   UNL A   1      32.873  24.372  25.396  1.00  0.00    -0.039 A 
ATOM    117  C   UNL A   1      34.469  23.881  23.662  1.00  0.00    -0.026 A 
ATOM    118  C   UNL A   1      33.790  23.949  26.359  1.00  0.00    -0.060 A 
ATOM    119  H   UNL A   1      31.954  24.738  25.691  1.00  0.00     0.064 H 
ATOM    120  C   UNL A   1      35.410  23.471  24.617  1.00  0.00     0.058 A 
ATOM    121  H   UNL A   1      34.725  23.871  22.663  1.00  0.00     0.065 H 
ATOM    122  C   UNL A   1      35.051  23.496  25.972  1.00  0.00    -0.050 A 
ATOM    123  H   UNL A   1      33.536  23.973  27.359  1.00  0.00     0.062 H 
ATOM    124  H   UNL A   1      35.725  23.176  26.686  1.00  0.00     0.063 H 
BRANCH 120 125
ATOM    125  C   UNL A   1      36.779  23.007  24.196  1.00  0.00     0.416 C 
ATOM    126  F   UNL A   1      37.772  23.587  24.929  1.00  0.00    -0.166 F 
ATOM    127  F   UNL A   1      36.946  21.663  24.347  1.00  0.00    -0.166 F 
ATOM    128  F   UNL A   1      37.080  23.275  22.894  1.00  0.00    -0.166 F 
ENDBRANCH 120 125
ENDBRANCH 113 115
ENDBRANCH 106 113
ENDBRANCH 101 104
ENDBRANCH  97 100
ENDBRANCH  94  97
ENDBRANCH   1  94
TORSDOF 16
ENDMDL
MODEL 8
REMARK VINA RESULT:     -12.3      5.938     11.313
REMARK SMILES O=C(NCCCCCCNC(=O)c1cccnc1Nc1cccc(C(F)(F)F)c1)c1ccc(-c2c3nc(c(-c4c(F)c(F)c(F)c(F)c4F)c4ccc([nH]4)c(-c4c(F)c(F)c(F)c(F)c4F)c4nc(c(-c5c(F)c(F)c(F)c(F)c5F)c5ccc2[nH]5)C=C4)C=C3)cc1
REMARK SMILES IDX 7 1 6 4 5 7 4 10 3 13 1 14 2 15 30 17 31 18 92 19 32 20
REMARK SMILES IDX 91 22 33 24 34 27 35 28 85 29 36 30 90 31 84 32 86 33 37 34
REMARK SMILES IDX 89 35 83 37 82 39 38 41 70 44 50 45 69 46 51 47 54 48 68 49
REMARK SMILES IDX 87 50 52 51 53 53 67 55 88 56 55 59 39 61 40 62 48 63 41 64
REMARK SMILES IDX 42 65 46 66 49 67 43 68 44 69 47 70 45 71 71 72 72 73 80 74
REMARK SMILES IDX 73 75 74 76 78 77 81 78 75 79 76 80 79 81 77 82 56 83 57 84
REMARK SMILES IDX 65 85 58 86 59 87 63 88 66 89 60 90 61 91 64 92 62 93 8 94
REMARK SMILES IDX 9 97 10 100 11 101 12 103 13 104 14 105 18 106 15 107 17 109
REMARK SMILES IDX 16 110 19 113 20 115 21 116 29 117 22 118 24 120 23 122
REMARK SMILES IDX 25 125 26 126 27 127 28 128
REMARK H PARENT 7 2 7 3 6 5 6 6 5 8 5 9 4 11 4 12 3 16 31 21 92 23 32 25 91 26
REMARK H PARENT 90 36 84 38 86 40 89 42 83 43 51 52 54 54 87 57 52 58 88 60
REMARK H PARENT 8 95 8 96 9 98 9 99 10 102 14 108 15 111 16 112 19 114 21 119
REMARK H PARENT 29 121 22 123 23 124
REMARK Flexibility Score: inf
ROOT
ATOM      1  C   UNL A   1      36.580  21.905  24.226  1.00  0.00    -0.052 C 
ATOM      2  H   UNL A   1      35.621  21.952  23.752  1.00  0.00     0.027 H 
ATOM      3  H   UNL A   1      37.393  21.803  23.539  1.00  0.00     0.027 H 
ENDROOT
BRANCH   1   4
ATOM      4  C   UNL A   1      36.611  20.653  25.109  1.00  0.00    -0.052 C 
ATOM      5  H   UNL A   1      36.555  20.966  26.130  1.00  0.00     0.027 H 
ATOM      6  H   UNL A   1      35.782  20.050  24.803  1.00  0.00     0.027 H 
BRANCH   4   7
ATOM      7  C   UNL A   1      37.855  19.781  24.949  1.00  0.00    -0.036 C 
ATOM      8  H   UNL A   1      37.611  18.787  25.260  1.00  0.00     0.028 H 
ATOM      9  H   UNL A   1      38.137  19.836  23.917  1.00  0.00     0.028 H 
BRANCH   7  10
ATOM     10  C   UNL A   1      39.057  20.250  25.754  1.00  0.00     0.018 C 
ATOM     11  H   UNL A   1      39.510  21.076  25.246  1.00  0.00     0.049 H 
ATOM     12  H   UNL A   1      38.712  20.532  26.727  1.00  0.00     0.049 H 
BRANCH  10  13
ATOM     13  N   UNL A   1      40.050  19.202  25.919  1.00  0.00    -0.352 N 
ATOM     14  O   UNL A   1      42.139  18.351  26.057  1.00  0.00    -0.269 OA
ATOM     15  C   UNL A   1      41.399  19.329  26.124  1.00  0.00     0.251 C 
ATOM     16  H   UNL A   1      39.708  18.279  25.879  1.00  0.00     0.163 HD
BRANCH  15  17
ATOM     17  C   UNL A   1      41.961  20.663  26.419  1.00  0.00     0.039 A 
ATOM     18  C   UNL A   1      42.292  21.532  25.375  1.00  0.00    -0.049 A 
ATOM     19  C   UNL A   1      42.142  21.053  27.748  1.00  0.00    -0.049 A 
ATOM     20  C   UNL A   1      42.900  22.748  25.656  1.00  0.00    -0.053 A 
ATOM     21  H   UNL A   1      42.084  21.271  24.399  1.00  0.00     0.063 H 
ATOM     22  C   UNL A   1      42.671  22.315  28.031  1.00  0.00    -0.053 A 
ATOM     23  H   UNL A   1      41.888  20.412  28.516  1.00  0.00     0.063 H 
ATOM     24  C   UNL A   1      43.054  23.170  26.985  1.00  0.00    -0.014 A 
ATOM     25  H   UNL A   1      43.240  23.344  24.884  1.00  0.00     0.063 H 
ATOM     26  H   UNL A   1      42.780  22.619  29.011  1.00  0.00     0.063 H 
BRANCH  24  27
ATOM     27  C   UNL A   1      43.470  24.568  27.253  1.00  0.00     0.031 A 
ATOM     28  C   UNL A   1      42.502  25.593  27.761  1.00  0.00     0.074 A 
ATOM     29  C   UNL A   1      44.755  24.895  27.010  1.00  0.00     0.049 A 
ATOM     30  N   UNL A   1      42.709  26.862  28.009  1.00  0.00    -0.248 NA
ATOM     31  C   UNL A   1      41.124  25.149  28.021  1.00  0.00    -0.034 C 
ATOM     32  C   UNL A   1      45.773  23.974  26.494  1.00  0.00    -0.036 A 
ATOM     33  N   UNL A   1      45.428  26.080  27.158  1.00  0.00    -0.354 N 
ATOM     34  C   UNL A   1      41.489  27.373  28.432  1.00  0.00     0.074 A 
ATOM     35  C   UNL A   1      40.540  26.280  28.399  1.00  0.00    -0.034 C 
ATOM     36  H   UNL A   1      40.717  24.204  27.932  1.00  0.00     0.065 H 
ATOM     37  C   UNL A   1      46.942  24.619  26.391  1.00  0.00    -0.036 A 
ATOM     38  H   UNL A   1      45.613  22.984  26.248  1.00  0.00     0.065 H 
ATOM     39  C   UNL A   1      46.741  26.014  26.759  1.00  0.00     0.049 A 
ATOM     40  H   UNL A   1      45.011  26.897  27.515  1.00  0.00     0.167 HD
ATOM     41  C   UNL A   1      41.201  28.640  28.812  1.00  0.00     0.037 A 
ATOM     42  H   UNL A   1      39.540  26.369  28.639  1.00  0.00     0.065 H 
ATOM     43  H   UNL A   1      47.838  24.197  26.100  1.00  0.00     0.065 H 
ATOM     44  C   UNL A   1      47.671  26.979  26.655  1.00  0.00     0.037 A 
ATOM     45  C   UNL A   1      42.166  29.712  28.857  1.00  0.00     0.049 A 
ATOM     46  C   UNL A   1      47.301  28.381  27.047  1.00  0.00     0.074 A 
ATOM     47  C   UNL A   1      41.988  31.010  29.305  1.00  0.00    -0.036 A 
ATOM     48  N   UNL A   1      43.479  29.616  28.422  1.00  0.00    -0.354 N 
ATOM     49  N   UNL A   1      46.167  28.833  27.523  1.00  0.00    -0.248 NA
ATOM     50  C   UNL A   1      48.335  29.410  26.878  1.00  0.00    -0.034 C 
ATOM     51  C   UNL A   1      43.171  31.717  29.075  1.00  0.00    -0.036 A 
ATOM     52  H   UNL A   1      41.129  31.389  29.734  1.00  0.00     0.065 H 
ATOM     53  C   UNL A   1      44.107  30.845  28.543  1.00  0.00     0.049 A 
ATOM     54  H   UNL A   1      43.903  28.796  28.079  1.00  0.00     0.167 HD
ATOM     55  C   UNL A   1      46.353  30.193  27.721  1.00  0.00     0.074 A 
ATOM     56  C   UNL A   1      47.721  30.486  27.347  1.00  0.00    -0.034 C 
ATOM     57  H   UNL A   1      49.289  29.319  26.495  1.00  0.00     0.065 H 
ATOM     58  H   UNL A   1      43.321  32.720  29.270  1.00  0.00     0.065 H 
ATOM     59  C   UNL A   1      45.468  31.119  28.160  1.00  0.00     0.037 A 
ATOM     60  H   UNL A   1      48.161  31.414  27.434  1.00  0.00     0.065 H 
BRANCH  41  61
ATOM     61  C   UNL A   1      39.788  28.970  29.195  1.00  0.00     0.064 A 
ATOM     62  C   UNL A   1      38.837  29.366  28.243  1.00  0.00     0.173 A 
ATOM     63  C   UNL A   1      39.353  28.773  30.515  1.00  0.00     0.173 A 
ATOM     64  F   UNL A   1      39.201  29.573  26.970  1.00  0.00    -0.203 F 
ATOM     65  C   UNL A   1      37.503  29.554  28.601  1.00  0.00     0.198 A 
ATOM     66  C   UNL A   1      38.015  28.938  30.864  1.00  0.00     0.198 A 
ATOM     67  F   UNL A   1      40.222  28.387  31.462  1.00  0.00    -0.203 F 
ATOM     68  F   UNL A   1      36.614  29.949  27.679  1.00  0.00    -0.200 F 
ATOM     69  C   UNL A   1      37.091  29.329  29.907  1.00  0.00     0.200 A 
ATOM     70  F   UNL A   1      37.617  28.703  32.122  1.00  0.00    -0.200 F 
ATOM     71  F   UNL A   1      35.803  29.484  30.241  1.00  0.00    -0.200 F 
ENDBRANCH  41  61
BRANCH  44  72
ATOM     72  C   UNL A   1      49.019  26.665  26.110  1.00  0.00     0.064 A 
ATOM     73  C   UNL A   1      50.019  26.111  26.918  1.00  0.00     0.173 A 
ATOM     74  C   UNL A   1      49.340  26.940  24.771  1.00  0.00     0.173 A 
ATOM     75  F   UNL A   1      49.767  25.846  28.208  1.00  0.00    -0.203 F 
ATOM     76  C   UNL A   1      51.299  25.880  26.420  1.00  0.00     0.198 A 
ATOM     77  C   UNL A   1      50.608  26.670  24.263  1.00  0.00     0.198 A 
ATOM     78  F   UNL A   1      48.417  27.464  23.951  1.00  0.00    -0.203 F 
ATOM     79  F   UNL A   1      52.257  25.413  27.233  1.00  0.00    -0.200 F 
ATOM     80  C   UNL A   1      51.592  26.154  25.092  1.00  0.00     0.200 A 
ATOM     81  F   UNL A   1      50.878  26.918  22.975  1.00  0.00    -0.200 F 
ATOM     82  F   UNL A   1      52.823  25.933  24.615  1.00  0.00    -0.200 F 
ENDBRANCH  44  72
BRANCH  59  83
ATOM     83  C   UNL A   1      45.959  32.533  28.268  1.00  0.00     0.064 A 
ATOM     84  C   UNL A   1      46.584  33.004  29.432  1.00  0.00     0.173 A 
ATOM     85  C   UNL A   1      45.835  33.416  27.185  1.00  0.00     0.173 A 
ATOM     86  F   UNL A   1      46.707  32.203  30.502  1.00  0.00    -0.203 F 
ATOM     87  C   UNL A   1      47.044  34.314  29.517  1.00  0.00     0.198 A 
ATOM     88  C   UNL A   1      46.328  34.715  27.261  1.00  0.00     0.198 A 
ATOM     89  F   UNL A   1      45.249  33.014  26.047  1.00  0.00    -0.203 F 
ATOM     90  F   UNL A   1      47.590  34.757  30.658  1.00  0.00    -0.200 F 
ATOM     91  C   UNL A   1      46.925  35.165  28.429  1.00  0.00     0.200 A 
ATOM     92  F   UNL A   1      46.225  35.533  26.204  1.00  0.00    -0.200 F 
ATOM     93  F   UNL A   1      47.378  36.424  28.509  1.00  0.00    -0.200 F 
ENDBRANCH  59  83
ENDBRANCH  24  27
ENDBRANCH  15  17
ENDBRANCH  10  13
ENDBRANCH   7  10
ENDBRANCH   4   7
ENDBRANCH   1   4
BRANCH   1  94
ATOM     94  C   UNL A   1      36.810  23.229  24.963  1.00  0.00    -0.036 C 
ATOM     95  H   UNL A   1      37.501  23.813  24.391  1.00  0.00     0.028 H 
ATOM     96  H   UNL A   1      37.179  22.975  25.934  1.00  0.00     0.028 H 
BRANCH  94  97
ATOM     97  C   UNL A   1      35.551  24.063  25.183  1.00  0.00     0.018 C 
ATOM     98  H   UNL A   1      35.812  24.956  25.709  1.00  0.00     0.049 H 
ATOM     99  H   UNL A   1      34.854  23.478  25.748  1.00  0.00     0.049 H 
BRANCH  97 100
ATOM    100  N   UNL A   1      34.926  24.423  23.922  1.00  0.00    -0.352 N 
ATOM    101  C   UNL A   1      33.751  25.099  23.717  1.00  0.00     0.255 C 
ATOM    102  H   UNL A   1      35.409  24.147  23.111  1.00  0.00     0.163 HD
ATOM    103  O   UNL A   1      33.201  25.063  22.620  1.00  0.00    -0.269 OA
BRANCH 101 104
ATOM    104  C   UNL A   1      33.133  25.857  24.819  1.00  0.00     0.082 A 
ATOM    105  C   UNL A   1      33.601  27.140  25.131  1.00  0.00    -0.044 A 
ATOM    106  C   UNL A   1      32.044  25.327  25.519  1.00  0.00     0.143 A 
ATOM    107  C   UNL A   1      33.034  27.833  26.191  1.00  0.00    -0.043 A 
ATOM    108  H   UNL A   1      34.361  27.567  24.577  1.00  0.00     0.063 H 
ATOM    109  N   UNL A   1      31.504  26.011  26.560  1.00  0.00    -0.238 NA
ATOM    110  C   UNL A   1      32.002  27.226  26.876  1.00  0.00     0.029 A 
ATOM    111  H   UNL A   1      33.374  28.771  26.457  1.00  0.00     0.064 H 
ATOM    112  H   UNL A   1      31.587  27.729  27.677  1.00  0.00     0.084 H 
BRANCH 106 113
ATOM    113  N   UNL A   1      31.555  24.034  25.233  1.00  0.00    -0.340 N 
ATOM    114  H   UNL A   1      30.724  23.980  24.706  1.00  0.00     0.168 HD
BRANCH 113 115
ATOM    115  C   UNL A   1      32.136  22.817  25.628  1.00  0.00     0.040 A 
ATOM    116  C   UNL A   1      32.797  22.729  26.856  1.00  0.00    -0.039 A 
ATOM    117  C   UNL A   1      32.156  21.710  24.771  1.00  0.00    -0.026 A 
ATOM    118  C   UNL A   1      33.399  21.534  27.254  1.00  0.00    -0.060 A 
ATOM    119  H   UNL A   1      32.841  23.555  27.473  1.00  0.00     0.064 H 
ATOM    120  C   UNL A   1      32.772  20.508  25.146  1.00  0.00     0.058 A 
ATOM    121  H   UNL A   1      31.708  21.781  23.844  1.00  0.00     0.065 H 
ATOM    122  C   UNL A   1      33.382  20.427  26.406  1.00  0.00    -0.050 A 
ATOM    123  H   UNL A   1      33.857  21.470  28.176  1.00  0.00     0.062 H 
ATOM    124  H   UNL A   1      33.821  19.542  26.706  1.00  0.00     0.063 H 
BRANCH 120 125
ATOM    125  C   UNL A   1      32.775  19.323  24.217  1.00  0.00     0.416 C 
ATOM    126  F   UNL A   1      32.151  19.589  23.034  1.00  0.00    -0.166 F 
ATOM    127  F   UNL A   1      34.034  18.920  23.887  1.00  0.00    -0.166 F 
ATOM    128  F   UNL A   1      32.152  18.221  24.721  1.00  0.00    -0.166 F 
ENDBRANCH 120 125
ENDBRANCH 113 115
ENDBRANCH 106 113
ENDBRANCH 101 104
ENDBRANCH  97 100
ENDBRANCH  94  97
ENDBRANCH   1  94
TORSDOF 16
ENDMDL
MODEL 9
REMARK VINA RESULT:     -12.3      5.652     10.787
REMARK SMILES O=C(NCCCCCCNC(=O)c1cccnc1Nc1cccc(C(F)(F)F)c1)c1ccc(-c2c3nc(c(-c4c(F)c(F)c(F)c(F)c4F)c4ccc([nH]4)c(-c4c(F)c(F)c(F)c(F)c4F)c4nc(c(-c5c(F)c(F)c(F)c(F)c5F)c5ccc2[nH]5)C=C4)C=C3)cc1
REMARK SMILES IDX 7 1 6 4 5 7 4 10 3 13 1 14 2 15 30 17 31 18 92 19 32 20
REMARK SMILES IDX 91 22 33 24 34 27 35 28 85 29 36 30 90 31 84 32 86 33 37 34
REMARK SMILES IDX 89 35 83 37 82 39 38 41 70 44 50 45 69 46 51 47 54 48 68 49
REMARK SMILES IDX 87 50 52 51 53 53 67 55 88 56 55 59 39 61 40 62 48 63 41 64
REMARK SMILES IDX 42 65 46 66 49 67 43 68 44 69 47 70 45 71 71 72 72 73 80 74
REMARK SMILES IDX 73 75 74 76 78 77 81 78 75 79 76 80 79 81 77 82 56 83 57 84
REMARK SMILES IDX 65 85 58 86 59 87 63 88 66 89 60 90 61 91 64 92 62 93 8 94
REMARK SMILES IDX 9 97 10 100 11 101 12 103 13 104 14 105 18 106 15 107 17 109
REMARK SMILES IDX 16 110 19 113 20 115 21 116 29 117 22 118 24 120 23 122
REMARK SMILES IDX 25 125 26 126 27 127 28 128
REMARK H PARENT 7 2 7 3 6 5 6 6 5 8 5 9 4 11 4 12 3 16 31 21 92 23 32 25 91 26
REMARK H PARENT 90 36 84 38 86 40 89 42 83 43 51 52 54 54 87 57 52 58 88 60
REMARK H PARENT 8 95 8 96 9 98 9 99 10 102 14 108 15 111 16 112 19 114 21 119
REMARK H PARENT 29 121 22 123 23 124
REMARK Flexibility Score: inf
ROOT
ATOM      1  C   UNL A   1      37.280  22.149  24.543  1.00  0.00    -0.052 C 
ATOM      2  H   UNL A   1      36.618  22.460  23.762  1.00  0.00     0.027 H 
ATOM      3  H   UNL A   1      38.307  22.115  24.246  1.00  0.00     0.027 H 
ENDROOT
BRANCH   1   4
ATOM      4  C   UNL A   1      36.906  20.717  24.940  1.00  0.00    -0.052 C 
ATOM      5  H   UNL A   1      36.481  20.746  25.921  1.00  0.00     0.027 H 
ATOM      6  H   UNL A   1      36.226  20.367  24.192  1.00  0.00     0.027 H 
BRANCH   4   7
ATOM      7  C   UNL A   1      38.069  19.727  24.958  1.00  0.00    -0.036 C 
ATOM      8  H   UNL A   1      37.709  18.793  25.336  1.00  0.00     0.028 H 
ATOM      9  H   UNL A   1      38.427  19.658  23.951  1.00  0.00     0.028 H 
BRANCH   7  10
ATOM     10  C   UNL A   1      39.251  20.163  25.810  1.00  0.00     0.018 C 
ATOM     11  H   UNL A   1      39.687  21.037  25.372  1.00  0.00     0.049 H 
ATOM     12  H   UNL A   1      38.889  20.360  26.798  1.00  0.00     0.049 H 
BRANCH  10  13
ATOM     13  N   UNL A   1      40.269  19.130  25.906  1.00  0.00    -0.352 N 
ATOM     14  O   UNL A   1      42.378  18.320  25.952  1.00  0.00    -0.269 OA
ATOM     15  C   UNL A   1      41.620  19.278  26.079  1.00  0.00     0.251 C 
ATOM     16  H   UNL A   1      39.945  18.203  25.838  1.00  0.00     0.163 HD
BRANCH  15  17
ATOM     17  C   UNL A   1      42.163  20.611  26.412  1.00  0.00     0.039 A 
ATOM     18  C   UNL A   1      42.573  21.477  25.394  1.00  0.00    -0.049 A 
ATOM     19  C   UNL A   1      42.247  21.003  27.750  1.00  0.00    -0.049 A 
ATOM     20  C   UNL A   1      43.163  22.691  25.716  1.00  0.00    -0.053 A 
ATOM     21  H   UNL A   1      42.437  21.214  24.405  1.00  0.00     0.063 H 
ATOM     22  C   UNL A   1      42.757  22.264  28.069  1.00  0.00    -0.053 A 
ATOM     23  H   UNL A   1      41.934  20.365  28.499  1.00  0.00     0.063 H 
ATOM     24  C   UNL A   1      43.219  23.116  27.053  1.00  0.00    -0.014 A 
ATOM     25  H   UNL A   1      43.562  23.284  24.971  1.00  0.00     0.063 H 
ATOM     26  H   UNL A   1      42.794  22.569  29.054  1.00  0.00     0.063 H 
BRANCH  24  27
ATOM     27  C   UNL A   1      43.619  24.513  27.348  1.00  0.00     0.031 A 
ATOM     28  C   UNL A   1      42.621  25.539  27.792  1.00  0.00     0.074 A 
ATOM     29  C   UNL A   1      44.917  24.837  27.191  1.00  0.00     0.049 A 
ATOM     30  N   UNL A   1      42.813  26.808  28.053  1.00  0.00    -0.248 NA
ATOM     31  C   UNL A   1      41.229  25.098  27.960  1.00  0.00    -0.034 C 
ATOM     32  C   UNL A   1      45.967  23.915  26.743  1.00  0.00    -0.036 A 
ATOM     33  N   UNL A   1      45.582  26.021  27.383  1.00  0.00    -0.354 N 
ATOM     34  C   UNL A   1      41.569  27.321  28.395  1.00  0.00     0.074 A 
ATOM     35  C   UNL A   1      40.623  26.230  28.299  1.00  0.00    -0.034 C 
ATOM     36  H   UNL A   1      40.827  24.153  27.844  1.00  0.00     0.065 H 
ATOM     37  C   UNL A   1      47.141  24.558  26.718  1.00  0.00    -0.036 A 
ATOM     38  H   UNL A   1      45.821  22.926  26.486  1.00  0.00     0.065 H 
ATOM     39  C   UNL A   1      46.918  25.954  27.072  1.00  0.00     0.049 A 
ATOM     40  H   UNL A   1      45.143  26.839  27.713  1.00  0.00     0.167 HD
ATOM     41  C   UNL A   1      41.259  28.588  28.755  1.00  0.00     0.037 A 
ATOM     42  H   UNL A   1      39.609  26.320  28.471  1.00  0.00     0.065 H 
ATOM     43  H   UNL A   1      48.053  24.134  26.487  1.00  0.00     0.065 H 
ATOM     44  C   UNL A   1      47.855  26.917  27.030  1.00  0.00     0.037 A 
ATOM     45  C   UNL A   1      42.220  29.658  28.864  1.00  0.00     0.049 A 
ATOM     46  C   UNL A   1      47.462  28.320  27.397  1.00  0.00     0.074 A 
ATOM     47  C   UNL A   1      42.015  30.957  29.299  1.00  0.00    -0.036 A 
ATOM     48  N   UNL A   1      43.558  29.560  28.517  1.00  0.00    -0.354 N 
ATOM     49  N   UNL A   1      46.299  28.774  27.798  1.00  0.00    -0.248 NA
ATOM     50  C   UNL A   1      48.506  29.347  27.297  1.00  0.00    -0.034 C 
ATOM     51  C   UNL A   1      43.212  31.662  29.149  1.00  0.00    -0.036 A 
ATOM     52  H   UNL A   1      41.130  31.337  29.671  1.00  0.00     0.065 H 
ATOM     53  C   UNL A   1      44.179  30.789  28.680  1.00  0.00     0.049 A 
ATOM     54  H   UNL A   1      44.003  28.740  28.202  1.00  0.00     0.167 HD
ATOM     55  C   UNL A   1      46.474  30.133  28.007  1.00  0.00     0.074 A 
ATOM     56  C   UNL A   1      47.864  30.424  27.725  1.00  0.00    -0.034 C 
ATOM     57  H   UNL A   1      49.483  29.254  26.979  1.00  0.00     0.065 H 
ATOM     58  H   UNL A   1      43.350  32.665  29.353  1.00  0.00     0.065 H 
ATOM     59  C   UNL A   1      45.563  31.061  28.388  1.00  0.00     0.037 A 
ATOM     60  H   UNL A   1      48.299  31.351  27.842  1.00  0.00     0.065 H 
BRANCH  41  61
ATOM     61  C   UNL A   1      39.824  28.921  29.043  1.00  0.00     0.064 A 
ATOM     62  C   UNL A   1      38.940  29.323  28.032  1.00  0.00     0.173 A 
ATOM     63  C   UNL A   1      39.301  28.719  30.331  1.00  0.00     0.173 A 
ATOM     64  F   UNL A   1      39.389  29.534  26.787  1.00  0.00    -0.203 F 
ATOM     65  C   UNL A   1      37.585  29.513  28.300  1.00  0.00     0.198 A 
ATOM     66  C   UNL A   1      37.943  28.886  30.590  1.00  0.00     0.198 A 
ATOM     67  F   UNL A   1      40.103  28.327  31.332  1.00  0.00    -0.203 F 
ATOM     68  F   UNL A   1      36.761  29.913  27.322  1.00  0.00    -0.200 F 
ATOM     69  C   UNL A   1      37.086  29.283  29.575  1.00  0.00     0.200 A 
ATOM     70  F   UNL A   1      37.461  28.648  31.817  1.00  0.00    -0.200 F 
ATOM     71  F   UNL A   1      35.779  29.441  29.823  1.00  0.00    -0.200 F 
ENDBRANCH  41  61
BRANCH  44  72
ATOM     72  C   UNL A   1      49.235  26.601  26.575  1.00  0.00     0.064 A 
ATOM     73  C   UNL A   1      50.209  26.146  27.472  1.00  0.00     0.173 A 
ATOM     74  C   UNL A   1      49.612  26.776  25.234  1.00  0.00     0.173 A 
ATOM     75  F   UNL A   1      49.902  25.979  28.767  1.00  0.00    -0.203 F 
ATOM     76  C   UNL A   1      51.517  25.914  27.054  1.00  0.00     0.198 A 
ATOM     77  C   UNL A   1      50.911  26.504  24.810  1.00  0.00     0.198 A 
ATOM     78  F   UNL A   1      48.717  27.202  24.332  1.00  0.00    -0.203 F 
ATOM     79  F   UNL A   1      52.447  25.543  27.946  1.00  0.00    -0.200 F 
ATOM     80  C   UNL A   1      51.866  26.088  25.723  1.00  0.00     0.200 A 
ATOM     81  F   UNL A   1      51.235  26.655  23.519  1.00  0.00    -0.200 F 
ATOM     82  F   UNL A   1      53.125  25.866  25.322  1.00  0.00    -0.200 F 
ENDBRANCH  44  72
BRANCH  59  83
ATOM     83  C   UNL A   1      46.048  32.473  28.528  1.00  0.00     0.064 A 
ATOM     84  C   UNL A   1      45.970  33.383  27.462  1.00  0.00     0.173 A 
ATOM     85  C   UNL A   1      46.564  32.934  29.749  1.00  0.00     0.173 A 
ATOM     86  F   UNL A   1      45.503  32.984  26.269  1.00  0.00    -0.203 F 
ATOM     87  C   UNL A   1      46.413  34.694  27.606  1.00  0.00     0.198 A 
ATOM     88  C   UNL A   1      46.974  34.255  29.899  1.00  0.00     0.198 A 
ATOM     89  F   UNL A   1      46.656  32.106  30.800  1.00  0.00    -0.203 F 
ATOM     90  F   UNL A   1      46.378  35.529  26.559  1.00  0.00    -0.200 F 
ATOM     91  C   UNL A   1      46.906  35.131  28.826  1.00  0.00     0.200 A 
ATOM     92  F   UNL A   1      47.436  34.681  31.083  1.00  0.00    -0.200 F 
ATOM     93  F   UNL A   1      47.323  36.397  28.966  1.00  0.00    -0.200 F 
ENDBRANCH  59  83
ENDBRANCH  24  27
ENDBRANCH  15  17
ENDBRANCH  10  13
ENDBRANCH   7  10
ENDBRANCH   4   7
ENDBRANCH   1   4
BRANCH   1  94
ATOM     94  C   UNL A   1      37.200  23.183  25.672  1.00  0.00    -0.036 C 
ATOM     95  H   UNL A   1      37.909  23.957  25.467  1.00  0.00     0.028 H 
ATOM     96  H   UNL A   1      37.405  22.656  26.580  1.00  0.00     0.028 H 
BRANCH  94  97
ATOM     97  C   UNL A   1      35.828  23.828  25.848  1.00  0.00     0.018 C 
ATOM     98  H   UNL A   1      35.292  23.765  24.925  1.00  0.00     0.049 H 
ATOM     99  H   UNL A   1      35.971  24.849  26.136  1.00  0.00     0.049 H 
BRANCH  97 100
ATOM    100  N   UNL A   1      35.059  23.165  26.887  1.00  0.00    -0.352 N 
ATOM    101  C   UNL A   1      33.757  22.740  26.842  1.00  0.00     0.255 C 
ATOM    102  H   UNL A   1      35.535  22.999  27.732  1.00  0.00     0.163 HD
ATOM    103  O   UNL A   1      33.155  22.478  27.880  1.00  0.00    -0.269 OA
BRANCH 101 104
ATOM    104  C   UNL A   1      33.067  22.612  25.546  1.00  0.00     0.082 A 
ATOM    105  C   UNL A   1      33.299  21.490  24.740  1.00  0.00    -0.044 A 
ATOM    106  C   UNL A   1      32.137  23.576  25.142  1.00  0.00     0.143 A 
ATOM    107  C   UNL A   1      32.668  21.395  23.507  1.00  0.00    -0.043 A 
ATOM    108  H   UNL A   1      33.933  20.741  25.060  1.00  0.00     0.063 H 
ATOM    109  N   UNL A   1      31.533  23.476  23.930  1.00  0.00    -0.238 NA
ATOM    110  C   UNL A   1      31.808  22.411  23.146  1.00  0.00     0.029 A 
ATOM    111  H   UNL A   1      32.838  20.590  22.883  1.00  0.00     0.064 H 
ATOM    112  H   UNL A   1      31.349  22.355  22.222  1.00  0.00     0.084 H 
BRANCH 106 113
ATOM    113  N   UNL A   1      31.886  24.721  25.930  1.00  0.00    -0.340 N 
ATOM    114  H   UNL A   1      31.437  24.576  26.794  1.00  0.00     0.168 HD
BRANCH 113 115
ATOM    115  C   UNL A   1      32.215  26.047  25.599  1.00  0.00     0.040 A 
ATOM    116  C   UNL A   1      33.417  26.598  26.049  1.00  0.00    -0.039 A 
ATOM    117  C   UNL A   1      31.313  26.868  24.910  1.00  0.00    -0.026 A 
ATOM    118  C   UNL A   1      33.748  27.920  25.749  1.00  0.00    -0.060 A 
ATOM    119  H   UNL A   1      34.066  26.022  26.609  1.00  0.00     0.064 H 
ATOM    120  C   UNL A   1      31.620  28.204  24.617  1.00  0.00     0.058 A 
ATOM    121  H   UNL A   1      30.404  26.481  24.614  1.00  0.00     0.065 H 
ATOM    122  C   UNL A   1      32.857  28.719  25.032  1.00  0.00    -0.050 A 
ATOM    123  H   UNL A   1      34.653  28.308  26.058  1.00  0.00     0.062 H 
ATOM    124  H   UNL A   1      33.108  29.694  24.805  1.00  0.00     0.063 H 
BRANCH 120 125
ATOM    125  C   UNL A   1      30.644  29.069  23.866  1.00  0.00     0.416 C 
ATOM    126  F   UNL A   1      30.398  30.249  24.504  1.00  0.00    -0.166 F 
ATOM    127  F   UNL A   1      31.093  29.408  22.624  1.00  0.00    -0.166 F 
ATOM    128  F   UNL A   1      29.424  28.493  23.675  1.00  0.00    -0.166 F 
ENDBRANCH 120 125
ENDBRANCH 113 115
ENDBRANCH 106 113
ENDBRANCH 101 104
ENDBRANCH  97 100
ENDBRANCH  94  97
ENDBRANCH   1  94
TORSDOF 16
ENDMDL
MODEL 10
REMARK VINA RESULT:     -12.2      1.129      7.318
REMARK SMILES O=C(NCCCCCCNC(=O)c1cccnc1Nc1cccc(C(F)(F)F)c1)c1ccc(-c2c3nc(c(-c4c(F)c(F)c(F)c(F)c4F)c4ccc([nH]4)c(-c4c(F)c(F)c(F)c(F)c4F)c4nc(c(-c5c(F)c(F)c(F)c(F)c5F)c5ccc2[nH]5)C=C4)C=C3)cc1
REMARK SMILES IDX 7 1 6 4 5 7 4 10 3 13 1 14 2 15 30 17 31 18 92 19 32 20
REMARK SMILES IDX 91 22 33 24 34 27 35 28 85 29 36 30 90 31 84 32 86 33 37 34
REMARK SMILES IDX 89 35 83 37 82 39 38 41 70 44 50 45 69 46 51 47 54 48 68 49
REMARK SMILES IDX 87 50 52 51 53 53 67 55 88 56 55 59 39 61 40 62 48 63 41 64
REMARK SMILES IDX 42 65 46 66 49 67 43 68 44 69 47 70 45 71 71 72 72 73 80 74
REMARK SMILES IDX 73 75 74 76 78 77 81 78 75 79 76 80 79 81 77 82 56 83 57 84
REMARK SMILES IDX 65 85 58 86 59 87 63 88 66 89 60 90 61 91 64 92 62 93 8 94
REMARK SMILES IDX 9 97 10 100 11 101 12 103 13 104 14 105 18 106 15 107 17 109
REMARK SMILES IDX 16 110 19 113 20 115 21 116 29 117 22 118 24 120 23 122
REMARK SMILES IDX 25 125 26 126 27 127 28 128
REMARK H PARENT 7 2 7 3 6 5 6 6 5 8 5 9 4 11 4 12 3 16 31 21 92 23 32 25 91 26
REMARK H PARENT 90 36 84 38 86 40 89 42 83 43 51 52 54 54 87 57 52 58 88 60
REMARK H PARENT 8 95 8 96 9 98 9 99 10 102 14 108 15 111 16 112 19 114 21 119
REMARK H PARENT 29 121 22 123 23 124
REMARK Flexibility Score: inf
ROOT
ATOM      1  C   UNL A   1      32.220  29.925  27.198  1.00  0.00    -0.052 C 
ATOM      2  H   UNL A   1      31.729  29.988  28.146  1.00  0.00     0.027 H 
ATOM      3  H   UNL A   1      33.204  30.345  27.197  1.00  0.00     0.027 H 
ENDROOT
BRANCH   1   4
ATOM      4  C   UNL A   1      31.409  30.744  26.188  1.00  0.00    -0.052 C 
ATOM      5  H   UNL A   1      31.871  30.638  25.229  1.00  0.00     0.027 H 
ATOM      6  H   UNL A   1      30.411  30.361  26.225  1.00  0.00     0.027 H 
BRANCH   4   7
ATOM      7  C   UNL A   1      31.306  32.236  26.500  1.00  0.00    -0.036 C 
ATOM      8  H   UNL A   1      31.232  32.768  25.575  1.00  0.00     0.028 H 
ATOM      9  H   UNL A   1      30.443  32.359  27.122  1.00  0.00     0.028 H 
BRANCH   7  10
ATOM     10  C   UNL A   1      32.486  32.796  27.280  1.00  0.00     0.018 C 
ATOM     11  H   UNL A   1      32.592  32.243  28.190  1.00  0.00     0.049 H 
ATOM     12  H   UNL A   1      33.358  32.708  26.666  1.00  0.00     0.049 H 
BRANCH  10  13
ATOM     13  N   UNL A   1      32.311  34.202  27.606  1.00  0.00    -0.352 N 
ATOM     14  O   UNL A   1      32.543  36.066  28.861  1.00  0.00    -0.269 OA
ATOM     15  C   UNL A   1      32.932  34.935  28.583  1.00  0.00     0.251 C 
ATOM     16  H   UNL A   1      31.661  34.691  27.051  1.00  0.00     0.163 HD
BRANCH  15  17
ATOM     17  C   UNL A   1      34.074  34.345  29.310  1.00  0.00     0.039 A 
ATOM     18  C   UNL A   1      33.859  33.615  30.483  1.00  0.00    -0.049 A 
ATOM     19  C   UNL A   1      35.366  34.510  28.807  1.00  0.00    -0.049 A 
ATOM     20  C   UNL A   1      34.943  33.139  31.208  1.00  0.00    -0.053 A 
ATOM     21  H   UNL A   1      32.897  33.430  30.808  1.00  0.00     0.063 H 
ATOM     22  C   UNL A   1      36.450  33.952  29.490  1.00  0.00    -0.053 A 
ATOM     23  H   UNL A   1      35.521  35.042  27.936  1.00  0.00     0.063 H 
ATOM     24  C   UNL A   1      36.244  33.263  30.696  1.00  0.00    -0.014 A 
ATOM     25  H   UNL A   1      34.791  32.692  32.127  1.00  0.00     0.063 H 
ATOM     26  H   UNL A   1      37.403  34.046  29.107  1.00  0.00     0.063 H 
BRANCH  24  27
ATOM     27  C   UNL A   1      37.350  32.530  31.358  1.00  0.00     0.031 A 
ATOM     28  C   UNL A   1      37.856  32.926  32.712  1.00  0.00     0.074 A 
ATOM     29  C   UNL A   1      37.900  31.495  30.693  1.00  0.00     0.049 A 
ATOM     30  N   UNL A   1      38.839  32.404  33.404  1.00  0.00    -0.248 NA
ATOM     31  C   UNL A   1      37.187  34.052  33.380  1.00  0.00    -0.034 C 
ATOM     32  C   UNL A   1      37.492  31.042  29.359  1.00  0.00    -0.036 A 
ATOM     33  N   UNL A   1      38.914  30.639  31.035  1.00  0.00    -0.354 N 
ATOM     34  C   UNL A   1      38.920  33.147  34.573  1.00  0.00     0.074 A 
ATOM     35  C   UNL A   1      37.894  34.166  34.498  1.00  0.00    -0.034 C 
ATOM     36  H   UNL A   1      36.378  34.610  33.061  1.00  0.00     0.065 H 
ATOM     37  C   UNL A   1      38.230  29.981  29.007  1.00  0.00    -0.036 A 
ATOM     38  H   UNL A   1      36.753  31.474  28.782  1.00  0.00     0.065 H 
ATOM     39  C   UNL A   1      39.212  29.726  30.053  1.00  0.00     0.049 A 
ATOM     40  H   UNL A   1      39.383  30.675  31.900  1.00  0.00     0.167 HD
ATOM     41  C   UNL A   1      39.776  32.983  35.609  1.00  0.00     0.037 A 
ATOM     42  H   UNL A   1      37.733  34.886  35.220  1.00  0.00     0.065 H 
ATOM     43  H   UNL A   1      38.120  29.434  28.139  1.00  0.00     0.065 H 
ATOM     44  C   UNL A   1      40.196  28.812  29.978  1.00  0.00     0.037 A 
ATOM     45  C   UNL A   1      40.779  31.949  35.675  1.00  0.00     0.049 A 
ATOM     46  C   UNL A   1      41.152  28.689  31.130  1.00  0.00     0.074 A 
ATOM     47  C   UNL A   1      41.641  31.652  36.718  1.00  0.00    -0.036 A 
ATOM     48  N   UNL A   1      41.069  31.058  34.652  1.00  0.00    -0.354 N 
ATOM     49  N   UNL A   1      41.166  29.343  32.266  1.00  0.00    -0.248 NA
ATOM     50  C   UNL A   1      42.235  27.708  30.988  1.00  0.00    -0.034 C 
ATOM     51  C   UNL A   1      42.497  30.630  36.299  1.00  0.00    -0.036 A 
ATOM     52  H   UNL A   1      41.648  32.107  37.644  1.00  0.00     0.065 H 
ATOM     53  C   UNL A   1      42.130  30.246  35.020  1.00  0.00     0.049 A 
ATOM     54  H   UNL A   1      40.592  31.009  33.792  1.00  0.00     0.167 HD
ATOM     55  C   UNL A   1      42.248  28.848  32.976  1.00  0.00     0.074 A 
ATOM     56  C   UNL A   1      42.845  27.812  32.159  1.00  0.00    -0.034 C 
ATOM     57  H   UNL A   1      42.461  27.097  30.187  1.00  0.00     0.065 H 
ATOM     58  H   UNL A   1      43.272  30.229  36.852  1.00  0.00     0.065 H 
ATOM     59  C   UNL A   1      42.715  29.224  34.191  1.00  0.00     0.037 A 
ATOM     60  H   UNL A   1      43.645  27.230  32.451  1.00  0.00     0.065 H 
BRANCH  41  61
ATOM     61  C   UNL A   1      39.701  33.943  36.760  1.00  0.00     0.064 A 
ATOM     62  C   UNL A   1      38.904  33.689  37.885  1.00  0.00     0.173 A 
ATOM     63  C   UNL A   1      40.532  35.074  36.786  1.00  0.00     0.173 A 
ATOM     64  F   UNL A   1      38.089  32.625  37.910  1.00  0.00    -0.203 F 
ATOM     65  C   UNL A   1      38.940  34.535  38.993  1.00  0.00     0.198 A 
ATOM     66  C   UNL A   1      40.584  35.904  37.903  1.00  0.00     0.198 A 
ATOM     67  F   UNL A   1      41.320  35.358  35.738  1.00  0.00    -0.203 F 
ATOM     68  F   UNL A   1      38.157  34.283  40.051  1.00  0.00    -0.200 F 
ATOM     69  C   UNL A   1      39.787  35.634  39.005  1.00  0.00     0.200 A 
ATOM     70  F   UNL A   1      41.415  36.955  37.919  1.00  0.00    -0.200 F 
ATOM     71  F   UNL A   1      39.839  36.430  40.082  1.00  0.00    -0.200 F 
ENDBRANCH  41  61
BRANCH  44  72
ATOM     72  C   UNL A   1      40.359  27.986  28.753  1.00  0.00     0.064 A 
ATOM     73  C   UNL A   1      39.783  26.713  28.653  1.00  0.00     0.173 A 
ATOM     74  C   UNL A   1      41.121  28.444  27.667  1.00  0.00     0.173 A 
ATOM     75  F   UNL A   1      39.060  26.224  29.671  1.00  0.00    -0.203 F 
ATOM     76  C   UNL A   1      39.993  25.916  27.530  1.00  0.00     0.198 A 
ATOM     77  C   UNL A   1      41.296  27.662  26.528  1.00  0.00     0.198 A 
ATOM     78  F   UNL A   1      41.689  29.658  27.707  1.00  0.00    -0.203 F 
ATOM     79  F   UNL A   1      39.486  24.676  27.488  1.00  0.00    -0.200 F 
ATOM     80  C   UNL A   1      40.744  26.393  26.466  1.00  0.00     0.200 A 
ATOM     81  F   UNL A   1      42.006  28.137  25.496  1.00  0.00    -0.200 F 
ATOM     82  F   UNL A   1      40.948  25.624  25.388  1.00  0.00    -0.200 F 
ENDBRANCH  44  72
BRANCH  59  83
ATOM     83  C   UNL A   1      43.924  28.503  34.709  1.00  0.00     0.064 A 
ATOM     84  C   UNL A   1      43.810  27.296  35.415  1.00  0.00     0.173 A 
ATOM     85  C   UNL A   1      45.212  29.004  34.468  1.00  0.00     0.173 A 
ATOM     86  F   UNL A   1      42.598  26.787  35.689  1.00  0.00    -0.203 F 
ATOM     87  C   UNL A   1      44.938  26.630  35.883  1.00  0.00     0.198 A 
ATOM     88  C   UNL A   1      46.340  28.317  34.906  1.00  0.00     0.198 A 
ATOM     89  F   UNL A   1      45.377  30.152  33.793  1.00  0.00    -0.203 F 
ATOM     90  F   UNL A   1      44.802  25.508  36.601  1.00  0.00    -0.200 F 
ATOM     91  C   UNL A   1      46.203  27.136  35.620  1.00  0.00     0.200 A 
ATOM     92  F   UNL A   1      47.562  28.799  34.639  1.00  0.00    -0.200 F 
ATOM     93  F   UNL A   1      47.289  26.489  36.062  1.00  0.00    -0.200 F 
ENDBRANCH  59  83
ENDBRANCH  24  27
ENDBRANCH  15  17
ENDBRANCH  10  13
ENDBRANCH   7  10
ENDBRANCH   4   7
ENDBRANCH   1   4
BRANCH   1  94
ATOM     94  C   UNL A   1      32.391  28.442  26.849  1.00  0.00    -0.036 C 
ATOM     95  H   UNL A   1      31.610  28.167  26.171  1.00  0.00     0.028 H 
ATOM     96  H   UNL A   1      32.352  27.907  27.774  1.00  0.00     0.028 H 
BRANCH  94  97
ATOM     97  C   UNL A   1      33.728  28.090  26.203  1.00  0.00     0.018 C 
ATOM     98  H   UNL A   1      33.767  27.034  26.037  1.00  0.00     0.049 H 
ATOM     99  H   UNL A   1      34.513  28.401  26.861  1.00  0.00     0.049 H 
BRANCH  97 100
ATOM    100  N   UNL A   1      33.900  28.774  24.933  1.00  0.00    -0.352 N 
ATOM    101  C   UNL A   1      33.909  28.238  23.672  1.00  0.00     0.255 C 
ATOM    102  H   UNL A   1      34.027  29.748  24.986  1.00  0.00     0.163 HD
ATOM    103  O   UNL A   1      34.364  28.881  22.729  1.00  0.00    -0.269 OA
BRANCH 101 104
ATOM    104  C   UNL A   1      33.388  26.879  23.444  1.00  0.00     0.082 A 
ATOM    105  C   UNL A   1      34.027  25.779  24.031  1.00  0.00    -0.044 A 
ATOM    106  C   UNL A   1      32.224  26.684  22.693  1.00  0.00     0.143 A 
ATOM    107  C   UNL A   1      33.548  24.500  23.784  1.00  0.00    -0.043 A 
ATOM    108  H   UNL A   1      34.848  25.918  24.641  1.00  0.00     0.063 H 
ATOM    109  N   UNL A   1      31.770  25.428  22.451  1.00  0.00    -0.238 NA
ATOM    110  C   UNL A   1      32.430  24.377  22.986  1.00  0.00     0.029 A 
ATOM    111  H   UNL A   1      34.012  23.670  24.185  1.00  0.00     0.064 H 
ATOM    112  H   UNL A   1      32.078  23.427  22.784  1.00  0.00     0.084 H 
BRANCH 106 113
ATOM    113  N   UNL A   1      31.561  27.772  22.083  1.00  0.00    -0.340 N 
ATOM    114  H   UNL A   1      32.026  28.211  21.334  1.00  0.00     0.168 HD
BRANCH 113 115
ATOM    115  C   UNL A   1      30.304  28.288  22.441  1.00  0.00     0.040 A 
ATOM    116  C   UNL A   1      29.399  27.488  23.143  1.00  0.00    -0.039 A 
ATOM    117  C   UNL A   1      29.895  29.560  22.021  1.00  0.00    -0.026 A 
ATOM    118  C   UNL A   1      28.138  27.978  23.487  1.00  0.00    -0.060 A 
ATOM    119  H   UNL A   1      29.664  26.527  23.408  1.00  0.00     0.064 H 
ATOM    120  C   UNL A   1      28.626  30.061  22.341  1.00  0.00     0.058 A 
ATOM    121  H   UNL A   1      30.542  30.139  21.464  1.00  0.00     0.065 H 
ATOM    122  C   UNL A   1      27.754  29.261  23.093  1.00  0.00    -0.050 A 
ATOM    123  H   UNL A   1      27.488  27.392  24.033  1.00  0.00     0.062 H 
ATOM    124  H   UNL A   1      26.824  29.622  23.355  1.00  0.00     0.063 H 
BRANCH 120 125
ATOM    125  C   UNL A   1      28.206  31.435  21.890  1.00  0.00     0.416 C 
ATOM    126  F   UNL A   1      27.280  31.993  22.720  1.00  0.00    -0.166 F 
ATOM    127  F   UNL A   1      29.247  32.314  21.854  1.00  0.00    -0.166 F 
ATOM    128  F   UNL A   1      27.650  31.465  20.646  1.00  0.00    -0.166 F 
ENDBRANCH 120 125
ENDBRANCH 113 115
ENDBRANCH 106 113
ENDBRANCH 101 104
ENDBRANCH  97 100
ENDBRANCH  94  97
ENDBRANCH   1  94
TORSDOF 16
ENDMDL
