MODEL 1
REMARK VINA RESULT:     -11.2      0.000      0.000
REMARK SMILES O=C(CNC(=O)CNC(=O)OCc1ccccc1)NCCCCCCNC(=O)c1ccc(-c2c3nc(c(-c4c(F)c(F)c(F)c(F)c4F)c4ccc([nH]4)c(-c4c(F)c(F)c(F)c(F)c4F)c4nc(c(-c5c(F)c(F)c(F)c(F)c5F)c5ccc2[nH]5)C=C4)C=C3)cc1
REMARK SMILES IDX 20 1 19 4 1 5 2 6 3 8 4 11 5 12 6 14 7 15 8 18 9 19 10 21
REMARK SMILES IDX 11 22 12 23 13 26 14 27 18 28 15 29 17 31 16 33 21 37 22 40
REMARK SMILES IDX 23 43 24 46 25 49 26 52 27 53 28 55 29 56 30 57 91 58 31 59
REMARK SMILES IDX 90 61 32 63 33 66 34 67 84 68 35 69 89 70 83 71 85 72 36 73
REMARK SMILES IDX 88 74 82 76 81 78 37 80 69 83 49 84 68 85 50 86 53 87 67 88
REMARK SMILES IDX 86 89 51 90 52 92 66 94 87 95 54 98 38 100 39 101 47 102
REMARK SMILES IDX 40 103 41 104 45 105 48 106 42 107 43 108 46 109 44 110
REMARK SMILES IDX 70 111 71 112 79 113 72 114 73 115 77 116 80 117 74 118
REMARK SMILES IDX 75 119 78 120 76 121 55 122 56 123 64 124 57 125 58 126
REMARK SMILES IDX 62 127 65 128 59 129 60 130 63 131 61 132
REMARK H PARENT 20 2 20 3 19 7 3 9 3 10 4 13 7 16 7 17 8 20 12 24 12 25 14 30
REMARK H PARENT 18 32 15 34 17 35 16 36 21 38 21 39 22 41 22 42 23 44 23 45
REMARK H PARENT 24 47 24 48 25 50 25 51 26 54 30 60 91 62 31 64 90 65 89 75
REMARK H PARENT 83 77 85 79 88 81 82 82 50 91 53 93 86 96 51 97 87 99
REMARK Flexibility Score: inf
ROOT
ATOM      1  C   UNL A   1      33.790  30.793  27.458  1.00  0.00     0.017 C 
ATOM      2  H   UNL A   1      33.466  30.127  28.231  1.00  0.00     0.049 H 
ATOM      3  H   UNL A   1      33.147  31.641  27.360  1.00  0.00     0.049 H 
ENDROOT
BRANCH   1   4
ATOM      4  N   UNL A   1      33.758  30.081  26.194  1.00  0.00    -0.355 N 
ATOM      5  O   UNL A   1      31.478  30.151  25.934  1.00  0.00    -0.273 OA
ATOM      6  C   UNL A   1      32.588  29.848  25.504  1.00  0.00     0.239 C 
ATOM      7  H   UNL A   1      34.604  29.753  25.815  1.00  0.00     0.163 HD
BRANCH   6   8
ATOM      8  C   UNL A   1      32.743  29.099  24.170  1.00  0.00     0.097 C 
ATOM      9  H   UNL A   1      32.702  28.049  24.373  1.00  0.00     0.059 H 
ATOM     10  H   UNL A   1      33.679  29.413  23.756  1.00  0.00     0.059 H 
BRANCH   8  11
ATOM     11  N   UNL A   1      31.727  29.410  23.171  1.00  0.00    -0.346 N 
ATOM     12  C   UNL A   1      30.862  28.573  22.528  1.00  0.00     0.239 C 
ATOM     13  H   UNL A   1      31.655  30.362  22.926  1.00  0.00     0.164 HD
ATOM     14  O   UNL A   1      30.082  29.060  21.708  1.00  0.00    -0.273 OA
BRANCH  12  15
ATOM     15  C   UNL A   1      30.933  27.064  22.766  1.00  0.00     0.100 C 
ATOM     16  H   UNL A   1      29.955  26.676  22.959  1.00  0.00     0.060 H 
ATOM     17  H   UNL A   1      31.549  26.840  23.611  1.00  0.00     0.060 H 
BRANCH  15  18
ATOM     18  N   UNL A   1      31.475  26.469  21.561  1.00  0.00    -0.312 N 
ATOM     19  C   UNL A   1      32.690  25.883  21.421  1.00  0.00     0.407 C 
ATOM     20  H   UNL A   1      30.902  26.492  20.762  1.00  0.00     0.167 HD
ATOM     21  O   UNL A   1      33.176  25.740  20.307  1.00  0.00    -0.225 OA
BRANCH  19  22
ATOM     22  O   UNL A   1      33.271  25.528  22.589  1.00  0.00    -0.445 OA
BRANCH  22  23
ATOM     23  C   UNL A   1      33.545  24.123  22.736  1.00  0.00     0.118 C 
ATOM     24  H   UNL A   1      33.738  23.714  21.767  1.00  0.00     0.076 H 
ATOM     25  H   UNL A   1      32.686  23.684  23.200  1.00  0.00     0.076 H 
BRANCH  23  26
ATOM     26  C   UNL A   1      34.731  23.826  23.627  1.00  0.00    -0.011 A 
ATOM     27  C   UNL A   1      34.831  24.393  24.905  1.00  0.00    -0.056 A 
ATOM     28  C   UNL A   1      35.782  23.011  23.179  1.00  0.00    -0.056 A 
ATOM     29  C   UNL A   1      35.953  24.150  25.705  1.00  0.00    -0.062 A 
ATOM     30  H   UNL A   1      34.070  24.994  25.260  1.00  0.00     0.063 H 
ATOM     31  C   UNL A   1      36.891  22.751  23.984  1.00  0.00    -0.062 A 
ATOM     32  H   UNL A   1      35.733  22.595  22.235  1.00  0.00     0.063 H 
ATOM     33  C   UNL A   1      36.979  23.325  25.247  1.00  0.00    -0.062 A 
ATOM     34  H   UNL A   1      36.020  24.584  26.639  1.00  0.00     0.062 H 
ATOM     35  H   UNL A   1      37.645  22.134  23.644  1.00  0.00     0.062 H 
ATOM     36  H   UNL A   1      37.801  23.143  25.843  1.00  0.00     0.062 H 
ENDBRANCH  23  26
ENDBRANCH  22  23
ENDBRANCH  19  22
ENDBRANCH  15  18
ENDBRANCH  12  15
ENDBRANCH   8  11
ENDBRANCH   6   8
ENDBRANCH   1   4
BRANCH   1  37
ATOM     37  C   UNL A   1      35.179  31.319  27.824  1.00  0.00    -0.036 C 
ATOM     38  H   UNL A   1      35.848  31.070  27.027  1.00  0.00     0.028 H 
ATOM     39  H   UNL A   1      35.436  30.861  28.756  1.00  0.00     0.028 H 
BRANCH  37  40
ATOM     40  C   UNL A   1      35.260  32.833  28.056  1.00  0.00    -0.052 C 
ATOM     41  H   UNL A   1      34.920  33.318  27.165  1.00  0.00     0.027 H 
ATOM     42  H   UNL A   1      36.282  33.029  28.304  1.00  0.00     0.027 H 
BRANCH  40  43
ATOM     43  C   UNL A   1      34.444  33.385  29.226  1.00  0.00    -0.052 C 
ATOM     44  H   UNL A   1      35.118  33.891  29.886  1.00  0.00     0.027 H 
ATOM     45  H   UNL A   1      33.957  32.539  29.665  1.00  0.00     0.027 H 
BRANCH  43  46
ATOM     46  C   UNL A   1      33.328  34.361  28.858  1.00  0.00    -0.036 C 
ATOM     47  H   UNL A   1      32.398  33.925  29.159  1.00  0.00     0.028 H 
ATOM     48  H   UNL A   1      33.411  34.516  27.803  1.00  0.00     0.028 H 
BRANCH  46  49
ATOM     49  C   UNL A   1      33.423  35.746  29.493  1.00  0.00     0.018 C 
ATOM     50  H   UNL A   1      33.161  36.478  28.757  1.00  0.00     0.049 H 
ATOM     51  H   UNL A   1      34.427  35.871  29.841  1.00  0.00     0.049 H 
BRANCH  49  52
ATOM     52  N   UNL A   1      32.542  35.908  30.639  1.00  0.00    -0.352 N 
ATOM     53  C   UNL A   1      32.687  35.491  31.939  1.00  0.00     0.251 C 
ATOM     54  H   UNL A   1      31.707  36.396  30.453  1.00  0.00     0.163 HD
ATOM     55  O   UNL A   1      31.753  35.616  32.728  1.00  0.00    -0.269 OA
BRANCH  53  56
ATOM     56  C   UNL A   1      33.945  34.860  32.401  1.00  0.00     0.039 A 
ATOM     57  C   UNL A   1      33.885  33.574  32.949  1.00  0.00    -0.049 A 
ATOM     58  C   UNL A   1      35.172  35.526  32.330  1.00  0.00    -0.049 A 
ATOM     59  C   UNL A   1      35.057  32.931  33.355  1.00  0.00    -0.053 A 
ATOM     60  H   UNL A   1      32.974  33.100  33.052  1.00  0.00     0.063 H 
ATOM     61  C   UNL A   1      36.349  34.860  32.674  1.00  0.00    -0.053 A 
ATOM     62  H   UNL A   1      35.207  36.510  32.023  1.00  0.00     0.063 H 
ATOM     63  C   UNL A   1      36.304  33.554  33.185  1.00  0.00    -0.014 A 
ATOM     64  H   UNL A   1      35.006  31.994  33.782  1.00  0.00     0.063 H 
ATOM     65  H   UNL A   1      37.259  35.331  32.552  1.00  0.00     0.063 H 
BRANCH  63  66
ATOM     66  C   UNL A   1      37.563  32.834  33.509  1.00  0.00     0.031 A 
ATOM     67  C   UNL A   1      38.315  33.127  34.776  1.00  0.00     0.074 A 
ATOM     68  C   UNL A   1      38.057  31.944  32.627  1.00  0.00     0.049 A 
ATOM     69  N   UNL A   1      39.431  32.598  35.217  1.00  0.00    -0.248 NA
ATOM     70  C   UNL A   1      37.759  34.167  35.651  1.00  0.00    -0.034 C 
ATOM     71  C   UNL A   1      37.454  31.613  31.335  1.00  0.00    -0.036 A 
ATOM     72  N   UNL A   1      39.181  31.157  32.681  1.00  0.00    -0.354 N 
ATOM     73  C   UNL A   1      39.715  33.249  36.409  1.00  0.00     0.074 A 
ATOM     74  C   UNL A   1      38.680  34.243  36.602  1.00  0.00    -0.034 C 
ATOM     75  H   UNL A   1      36.880  34.700  35.553  1.00  0.00     0.065 H 
ATOM     76  C   UNL A   1      38.195  30.668  30.734  1.00  0.00    -0.036 A 
ATOM     77  H   UNL A   1      36.597  32.038  30.947  1.00  0.00     0.065 H 
ATOM     78  C   UNL A   1      39.338  30.348  31.583  1.00  0.00     0.049 A 
ATOM     79  H   UNL A   1      39.813  31.172  33.435  1.00  0.00     0.167 HD
ATOM     80  C   UNL A   1      40.733  33.024  37.274  1.00  0.00     0.037 A 
ATOM     81  H   UNL A   1      38.662  34.923  37.377  1.00  0.00     0.065 H 
ATOM     82  H   UNL A   1      37.989  30.239  29.819  1.00  0.00     0.065 H 
ATOM     83  C   UNL A   1      40.293  29.443  31.295  1.00  0.00     0.037 A 
ATOM     84  C   UNL A   1      41.746  32.016  37.098  1.00  0.00     0.049 A 
ATOM     85  C   UNL A   1      41.404  29.204  32.279  1.00  0.00     0.074 A 
ATOM     86  C   UNL A   1      42.764  31.654  37.962  1.00  0.00    -0.036 A 
ATOM     87  N   UNL A   1      41.871  31.213  35.973  1.00  0.00    -0.354 N 
ATOM     88  N   UNL A   1      41.611  29.763  33.445  1.00  0.00    -0.248 NA
ATOM     89  C   UNL A   1      42.410  28.200  31.905  1.00  0.00    -0.034 C 
ATOM     90  C   UNL A   1      43.533  30.661  37.342  1.00  0.00    -0.036 A 
ATOM     91  H   UNL A   1      42.929  32.047  38.901  1.00  0.00     0.065 H 
ATOM     92  C   UNL A   1      42.968  30.374  36.110  1.00  0.00     0.049 A 
ATOM     93  H   UNL A   1      41.270  31.234  35.194  1.00  0.00     0.167 HD
ATOM     94  C   UNL A   1      42.757  29.169  33.955  1.00  0.00     0.074 A 
ATOM     95  C   UNL A   1      43.190  28.191  32.977  1.00  0.00    -0.034 C 
ATOM     96  H   UNL A   1      42.489  27.648  31.036  1.00  0.00     0.065 H 
ATOM     97  H   UNL A   1      44.377  30.218  37.737  1.00  0.00     0.065 H 
ATOM     98  C   UNL A   1      43.394  29.412  35.126  1.00  0.00     0.037 A 
ATOM     99  H   UNL A   1      44.001  27.566  33.100  1.00  0.00     0.065 H 
BRANCH  80 100
ATOM    100  C   UNL A   1      40.802  33.891  38.499  1.00  0.00     0.064 A 
ATOM    101  C   UNL A   1      41.568  35.066  38.525  1.00  0.00     0.173 A 
ATOM    102  C   UNL A   1      40.070  33.558  39.649  1.00  0.00     0.173 A 
ATOM    103  F   UNL A   1      42.294  35.423  37.455  1.00  0.00    -0.203 F 
ATOM    104  C   UNL A   1      41.625  35.859  39.669  1.00  0.00     0.198 A 
ATOM    105  C   UNL A   1      40.107  34.368  40.781  1.00  0.00     0.198 A 
ATOM    106  F   UNL A   1      39.316  32.450  39.673  1.00  0.00    -0.203 F 
ATOM    107  F   UNL A   1      42.403  36.950  39.688  1.00  0.00    -0.200 F 
ATOM    108  C   UNL A   1      40.890  35.512  40.793  1.00  0.00     0.200 A 
ATOM    109  F   UNL A   1      39.388  34.038  41.862  1.00  0.00    -0.200 F 
ATOM    110  F   UNL A   1      40.944  36.278  41.892  1.00  0.00    -0.200 F 
ENDBRANCH  80 100
BRANCH  83 111
ATOM    111  C   UNL A   1      40.210  28.661  30.036  1.00  0.00     0.064 A 
ATOM    112  C   UNL A   1      40.797  29.143  28.858  1.00  0.00     0.173 A 
ATOM    113  C   UNL A   1      39.556  27.423  29.985  1.00  0.00     0.173 A 
ATOM    114  F   UNL A   1      41.414  30.333  28.855  1.00  0.00    -0.203 F 
ATOM    115  C   UNL A   1      40.723  28.419  27.670  1.00  0.00     0.198 A 
ATOM    116  C   UNL A   1      39.502  26.689  28.802  1.00  0.00     0.198 A 
ATOM    117  F   UNL A   1      38.981  26.920  31.087  1.00  0.00    -0.203 F 
ATOM    118  F   UNL A   1      41.262  28.917  26.549  1.00  0.00    -0.200 F 
ATOM    119  C   UNL A   1      40.081  27.190  27.645  1.00  0.00     0.200 A 
ATOM    120  F   UNL A   1      38.891  25.496  28.783  1.00  0.00    -0.200 F 
ATOM    121  F   UNL A   1      40.015  26.490  26.504  1.00  0.00    -0.200 F 
ENDBRANCH  83 111
BRANCH  98 122
ATOM    122  C   UNL A   1      44.618  28.596  35.418  1.00  0.00     0.064 A 
ATOM    123  C   UNL A   1      44.536  27.363  36.084  1.00  0.00     0.173 A 
ATOM    124  C   UNL A   1      45.886  29.043  35.018  1.00  0.00     0.173 A 
ATOM    125  F   UNL A   1      43.348  26.901  36.502  1.00  0.00    -0.203 F 
ATOM    126  C   UNL A   1      45.681  26.623  36.362  1.00  0.00     0.198 A 
ATOM    127  C   UNL A   1      47.026  28.288  35.274  1.00  0.00     0.198 A 
ATOM    128  F   UNL A   1      46.018  30.213  34.375  1.00  0.00    -0.203 F 
ATOM    129  F   UNL A   1      45.584  25.474  37.045  1.00  0.00    -0.200 F 
ATOM    130  C   UNL A   1      46.924  27.082  35.953  1.00  0.00     0.200 A 
ATOM    131  F   UNL A   1      48.226  28.728  34.870  1.00  0.00    -0.200 F 
ATOM    132  F   UNL A   1      48.026  26.369  36.224  1.00  0.00    -0.200 F 
ENDBRANCH  98 122
ENDBRANCH  63  66
ENDBRANCH  53  56
ENDBRANCH  49  52
ENDBRANCH  46  49
ENDBRANCH  43  46
ENDBRANCH  40  43
ENDBRANCH  37  40
ENDBRANCH   1  37
TORSDOF 19
ENDMDL
MODEL 2
REMARK VINA RESULT:     -11.0      6.249     10.758
REMARK SMILES O=C(CNC(=O)CNC(=O)OCc1ccccc1)NCCCCCCNC(=O)c1ccc(-c2c3nc(c(-c4c(F)c(F)c(F)c(F)c4F)c4ccc([nH]4)c(-c4c(F)c(F)c(F)c(F)c4F)c4nc(c(-c5c(F)c(F)c(F)c(F)c5F)c5ccc2[nH]5)C=C4)C=C3)cc1
REMARK SMILES IDX 20 1 19 4 1 5 2 6 3 8 4 11 5 12 6 14 7 15 8 18 9 19 10 21
REMARK SMILES IDX 11 22 12 23 13 26 14 27 18 28 15 29 17 31 16 33 21 37 22 40
REMARK SMILES IDX 23 43 24 46 25 49 26 52 27 53 28 55 29 56 30 57 91 58 31 59
REMARK SMILES IDX 90 61 32 63 33 66 34 67 84 68 35 69 89 70 83 71 85 72 36 73
REMARK SMILES IDX 88 74 82 76 81 78 37 80 69 83 49 84 68 85 50 86 53 87 67 88
REMARK SMILES IDX 86 89 51 90 52 92 66 94 87 95 54 98 38 100 39 101 47 102
REMARK SMILES IDX 40 103 41 104 45 105 48 106 42 107 43 108 46 109 44 110
REMARK SMILES IDX 70 111 71 112 79 113 72 114 73 115 77 116 80 117 74 118
REMARK SMILES IDX 75 119 78 120 76 121 55 122 56 123 64 124 57 125 58 126
REMARK SMILES IDX 62 127 65 128 59 129 60 130 63 131 61 132
REMARK H PARENT 20 2 20 3 19 7 3 9 3 10 4 13 7 16 7 17 8 20 12 24 12 25 14 30
REMARK H PARENT 18 32 15 34 17 35 16 36 21 38 21 39 22 41 22 42 23 44 23 45
REMARK H PARENT 24 47 24 48 25 50 25 51 26 54 30 60 91 62 31 64 90 65 89 75
REMARK H PARENT 83 77 85 79 88 81 82 82 50 91 53 93 86 96 51 97 87 99
REMARK Flexibility Score: inf
ROOT
ATOM      1  C   UNL A   1      35.411  23.711  24.085  1.00  0.00     0.017 C 
ATOM      2  H   UNL A   1      35.015  23.403  25.030  1.00  0.00     0.049 H 
ATOM      3  H   UNL A   1      35.935  24.641  24.150  1.00  0.00     0.049 H 
ENDROOT
BRANCH   1   4
ATOM      4  N   UNL A   1      34.307  23.904  23.164  1.00  0.00    -0.355 N 
ATOM      5  O   UNL A   1      33.715  25.986  23.926  1.00  0.00    -0.273 OA
ATOM      6  C   UNL A   1      33.561  25.061  23.133  1.00  0.00     0.239 C 
ATOM      7  H   UNL A   1      34.083  23.179  22.537  1.00  0.00     0.163 HD
BRANCH   6   8
ATOM      8  C   UNL A   1      32.443  25.102  22.078  1.00  0.00     0.097 C 
ATOM      9  H   UNL A   1      31.633  24.498  22.429  1.00  0.00     0.059 H 
ATOM     10  H   UNL A   1      32.876  24.741  21.168  1.00  0.00     0.059 H 
BRANCH   8  11
ATOM     11  N   UNL A   1      31.925  26.434  21.786  1.00  0.00    -0.346 N 
ATOM     12  C   UNL A   1      30.944  27.139  22.422  1.00  0.00     0.239 C 
ATOM     13  H   UNL A   1      32.343  26.890  21.019  1.00  0.00     0.164 HD
ATOM     14  O   UNL A   1      30.664  28.260  21.995  1.00  0.00    -0.273 OA
BRANCH  12  15
ATOM     15  C   UNL A   1      30.166  26.504  23.576  1.00  0.00     0.100 C 
ATOM     16  H   UNL A   1      30.302  25.444  23.571  1.00  0.00     0.060 H 
ATOM     17  H   UNL A   1      29.119  26.703  23.483  1.00  0.00     0.060 H 
BRANCH  15  18
ATOM     18  N   UNL A   1      30.691  27.068  24.802  1.00  0.00    -0.312 N 
ATOM     19  C   UNL A   1      30.908  26.410  25.969  1.00  0.00     0.407 C 
ATOM     20  H   UNL A   1      30.913  28.026  24.788  1.00  0.00     0.167 HD
ATOM     21  O   UNL A   1      31.011  27.038  27.015  1.00  0.00    -0.225 OA
BRANCH  19  22
ATOM     22  O   UNL A   1      30.963  25.065  25.845  1.00  0.00    -0.445 OA
BRANCH  22  23
ATOM     23  C   UNL A   1      31.867  24.403  26.747  1.00  0.00     0.118 C 
ATOM     24  H   UNL A   1      31.380  24.296  27.694  1.00  0.00     0.076 H 
ATOM     25  H   UNL A   1      32.748  25.007  26.809  1.00  0.00     0.076 H 
BRANCH  23  26
ATOM     26  C   UNL A   1      32.301  23.033  26.274  1.00  0.00    -0.011 A 
ATOM     27  C   UNL A   1      33.292  22.316  26.958  1.00  0.00    -0.056 A 
ATOM     28  C   UNL A   1      31.753  22.465  25.114  1.00  0.00    -0.056 A 
ATOM     29  C   UNL A   1      33.720  21.070  26.489  1.00  0.00    -0.062 A 
ATOM     30  H   UNL A   1      33.709  22.710  27.816  1.00  0.00     0.063 H 
ATOM     31  C   UNL A   1      32.164  21.213  24.657  1.00  0.00    -0.062 A 
ATOM     32  H   UNL A   1      31.031  22.983  24.588  1.00  0.00     0.063 H 
ATOM     33  C   UNL A   1      33.152  20.516  25.342  1.00  0.00    -0.062 A 
ATOM     34  H   UNL A   1      34.460  20.557  26.994  1.00  0.00     0.062 H 
ATOM     35  H   UNL A   1      31.736  20.804  23.812  1.00  0.00     0.062 H 
ATOM     36  H   UNL A   1      33.466  19.593  25.003  1.00  0.00     0.062 H 
ENDBRANCH  23  26
ENDBRANCH  22  23
ENDBRANCH  19  22
ENDBRANCH  15  18
ENDBRANCH  12  15
ENDBRANCH   8  11
ENDBRANCH   6   8
ENDBRANCH   1   4
BRANCH   1  37
ATOM     37  C   UNL A   1      36.418  22.659  23.615  1.00  0.00    -0.036 C 
ATOM     38  H   UNL A   1      37.142  23.147  22.996  1.00  0.00     0.028 H 
ATOM     39  H   UNL A   1      35.850  21.913  23.099  1.00  0.00     0.028 H 
BRANCH  37  40
ATOM     40  C   UNL A   1      37.165  21.928  24.736  1.00  0.00    -0.052 C 
ATOM     41  H   UNL A   1      36.942  22.427  25.656  1.00  0.00     0.027 H 
ATOM     42  H   UNL A   1      38.198  21.957  24.457  1.00  0.00     0.027 H 
BRANCH  40  43
ATOM     43  C   UNL A   1      36.835  20.445  24.919  1.00  0.00    -0.052 C 
ATOM     44  H   UNL A   1      36.230  20.140  24.091  1.00  0.00     0.027 H 
ATOM     45  H   UNL A   1      36.346  20.373  25.868  1.00  0.00     0.027 H 
BRANCH  43  46
ATOM     46  C   UNL A   1      38.034  19.501  24.998  1.00  0.00    -0.036 C 
ATOM     47  H   UNL A   1      38.348  19.284  23.999  1.00  0.00     0.028 H 
ATOM     48  H   UNL A   1      37.695  18.643  25.541  1.00  0.00     0.028 H 
BRANCH  46  49
ATOM     49  C   UNL A   1      39.243  20.030  25.765  1.00  0.00     0.018 C 
ATOM     50  H   UNL A   1      38.925  20.319  26.746  1.00  0.00     0.049 H 
ATOM     51  H   UNL A   1      39.638  20.855  25.212  1.00  0.00     0.049 H 
BRANCH  49  52
ATOM     52  N   UNL A   1      40.307  19.046  25.896  1.00  0.00    -0.352 N 
ATOM     53  C   UNL A   1      41.651  19.213  26.121  1.00  0.00     0.251 C 
ATOM     54  H   UNL A   1      40.016  18.109  25.810  1.00  0.00     0.163 HD
ATOM     55  O   UNL A   1      42.404  18.244  26.064  1.00  0.00    -0.269 OA
BRANCH  53  56
ATOM     56  C   UNL A   1      42.215  20.554  26.403  1.00  0.00     0.039 A 
ATOM     57  C   UNL A   1      42.678  21.321  25.328  1.00  0.00    -0.049 A 
ATOM     58  C   UNL A   1      42.321  21.051  27.704  1.00  0.00    -0.049 A 
ATOM     59  C   UNL A   1      43.177  22.607  25.550  1.00  0.00    -0.053 A 
ATOM     60  H   UNL A   1      42.651  20.937  24.370  1.00  0.00     0.063 H 
ATOM     61  C   UNL A   1      42.757  22.359  27.920  1.00  0.00    -0.053 A 
ATOM     62  H   UNL A   1      42.076  20.449  28.507  1.00  0.00     0.063 H 
ATOM     63  C   UNL A   1      43.185  23.151  26.845  1.00  0.00    -0.014 A 
ATOM     64  H   UNL A   1      43.541  23.160  24.759  1.00  0.00     0.063 H 
ATOM     65  H   UNL A   1      42.765  22.745  28.876  1.00  0.00     0.063 H 
BRANCH  63  66
ATOM     66  C   UNL A   1      43.607  24.558  27.074  1.00  0.00     0.031 A 
ATOM     67  C   UNL A   1      42.631  25.583  27.579  1.00  0.00     0.074 A 
ATOM     68  C   UNL A   1      44.867  24.924  26.774  1.00  0.00     0.049 A 
ATOM     69  N   UNL A   1      42.824  26.854  27.832  1.00  0.00    -0.248 NA
ATOM     70  C   UNL A   1      41.252  25.129  27.807  1.00  0.00    -0.034 C 
ATOM     71  C   UNL A   1      45.894  24.039  26.221  1.00  0.00    -0.036 A 
ATOM     72  N   UNL A   1      45.501  26.137  26.890  1.00  0.00    -0.354 N 
ATOM     73  C   UNL A   1      41.593  27.353  28.234  1.00  0.00     0.074 A 
ATOM     74  C   UNL A   1      40.648  26.259  28.150  1.00  0.00    -0.034 C 
ATOM     75  H   UNL A   1      40.857  24.179  27.724  1.00  0.00     0.065 H 
ATOM     76  C   UNL A   1      47.037  24.729  26.077  1.00  0.00    -0.036 A 
ATOM     77  H   UNL A   1      45.761  23.045  25.980  1.00  0.00     0.065 H 
ATOM     78  C   UNL A   1      46.817  26.109  26.499  1.00  0.00     0.049 A 
ATOM     79  H   UNL A   1      45.054  26.949  27.222  1.00  0.00     0.167 HD
ATOM     80  C   UNL A   1      41.282  28.603  28.656  1.00  0.00     0.037 A 
ATOM     81  H   UNL A   1      39.636  26.347  28.330  1.00  0.00     0.065 H 
ATOM     82  H   UNL A   1      47.927  24.345  25.723  1.00  0.00     0.065 H 
ATOM     83  C   UNL A   1      47.745  27.084  26.490  1.00  0.00     0.037 A 
ATOM     84  C   UNL A   1      42.227  29.683  28.768  1.00  0.00     0.049 A 
ATOM     85  C   UNL A   1      47.377  28.458  26.975  1.00  0.00     0.074 A 
ATOM     86  C   UNL A   1      42.027  30.958  29.269  1.00  0.00    -0.036 A 
ATOM     87  N   UNL A   1      43.553  29.617  28.366  1.00  0.00    -0.354 N 
ATOM     88  N   UNL A   1      46.232  28.893  27.437  1.00  0.00    -0.248 NA
ATOM     89  C   UNL A   1      48.439  29.474  26.943  1.00  0.00    -0.034 C 
ATOM     90  C   UNL A   1      43.220  31.677  29.129  1.00  0.00    -0.036 A 
ATOM     91  H   UNL A   1      41.149  31.317  29.675  1.00  0.00     0.065 H 
ATOM     92  C   UNL A   1      44.176  30.838  28.581  1.00  0.00     0.049 A 
ATOM     93  H   UNL A   1      43.988  28.821  27.984  1.00  0.00     0.167 HD
ATOM     94  C   UNL A   1      46.436  30.226  27.769  1.00  0.00     0.074 A 
ATOM     95  C   UNL A   1      47.823  30.522  27.472  1.00  0.00    -0.034 C 
ATOM     96  H   UNL A   1      49.409  29.394  26.597  1.00  0.00     0.065 H 
ATOM     97  H   UNL A   1      43.363  32.665  29.391  1.00  0.00     0.065 H 
ATOM     98  C   UNL A   1      45.554  31.122  28.273  1.00  0.00     0.037 A 
ATOM     99  H   UNL A   1      48.274  31.432  27.650  1.00  0.00     0.065 H 
BRANCH  80 100
ATOM    100  C   UNL A   1      39.852  28.870  29.029  1.00  0.00     0.064 A 
ATOM    101  C   UNL A   1      38.917  29.314  28.082  1.00  0.00     0.173 A 
ATOM    102  C   UNL A   1      39.406  28.651  30.341  1.00  0.00     0.173 A 
ATOM    103  F   UNL A   1      39.295  29.548  26.817  1.00  0.00    -0.203 F 
ATOM    104  C   UNL A   1      37.594  29.561  28.443  1.00  0.00     0.198 A 
ATOM    105  C   UNL A   1      38.077  28.872  30.692  1.00  0.00     0.198 A 
ATOM    106  F   UNL A   1      40.258  28.219  31.282  1.00  0.00    -0.203 F 
ATOM    107  F   UNL A   1      36.730  30.033  27.534  1.00  0.00    -0.200 F 
ATOM    108  C   UNL A   1      37.174  29.334  29.746  1.00  0.00     0.200 A 
ATOM    109  F   UNL A   1      37.670  28.641  31.947  1.00  0.00    -0.200 F 
ATOM    110  F   UNL A   1      35.901  29.569  30.090  1.00  0.00    -0.200 F 
ENDBRANCH  80 100
BRANCH  83 111
ATOM    111  C   UNL A   1      49.128  26.778  26.046  1.00  0.00     0.064 A 
ATOM    112  C   UNL A   1      49.514  26.989  24.715  1.00  0.00     0.173 A 
ATOM    113  C   UNL A   1      50.090  26.281  26.936  1.00  0.00     0.173 A 
ATOM    114  F   UNL A   1      48.620  27.443  23.823  1.00  0.00    -0.203 F 
ATOM    115  C   UNL A   1      50.808  26.703  24.288  1.00  0.00     0.198 A 
ATOM    116  C   UNL A   1      51.390  26.017  26.513  1.00  0.00     0.198 A 
ATOM    117  F   UNL A   1      49.769  26.066  28.220  1.00  0.00    -0.203 F 
ATOM    118  F   UNL A   1      51.142  26.881  23.002  1.00  0.00    -0.200 F 
ATOM    119  C   UNL A   1      51.747  26.223  25.189  1.00  0.00     0.200 A 
ATOM    120  F   UNL A   1      52.299  25.565  27.388  1.00  0.00    -0.200 F 
ATOM    121  F   UNL A   1      52.994  25.954  24.779  1.00  0.00    -0.200 F 
ENDBRANCH  83 111
BRANCH  98 122
ATOM    122  C   UNL A   1      46.069  32.504  28.547  1.00  0.00     0.064 A 
ATOM    123  C   UNL A   1      46.646  32.841  29.781  1.00  0.00     0.173 A 
ATOM    124  C   UNL A   1      45.999  33.500  27.561  1.00  0.00     0.173 A 
ATOM    125  F   UNL A   1      46.720  31.928  30.761  1.00  0.00    -0.203 F 
ATOM    126  C   UNL A   1      47.106  34.131  30.027  1.00  0.00     0.198 A 
ATOM    127  C   UNL A   1      46.484  34.782  27.802  1.00  0.00     0.198 A 
ATOM    128  F   UNL A   1      45.460  33.229  26.363  1.00  0.00    -0.203 F 
ATOM    129  F   UNL A   1      47.605  34.444  31.231  1.00  0.00    -0.200 F 
ATOM    130  C   UNL A   1      47.030  35.099  29.037  1.00  0.00     0.200 A 
ATOM    131  F   UNL A   1      46.419  35.714  26.841  1.00  0.00    -0.200 F 
ATOM    132  F   UNL A   1      47.472  36.341  29.277  1.00  0.00    -0.200 F 
ENDBRANCH  98 122
ENDBRANCH  63  66
ENDBRANCH  53  56
ENDBRANCH  49  52
ENDBRANCH  46  49
ENDBRANCH  43  46
ENDBRANCH  40  43
ENDBRANCH  37  40
ENDBRANCH   1  37
TORSDOF 19
ENDMDL
MODEL 3
REMARK VINA RESULT:     -10.9      0.589      1.727
REMARK SMILES O=C(CNC(=O)CNC(=O)OCc1ccccc1)NCCCCCCNC(=O)c1ccc(-c2c3nc(c(-c4c(F)c(F)c(F)c(F)c4F)c4ccc([nH]4)c(-c4c(F)c(F)c(F)c(F)c4F)c4nc(c(-c5c(F)c(F)c(F)c(F)c5F)c5ccc2[nH]5)C=C4)C=C3)cc1
REMARK SMILES IDX 20 1 19 4 1 5 2 6 3 8 4 11 5 12 6 14 7 15 8 18 9 19 10 21
REMARK SMILES IDX 11 22 12 23 13 26 14 27 18 28 15 29 17 31 16 33 21 37 22 40
REMARK SMILES IDX 23 43 24 46 25 49 26 52 27 53 28 55 29 56 30 57 91 58 31 59
REMARK SMILES IDX 90 61 32 63 33 66 34 67 84 68 35 69 89 70 83 71 85 72 36 73
REMARK SMILES IDX 88 74 82 76 81 78 37 80 69 83 49 84 68 85 50 86 53 87 67 88
REMARK SMILES IDX 86 89 51 90 52 92 66 94 87 95 54 98 38 100 39 101 47 102
REMARK SMILES IDX 40 103 41 104 45 105 48 106 42 107 43 108 46 109 44 110
REMARK SMILES IDX 70 111 71 112 79 113 72 114 73 115 77 116 80 117 74 118
REMARK SMILES IDX 75 119 78 120 76 121 55 122 56 123 64 124 57 125 58 126
REMARK SMILES IDX 62 127 65 128 59 129 60 130 63 131 61 132
REMARK H PARENT 20 2 20 3 19 7 3 9 3 10 4 13 7 16 7 17 8 20 12 24 12 25 14 30
REMARK H PARENT 18 32 15 34 17 35 16 36 21 38 21 39 22 41 22 42 23 44 23 45
REMARK H PARENT 24 47 24 48 25 50 25 51 26 54 30 60 91 62 31 64 90 65 89 75
REMARK H PARENT 83 77 85 79 88 81 82 82 50 91 53 93 86 96 51 97 87 99
REMARK Flexibility Score: inf
ROOT
ATOM      1  C   UNL A   1      33.695  30.929  27.523  1.00  0.00     0.017 C 
ATOM      2  H   UNL A   1      33.276  30.365  28.331  1.00  0.00     0.049 H 
ATOM      3  H   UNL A   1      33.151  31.830  27.335  1.00  0.00     0.049 H 
ENDROOT
BRANCH   1   4
ATOM      4  N   UNL A   1      33.624  30.126  26.316  1.00  0.00    -0.355 N 
ATOM      5  O   UNL A   1      31.421  30.572  25.855  1.00  0.00    -0.273 OA
ATOM      6  C   UNL A   1      32.485  30.043  25.546  1.00  0.00     0.239 C 
ATOM      7  H   UNL A   1      34.422  29.622  26.036  1.00  0.00     0.163 HD
BRANCH   6   8
ATOM      8  C   UNL A   1      32.596  29.165  24.289  1.00  0.00     0.097 C 
ATOM      9  H   UNL A   1      32.501  28.142  24.590  1.00  0.00     0.059 H 
ATOM     10  H   UNL A   1      33.545  29.389  23.849  1.00  0.00     0.059 H 
BRANCH   8  11
ATOM     11  N   UNL A   1      31.594  29.433  23.264  1.00  0.00    -0.346 N 
ATOM     12  C   UNL A   1      30.808  28.556  22.574  1.00  0.00     0.239 C 
ATOM     13  H   UNL A   1      31.467  30.383  23.037  1.00  0.00     0.164 HD
ATOM     14  O   UNL A   1      30.023  29.011  21.740  1.00  0.00    -0.273 OA
BRANCH  12  15
ATOM     15  C   UNL A   1      30.970  27.049  22.781  1.00  0.00     0.100 C 
ATOM     16  H   UNL A   1      30.021  26.602  22.986  1.00  0.00     0.060 H 
ATOM     17  H   UNL A   1      31.616  26.846  23.609  1.00  0.00     0.060 H 
BRANCH  15  18
ATOM     18  N   UNL A   1      31.520  26.509  21.554  1.00  0.00    -0.312 N 
ATOM     19  C   UNL A   1      32.591  25.685  21.439  1.00  0.00     0.407 C 
ATOM     20  H   UNL A   1      31.070  26.767  20.718  1.00  0.00     0.167 HD
ATOM     21  O   UNL A   1      33.171  25.581  20.366  1.00  0.00    -0.225 OA
BRANCH  19  22
ATOM     22  O   UNL A   1      32.933  25.058  22.586  1.00  0.00    -0.445 OA
BRANCH  22  23
ATOM     23  C   UNL A   1      32.492  23.692  22.694  1.00  0.00     0.118 C 
ATOM     24  H   UNL A   1      32.357  23.303  21.707  1.00  0.00     0.076 H 
ATOM     25  H   UNL A   1      31.582  23.700  23.256  1.00  0.00     0.076 H 
BRANCH  23  26
ATOM     26  C   UNL A   1      33.463  22.798  23.433  1.00  0.00    -0.011 A 
ATOM     27  C   UNL A   1      34.804  23.173  23.598  1.00  0.00    -0.056 A 
ATOM     28  C   UNL A   1      33.056  21.552  23.934  1.00  0.00    -0.056 A 
ATOM     29  C   UNL A   1      35.706  22.320  24.242  1.00  0.00    -0.062 A 
ATOM     30  H   UNL A   1      35.128  24.086  23.241  1.00  0.00     0.063 H 
ATOM     31  C   UNL A   1      33.950  20.711  24.596  1.00  0.00    -0.062 A 
ATOM     32  H   UNL A   1      32.076  21.252  23.811  1.00  0.00     0.063 H 
ATOM     33  C   UNL A   1      35.278  21.093  24.746  1.00  0.00    -0.062 A 
ATOM     34  H   UNL A   1      36.694  22.602  24.346  1.00  0.00     0.062 H 
ATOM     35  H   UNL A   1      33.628  19.806  24.973  1.00  0.00     0.062 H 
ATOM     36  H   UNL A   1      35.946  20.470  25.227  1.00  0.00     0.062 H 
ENDBRANCH  23  26
ENDBRANCH  22  23
ENDBRANCH  19  22
ENDBRANCH  15  18
ENDBRANCH  12  15
ENDBRANCH   8  11
ENDBRANCH   6   8
ENDBRANCH   1   4
BRANCH   1  37
ATOM     37  C   UNL A   1      35.121  31.332  27.902  1.00  0.00    -0.036 C 
ATOM     38  H   UNL A   1      35.781  30.969  27.142  1.00  0.00     0.028 H 
ATOM     39  H   UNL A   1      35.305  30.906  28.866  1.00  0.00     0.028 H 
BRANCH  37  40
ATOM     40  C   UNL A   1      35.351  32.841  28.051  1.00  0.00    -0.052 C 
ATOM     41  H   UNL A   1      35.011  33.313  27.153  1.00  0.00     0.027 H 
ATOM     42  H   UNL A   1      36.399  32.952  28.239  1.00  0.00     0.027 H 
BRANCH  40  43
ATOM     43  C   UNL A   1      34.652  33.522  29.228  1.00  0.00    -0.052 C 
ATOM     44  H   UNL A   1      35.366  34.153  29.714  1.00  0.00     0.027 H 
ATOM     45  H   UNL A   1      34.280  32.729  29.843  1.00  0.00     0.027 H 
BRANCH  43  46
ATOM     46  C   UNL A   1      33.435  34.377  28.876  1.00  0.00    -0.036 C 
ATOM     47  H   UNL A   1      32.562  33.861  29.216  1.00  0.00     0.028 H 
ATOM     48  H   UNL A   1      33.472  34.515  27.816  1.00  0.00     0.028 H 
BRANCH  46  49
ATOM     49  C   UNL A   1      33.416  35.780  29.479  1.00  0.00     0.018 C 
ATOM     50  H   UNL A   1      33.105  36.472  28.724  1.00  0.00     0.049 H 
ATOM     51  H   UNL A   1      34.402  35.990  29.834  1.00  0.00     0.049 H 
BRANCH  49  52
ATOM     52  N   UNL A   1      32.512  35.898  30.613  1.00  0.00    -0.352 N 
ATOM     53  C   UNL A   1      32.641  35.451  31.905  1.00  0.00     0.251 C 
ATOM     54  H   UNL A   1      31.672  36.377  30.424  1.00  0.00     0.163 HD
ATOM     55  O   UNL A   1      31.691  35.541  32.679  1.00  0.00    -0.269 OA
BRANCH  53  56
ATOM     56  C   UNL A   1      33.902  34.831  32.374  1.00  0.00     0.039 A 
ATOM     57  C   UNL A   1      33.856  33.527  32.878  1.00  0.00    -0.049 A 
ATOM     58  C   UNL A   1      35.116  35.522  32.351  1.00  0.00    -0.049 A 
ATOM     59  C   UNL A   1      35.032  32.894  33.289  1.00  0.00    -0.053 A 
ATOM     60  H   UNL A   1      32.953  33.031  32.946  1.00  0.00     0.063 H 
ATOM     61  C   UNL A   1      36.299  34.869  32.699  1.00  0.00    -0.053 A 
ATOM     62  H   UNL A   1      35.138  36.517  32.077  1.00  0.00     0.063 H 
ATOM     63  C   UNL A   1      36.269  33.546  33.167  1.00  0.00    -0.014 A 
ATOM     64  H   UNL A   1      34.991  31.942  33.684  1.00  0.00     0.063 H 
ATOM     65  H   UNL A   1      37.201  35.361  32.612  1.00  0.00     0.063 H 
BRANCH  63  66
ATOM     66  C   UNL A   1      37.535  32.841  33.495  1.00  0.00     0.031 A 
ATOM     67  C   UNL A   1      38.275  33.135  34.769  1.00  0.00     0.074 A 
ATOM     68  C   UNL A   1      38.048  31.964  32.610  1.00  0.00     0.049 A 
ATOM     69  N   UNL A   1      39.394  32.618  35.214  1.00  0.00    -0.248 NA
ATOM     70  C   UNL A   1      37.698  34.162  35.648  1.00  0.00    -0.034 C 
ATOM     71  C   UNL A   1      37.459  31.634  31.311  1.00  0.00    -0.036 A 
ATOM     72  N   UNL A   1      39.182  31.192  32.667  1.00  0.00    -0.354 N 
ATOM     73  C   UNL A   1      39.661  33.264  36.413  1.00  0.00     0.074 A 
ATOM     74  C   UNL A   1      38.611  34.243  36.606  1.00  0.00    -0.034 C 
ATOM     75  H   UNL A   1      36.813  34.683  35.547  1.00  0.00     0.065 H 
ATOM     76  C   UNL A   1      38.217  30.704  30.709  1.00  0.00    -0.036 A 
ATOM     77  H   UNL A   1      36.600  32.050  30.921  1.00  0.00     0.065 H 
ATOM     78  C   UNL A   1      39.358  30.393  31.564  1.00  0.00     0.049 A 
ATOM     79  H   UNL A   1      39.809  31.210  33.426  1.00  0.00     0.167 HD
ATOM     80  C   UNL A   1      40.676  33.047  37.284  1.00  0.00     0.037 A 
ATOM     81  H   UNL A   1      38.579  34.917  37.386  1.00  0.00     0.065 H 
ATOM     82  H   UNL A   1      38.024  30.278  29.790  1.00  0.00     0.065 H 
ATOM     83  C   UNL A   1      40.327  29.504  31.277  1.00  0.00     0.037 A 
ATOM     84  C   UNL A   1      41.703  32.054  37.108  1.00  0.00     0.049 A 
ATOM     85  C   UNL A   1      41.434  29.272  32.267  1.00  0.00     0.074 A 
ATOM     86  C   UNL A   1      42.720  31.699  37.977  1.00  0.00    -0.036 A 
ATOM     87  N   UNL A   1      41.848  31.261  35.979  1.00  0.00    -0.354 N 
ATOM     88  N   UNL A   1      41.625  29.826  33.438  1.00  0.00    -0.248 NA
ATOM     89  C   UNL A   1      42.457  28.284  31.894  1.00  0.00    -0.034 C 
ATOM     90  C   UNL A   1      43.507  30.722  37.356  1.00  0.00    -0.036 A 
ATOM     91  H   UNL A   1      42.873  32.088  38.920  1.00  0.00     0.065 H 
ATOM     92  C   UNL A   1      42.955  30.436  36.118  1.00  0.00     0.049 A 
ATOM     93  H   UNL A   1      41.252  31.279  35.195  1.00  0.00     0.167 HD
ATOM     94  C   UNL A   1      42.776  29.243  33.953  1.00  0.00     0.074 A 
ATOM     95  C   UNL A   1      43.229  28.278  32.971  1.00  0.00    -0.034 C 
ATOM     96  H   UNL A   1      42.550  27.740  31.021  1.00  0.00     0.065 H 
ATOM     97  H   UNL A   1      44.354  30.287  37.753  1.00  0.00     0.065 H 
ATOM     98  C   UNL A   1      43.401  29.486  35.130  1.00  0.00     0.037 A 
ATOM     99  H   UNL A   1      44.048  27.663  33.095  1.00  0.00     0.065 H 
BRANCH  80 100
ATOM    100  C   UNL A   1      40.725  33.906  38.515  1.00  0.00     0.064 A 
ATOM    101  C   UNL A   1      40.024  33.561  39.681  1.00  0.00     0.173 A 
ATOM    102  C   UNL A   1      41.505  35.071  38.539  1.00  0.00     0.173 A 
ATOM    103  F   UNL A   1      39.256  32.461  39.707  1.00  0.00    -0.203 F 
ATOM    104  C   UNL A   1      40.078  34.368  40.815  1.00  0.00     0.198 A 
ATOM    105  C   UNL A   1      41.578  35.862  39.683  1.00  0.00     0.198 A 
ATOM    106  F   UNL A   1      42.201  35.443  37.454  1.00  0.00    -0.203 F 
ATOM    107  F   UNL A   1      39.360  34.045  41.900  1.00  0.00    -0.200 F 
ATOM    108  C   UNL A   1      40.859  35.514  40.817  1.00  0.00     0.200 A 
ATOM    109  F   UNL A   1      42.343  36.962  39.688  1.00  0.00    -0.200 F 
ATOM    110  F   UNL A   1      40.911  36.288  41.910  1.00  0.00    -0.200 F 
ENDBRANCH  80 100
BRANCH  83 111
ATOM    111  C   UNL A   1      40.264  28.730  30.012  1.00  0.00     0.064 A 
ATOM    112  C   UNL A   1      40.844  29.232  28.839  1.00  0.00     0.173 A 
ATOM    113  C   UNL A   1      39.636  27.479  29.949  1.00  0.00     0.173 A 
ATOM    114  F   UNL A   1      41.436  30.435  28.847  1.00  0.00    -0.203 F 
ATOM    115  C   UNL A   1      40.788  28.515  27.646  1.00  0.00     0.198 A 
ATOM    116  C   UNL A   1      39.601  26.752  28.761  1.00  0.00     0.198 A 
ATOM    117  F   UNL A   1      39.070  26.955  31.046  1.00  0.00    -0.203 F 
ATOM    118  F   UNL A   1      41.320  29.034  26.530  1.00  0.00    -0.200 F 
ATOM    119  C   UNL A   1      40.172  27.273  27.609  1.00  0.00     0.200 A 
ATOM    120  F   UNL A   1      39.016  25.547  28.731  1.00  0.00    -0.200 F 
ATOM    121  F   UNL A   1      40.124  26.582  26.463  1.00  0.00    -0.200 F 
ENDBRANCH  83 111
BRANCH  98 122
ATOM    122  C   UNL A   1      44.633  28.685  35.425  1.00  0.00     0.064 A 
ATOM    123  C   UNL A   1      45.910  29.144  35.068  1.00  0.00     0.173 A 
ATOM    124  C   UNL A   1      44.540  27.449  36.084  1.00  0.00     0.173 A 
ATOM    125  F   UNL A   1      46.050  30.311  34.421  1.00  0.00    -0.203 F 
ATOM    126  C   UNL A   1      47.044  28.384  35.335  1.00  0.00     0.198 A 
ATOM    127  C   UNL A   1      45.679  26.703  36.373  1.00  0.00     0.198 A 
ATOM    128  F   UNL A   1      43.343  26.967  36.450  1.00  0.00    -0.203 F 
ATOM    129  F   UNL A   1      48.249  28.818  34.938  1.00  0.00    -0.200 F 
ATOM    130  C   UNL A   1      46.930  27.167  35.991  1.00  0.00     0.200 A 
ATOM    131  F   UNL A   1      45.568  25.533  37.015  1.00  0.00    -0.200 F 
ATOM    132  F   UNL A   1      48.024  26.435  36.244  1.00  0.00    -0.200 F 
ENDBRANCH  98 122
ENDBRANCH  63  66
ENDBRANCH  53  56
ENDBRANCH  49  52
ENDBRANCH  46  49
ENDBRANCH  43  46
ENDBRANCH  40  43
ENDBRANCH  37  40
ENDBRANCH   1  37
TORSDOF 19
ENDMDL
MODEL 4
REMARK VINA RESULT:     -10.9      0.578      7.338
REMARK SMILES O=C(CNC(=O)CNC(=O)OCc1ccccc1)NCCCCCCNC(=O)c1ccc(-c2c3nc(c(-c4c(F)c(F)c(F)c(F)c4F)c4ccc([nH]4)c(-c4c(F)c(F)c(F)c(F)c4F)c4nc(c(-c5c(F)c(F)c(F)c(F)c5F)c5ccc2[nH]5)C=C4)C=C3)cc1
REMARK SMILES IDX 20 1 19 4 1 5 2 6 3 8 4 11 5 12 6 14 7 15 8 18 9 19 10 21
REMARK SMILES IDX 11 22 12 23 13 26 14 27 18 28 15 29 17 31 16 33 21 37 22 40
REMARK SMILES IDX 23 43 24 46 25 49 26 52 27 53 28 55 29 56 30 57 91 58 31 59
REMARK SMILES IDX 90 61 32 63 33 66 34 67 84 68 35 69 89 70 83 71 85 72 36 73
REMARK SMILES IDX 88 74 82 76 81 78 37 80 69 83 49 84 68 85 50 86 53 87 67 88
REMARK SMILES IDX 86 89 51 90 52 92 66 94 87 95 54 98 38 100 39 101 47 102
REMARK SMILES IDX 40 103 41 104 45 105 48 106 42 107 43 108 46 109 44 110
REMARK SMILES IDX 70 111 71 112 79 113 72 114 73 115 77 116 80 117 74 118
REMARK SMILES IDX 75 119 78 120 76 121 55 122 56 123 64 124 57 125 58 126
REMARK SMILES IDX 62 127 65 128 59 129 60 130 63 131 61 132
REMARK H PARENT 20 2 20 3 19 7 3 9 3 10 4 13 7 16 7 17 8 20 12 24 12 25 14 30
REMARK H PARENT 18 32 15 34 17 35 16 36 21 38 21 39 22 41 22 42 23 44 23 45
REMARK H PARENT 24 47 24 48 25 50 25 51 26 54 30 60 91 62 31 64 90 65 89 75
REMARK H PARENT 83 77 85 79 88 81 82 82 50 91 53 93 86 96 51 97 87 99
REMARK Flexibility Score: inf
ROOT
ATOM      1  C   UNL A   1      33.548  30.714  27.355  1.00  0.00     0.017 C 
ATOM      2  H   UNL A   1      33.115  29.963  27.983  1.00  0.00     0.049 H 
ATOM      3  H   UNL A   1      32.965  31.610  27.335  1.00  0.00     0.049 H 
ENDROOT
BRANCH   1   4
ATOM      4  N   UNL A   1      33.600  30.205  25.997  1.00  0.00    -0.355 N 
ATOM      5  O   UNL A   1      31.597  29.088  26.080  1.00  0.00    -0.273 OA
ATOM      6  C   UNL A   1      32.584  29.453  25.449  1.00  0.00     0.239 C 
ATOM      7  H   UNL A   1      34.391  30.405  25.447  1.00  0.00     0.163 HD
BRANCH   6   8
ATOM      8  C   UNL A   1      32.796  29.016  23.990  1.00  0.00     0.097 C 
ATOM      9  H   UNL A   1      32.830  27.946  23.965  1.00  0.00     0.059 H 
ATOM     10  H   UNL A   1      33.708  29.474  23.668  1.00  0.00     0.059 H 
BRANCH   8  11
ATOM     11  N   UNL A   1      31.763  29.460  23.061  1.00  0.00    -0.346 N 
ATOM     12  C   UNL A   1      30.781  28.736  22.450  1.00  0.00     0.239 C 
ATOM     13  H   UNL A   1      31.777  30.421  22.844  1.00  0.00     0.164 HD
ATOM     14  O   UNL A   1      30.011  29.326  21.690  1.00  0.00    -0.273 OA
BRANCH  12  15
ATOM     15  C   UNL A   1      30.708  27.221  22.645  1.00  0.00     0.100 C 
ATOM     16  H   UNL A   1      29.691  26.893  22.590  1.00  0.00     0.060 H 
ATOM     17  H   UNL A   1      31.092  26.942  23.603  1.00  0.00     0.060 H 
BRANCH  15  18
ATOM     18  N   UNL A   1      31.484  26.617  21.581  1.00  0.00    -0.312 N 
ATOM     19  C   UNL A   1      32.576  25.825  21.723  1.00  0.00     0.407 C 
ATOM     20  H   UNL A   1      31.188  26.801  20.661  1.00  0.00     0.167 HD
ATOM     21  O   UNL A   1      33.345  25.668  20.784  1.00  0.00    -0.225 OA
BRANCH  19  22
ATOM     22  O   UNL A   1      32.716  25.291  22.957  1.00  0.00    -0.445 OA
BRANCH  22  23
ATOM     23  C   UNL A   1      33.176  23.928  22.987  1.00  0.00     0.118 C 
ATOM     24  H   UNL A   1      33.262  23.579  21.979  1.00  0.00     0.076 H 
ATOM     25  H   UNL A   1      32.460  23.368  23.552  1.00  0.00     0.076 H 
BRANCH  23  26
ATOM     26  C   UNL A   1      34.515  23.755  23.670  1.00  0.00    -0.011 A 
ATOM     27  C   UNL A   1      35.541  23.017  23.064  1.00  0.00    -0.056 A 
ATOM     28  C   UNL A   1      34.747  24.292  24.945  1.00  0.00    -0.056 A 
ATOM     29  C   UNL A   1      36.760  22.822  23.722  1.00  0.00    -0.062 A 
ATOM     30  H   UNL A   1      35.397  22.614  22.125  1.00  0.00     0.063 H 
ATOM     31  C   UNL A   1      35.970  24.117  25.593  1.00  0.00    -0.062 A 
ATOM     32  H   UNL A   1      33.999  24.827  25.414  1.00  0.00     0.063 H 
ATOM     33  C   UNL A   1      36.976  23.377  24.982  1.00  0.00    -0.062 A 
ATOM     34  H   UNL A   1      37.503  22.266  23.271  1.00  0.00     0.062 H 
ATOM     35  H   UNL A   1      36.129  24.535  26.523  1.00  0.00     0.062 H 
ATOM     36  H   UNL A   1      37.880  23.237  25.461  1.00  0.00     0.062 H 
ENDBRANCH  23  26
ENDBRANCH  22  23
ENDBRANCH  19  22
ENDBRANCH  15  18
ENDBRANCH  12  15
ENDBRANCH   8  11
ENDBRANCH   6   8
ENDBRANCH   1   4
BRANCH   1  37
ATOM     37  C   UNL A   1      34.922  31.084  27.917  1.00  0.00    -0.036 C 
ATOM     38  H   UNL A   1      35.667  30.657  27.279  1.00  0.00     0.028 H 
ATOM     39  H   UNL A   1      34.947  30.702  28.917  1.00  0.00     0.028 H 
BRANCH  37  40
ATOM     40  C   UNL A   1      35.196  32.588  28.029  1.00  0.00    -0.052 C 
ATOM     41  H   UNL A   1      34.861  33.048  27.122  1.00  0.00     0.027 H 
ATOM     42  H   UNL A   1      36.247  32.674  28.206  1.00  0.00     0.027 H 
BRANCH  40  43
ATOM     43  C   UNL A   1      34.525  33.317  29.194  1.00  0.00    -0.052 C 
ATOM     44  H   UNL A   1      35.281  33.864  29.717  1.00  0.00     0.027 H 
ATOM     45  H   UNL A   1      34.054  32.555  29.780  1.00  0.00     0.027 H 
BRANCH  43  46
ATOM     46  C   UNL A   1      33.414  34.295  28.818  1.00  0.00    -0.036 C 
ATOM     47  H   UNL A   1      32.479  33.852  29.091  1.00  0.00     0.028 H 
ATOM     48  H   UNL A   1      33.520  34.468  27.767  1.00  0.00     0.028 H 
BRANCH  46  49
ATOM     49  C   UNL A   1      33.491  35.670  29.477  1.00  0.00     0.018 C 
ATOM     50  H   UNL A   1      33.279  36.415  28.739  1.00  0.00     0.049 H 
ATOM     51  H   UNL A   1      34.475  35.777  29.882  1.00  0.00     0.049 H 
BRANCH  49  52
ATOM     52  N   UNL A   1      32.550  35.827  30.576  1.00  0.00    -0.352 N 
ATOM     53  C   UNL A   1      32.641  35.437  31.889  1.00  0.00     0.251 C 
ATOM     54  H   UNL A   1      31.713  36.289  30.339  1.00  0.00     0.163 HD
ATOM     55  O   UNL A   1      31.666  35.551  32.628  1.00  0.00    -0.269 OA
BRANCH  53  56
ATOM     56  C   UNL A   1      33.891  34.850  32.424  1.00  0.00     0.039 A 
ATOM     57  C   UNL A   1      33.851  33.547  32.934  1.00  0.00    -0.049 A 
ATOM     58  C   UNL A   1      35.088  35.570  32.457  1.00  0.00    -0.049 A 
ATOM     59  C   UNL A   1      35.020  32.945  33.407  1.00  0.00    -0.053 A 
ATOM     60  H   UNL A   1      32.958  33.031  32.960  1.00  0.00     0.063 H 
ATOM     61  C   UNL A   1      36.267  34.947  32.868  1.00  0.00    -0.053 A 
ATOM     62  H   UNL A   1      35.100  36.564  32.178  1.00  0.00     0.063 H 
ATOM     63  C   UNL A   1      36.246  33.627  33.342  1.00  0.00    -0.014 A 
ATOM     64  H   UNL A   1      34.982  31.995  33.805  1.00  0.00     0.063 H 
ATOM     65  H   UNL A   1      37.161  35.461  32.823  1.00  0.00     0.063 H 
BRANCH  63  66
ATOM     66  C   UNL A   1      37.510  32.954  33.737  1.00  0.00     0.031 A 
ATOM     67  C   UNL A   1      38.165  31.950  32.831  1.00  0.00     0.074 A 
ATOM     68  C   UNL A   1      38.044  33.212  34.946  1.00  0.00     0.049 A 
ATOM     69  N   UNL A   1      39.267  31.264  33.015  1.00  0.00    -0.248 NA
ATOM     70  C   UNL A   1      37.483  31.658  31.563  1.00  0.00    -0.034 C 
ATOM     71  C   UNL A   1      37.475  34.121  35.943  1.00  0.00    -0.036 A 
ATOM     72  N   UNL A   1      39.184  32.734  35.545  1.00  0.00    -0.354 N 
ATOM     73  C   UNL A   1      39.400  30.452  31.897  1.00  0.00     0.074 A 
ATOM     74  C   UNL A   1      38.246  30.698  31.059  1.00  0.00    -0.034 C 
ATOM     75  H   UNL A   1      36.632  32.088  31.167  1.00  0.00     0.065 H 
ATOM     76  C   UNL A   1      38.283  34.160  37.014  1.00  0.00    -0.036 A 
ATOM     77  H   UNL A   1      36.593  34.646  35.839  1.00  0.00     0.065 H 
ATOM     78  C   UNL A   1      39.411  33.261  36.792  1.00  0.00     0.049 A 
ATOM     79  H   UNL A   1      39.781  32.077  35.119  1.00  0.00     0.167 HD
ATOM     80  C   UNL A   1      40.405  29.597  31.587  1.00  0.00     0.037 A 
ATOM     81  H   UNL A   1      38.041  30.190  30.185  1.00  0.00     0.065 H 
ATOM     82  H   UNL A   1      38.131  34.734  37.858  1.00  0.00     0.065 H 
ATOM     83  C   UNL A   1      40.419  33.047  37.658  1.00  0.00     0.037 A 
ATOM     84  C   UNL A   1      41.568  29.375  32.406  1.00  0.00     0.049 A 
ATOM     85  C   UNL A   1      41.528  32.104  37.284  1.00  0.00     0.074 A 
ATOM     86  C   UNL A   1      42.680  28.597  32.135  1.00  0.00    -0.036 A 
ATOM     87  N   UNL A   1      41.765  29.928  33.663  1.00  0.00    -0.354 N 
ATOM     88  N   UNL A   1      41.688  31.411  36.184  1.00  0.00    -0.248 NA
ATOM     89  C   UNL A   1      42.600  31.920  38.273  1.00  0.00    -0.034 C 
ATOM     90  C   UNL A   1      43.530  28.643  33.246  1.00  0.00    -0.036 A 
ATOM     91  H   UNL A   1      42.852  28.072  31.263  1.00  0.00     0.065 H 
ATOM     92  C   UNL A   1      42.969  29.485  34.192  1.00  0.00     0.049 A 
ATOM     93  H   UNL A   1      41.143  30.544  34.113  1.00  0.00     0.167 HD
ATOM     94  C   UNL A   1      42.884  30.724  36.337  1.00  0.00     0.074 A 
ATOM     95  C   UNL A   1      43.419  31.100  37.630  1.00  0.00    -0.034 C 
ATOM     96  H   UNL A   1      42.690  32.324  39.219  1.00  0.00     0.065 H 
ATOM     97  H   UNL A   1      44.424  28.138  33.343  1.00  0.00     0.065 H 
ATOM     98  C   UNL A   1      43.485  29.860  35.484  1.00  0.00     0.037 A 
ATOM     99  H   UNL A   1      44.322  30.771  38.004  1.00  0.00     0.065 H 
BRANCH  80 100
ATOM    100  C   UNL A   1      40.288  28.833  30.300  1.00  0.00     0.064 A 
ATOM    101  C   UNL A   1      40.874  29.297  29.113  1.00  0.00     0.173 A 
ATOM    102  C   UNL A   1      39.608  27.606  30.260  1.00  0.00     0.173 A 
ATOM    103  F   UNL A   1      41.527  30.469  29.096  1.00  0.00    -0.203 F 
ATOM    104  C   UNL A   1      40.756  28.578  27.926  1.00  0.00     0.198 A 
ATOM    105  C   UNL A   1      39.516  26.876  29.078  1.00  0.00     0.198 A 
ATOM    106  F   UNL A   1      39.037  27.113  31.368  1.00  0.00    -0.203 F 
ATOM    107  F   UNL A   1      41.281  29.067  26.794  1.00  0.00    -0.200 F 
ATOM    108  C   UNL A   1      40.082  27.366  27.911  1.00  0.00     0.200 A 
ATOM    109  F   UNL A   1      38.875  25.699  29.067  1.00  0.00    -0.200 F 
ATOM    110  F   UNL A   1      39.972  26.675  26.768  1.00  0.00    -0.200 F 
ENDBRANCH  80 100
BRANCH  83 111
ATOM    111  C   UNL A   1      40.449  33.781  38.948  1.00  0.00     0.064 A 
ATOM    112  C   UNL A   1      39.731  33.307  40.056  1.00  0.00     0.173 A 
ATOM    113  C   UNL A   1      41.194  34.958  39.105  1.00  0.00     0.173 A 
ATOM    114  F   UNL A   1      38.987  32.197  39.945  1.00  0.00    -0.203 F 
ATOM    115  C   UNL A   1      39.750  33.990  41.270  1.00  0.00     0.198 A 
ATOM    116  C   UNL A   1      41.230  35.627  40.326  1.00  0.00     0.198 A 
ATOM    117  F   UNL A   1      41.899  35.449  38.075  1.00  0.00    -0.203 F 
ATOM    118  F   UNL A   1      39.027  33.535  42.303  1.00  0.00    -0.200 F 
ATOM    119  C   UNL A   1      40.504  35.146  41.405  1.00  0.00     0.200 A 
ATOM    120  F   UNL A   1      41.969  36.737  40.458  1.00  0.00    -0.200 F 
ATOM    121  F   UNL A   1      40.526  35.798  42.576  1.00  0.00    -0.200 F 
ENDBRANCH  83 111
BRANCH  98 122
ATOM    122  C   UNL A   1      44.796  29.273  35.919  1.00  0.00     0.064 A 
ATOM    123  C   UNL A   1      46.014  29.907  35.631  1.00  0.00     0.173 A 
ATOM    124  C   UNL A   1      44.835  28.072  36.643  1.00  0.00     0.173 A 
ATOM    125  F   UNL A   1      46.030  31.048  34.927  1.00  0.00    -0.203 F 
ATOM    126  C   UNL A   1      47.224  29.345  36.028  1.00  0.00     0.198 A 
ATOM    127  C   UNL A   1      46.045  27.526  37.060  1.00  0.00     0.198 A 
ATOM    128  F   UNL A   1      43.698  27.428  36.946  1.00  0.00    -0.203 F 
ATOM    129  F   UNL A   1      48.378  29.940  35.697  1.00  0.00    -0.200 F 
ATOM    130  C   UNL A   1      47.239  28.158  36.746  1.00  0.00     0.200 A 
ATOM    131  F   UNL A   1      46.057  26.385  37.763  1.00  0.00    -0.200 F 
ATOM    132  F   UNL A   1      48.405  27.617  37.125  1.00  0.00    -0.200 F 
ENDBRANCH  98 122
ENDBRANCH  63  66
ENDBRANCH  53  56
ENDBRANCH  49  52
ENDBRANCH  46  49
ENDBRANCH  43  46
ENDBRANCH  40  43
ENDBRANCH  37  40
ENDBRANCH   1  37
TORSDOF 19
ENDMDL
MODEL 5
REMARK VINA RESULT:     -10.8      2.587      4.962
REMARK SMILES O=C(CNC(=O)CNC(=O)OCc1ccccc1)NCCCCCCNC(=O)c1ccc(-c2c3nc(c(-c4c(F)c(F)c(F)c(F)c4F)c4ccc([nH]4)c(-c4c(F)c(F)c(F)c(F)c4F)c4nc(c(-c5c(F)c(F)c(F)c(F)c5F)c5ccc2[nH]5)C=C4)C=C3)cc1
REMARK SMILES IDX 20 1 19 4 1 5 2 6 3 8 4 11 5 12 6 14 7 15 8 18 9 19 10 21
REMARK SMILES IDX 11 22 12 23 13 26 14 27 18 28 15 29 17 31 16 33 21 37 22 40
REMARK SMILES IDX 23 43 24 46 25 49 26 52 27 53 28 55 29 56 30 57 91 58 31 59
REMARK SMILES IDX 90 61 32 63 33 66 34 67 84 68 35 69 89 70 83 71 85 72 36 73
REMARK SMILES IDX 88 74 82 76 81 78 37 80 69 83 49 84 68 85 50 86 53 87 67 88
REMARK SMILES IDX 86 89 51 90 52 92 66 94 87 95 54 98 38 100 39 101 47 102
REMARK SMILES IDX 40 103 41 104 45 105 48 106 42 107 43 108 46 109 44 110
REMARK SMILES IDX 70 111 71 112 79 113 72 114 73 115 77 116 80 117 74 118
REMARK SMILES IDX 75 119 78 120 76 121 55 122 56 123 64 124 57 125 58 126
REMARK SMILES IDX 62 127 65 128 59 129 60 130 63 131 61 132
REMARK H PARENT 20 2 20 3 19 7 3 9 3 10 4 13 7 16 7 17 8 20 12 24 12 25 14 30
REMARK H PARENT 18 32 15 34 17 35 16 36 21 38 21 39 22 41 22 42 23 44 23 45
REMARK H PARENT 24 47 24 48 25 50 25 51 26 54 30 60 91 62 31 64 90 65 89 75
REMARK H PARENT 83 77 85 79 88 81 82 82 50 91 53 93 86 96 51 97 87 99
REMARK Flexibility Score: inf
ROOT
ATOM      1  C   UNL A   1      33.233  27.025  22.050  1.00  0.00     0.017 C 
ATOM      2  H   UNL A   1      32.266  27.397  21.782  1.00  0.00     0.049 H 
ATOM      3  H   UNL A   1      33.832  26.803  21.193  1.00  0.00     0.049 H 
ENDROOT
BRANCH   1   4
ATOM      4  N   UNL A   1      33.062  25.787  22.788  1.00  0.00    -0.355 N 
ATOM      5  O   UNL A   1      33.280  24.394  20.977  1.00  0.00    -0.273 OA
ATOM      6  C   UNL A   1      33.139  24.550  22.187  1.00  0.00     0.239 C 
ATOM      7  H   UNL A   1      32.884  25.834  23.755  1.00  0.00     0.163 HD
BRANCH   6   8
ATOM      8  C   UNL A   1      32.955  23.345  23.124  1.00  0.00     0.097 C 
ATOM      9  H   UNL A   1      33.434  22.500  22.676  1.00  0.00     0.059 H 
ATOM     10  H   UNL A   1      31.899  23.217  23.246  1.00  0.00     0.059 H 
BRANCH   8  11
ATOM     11  N   UNL A   1      33.504  23.521  24.464  1.00  0.00    -0.346 N 
ATOM     12  C   UNL A   1      32.859  23.538  25.667  1.00  0.00     0.239 C 
ATOM     13  H   UNL A   1      34.480  23.646  24.506  1.00  0.00     0.164 HD
ATOM     14  O   UNL A   1      33.532  23.708  26.685  1.00  0.00    -0.273 OA
BRANCH  12  15
ATOM     15  C   UNL A   1      31.334  23.436  25.724  1.00  0.00     0.100 C 
ATOM     16  H   UNL A   1      31.045  22.520  26.196  1.00  0.00     0.060 H 
ATOM     17  H   UNL A   1      30.915  23.445  24.740  1.00  0.00     0.060 H 
BRANCH  15  18
ATOM     18  N   UNL A   1      30.861  24.565  26.497  1.00  0.00    -0.312 N 
ATOM     19  C   UNL A   1      30.717  25.843  26.063  1.00  0.00     0.407 C 
ATOM     20  H   UNL A   1      30.618  24.388  27.434  1.00  0.00     0.167 HD
ATOM     21  O   UNL A   1      30.656  26.760  26.871  1.00  0.00    -0.225 OA
BRANCH  19  22
ATOM     22  O   UNL A   1      30.685  25.970  24.718  1.00  0.00    -0.445 OA
BRANCH  22  23
ATOM     23  C   UNL A   1      29.369  26.050  24.141  1.00  0.00     0.118 C 
ATOM     24  H   UNL A   1      28.651  25.862  24.912  1.00  0.00     0.076 H 
ATOM     25  H   UNL A   1      29.325  25.323  23.358  1.00  0.00     0.076 H 
BRANCH  23  26
ATOM     26  C   UNL A   1      29.061  27.394  23.518  1.00  0.00    -0.011 A 
ATOM     27  C   UNL A   1      27.754  27.901  23.510  1.00  0.00    -0.056 A 
ATOM     28  C   UNL A   1      30.068  28.146  22.894  1.00  0.00    -0.056 A 
ATOM     29  C   UNL A   1      27.469  29.123  22.891  1.00  0.00    -0.062 A 
ATOM     30  H   UNL A   1      26.995  27.369  23.965  1.00  0.00     0.063 H 
ATOM     31  C   UNL A   1      29.789  29.374  22.296  1.00  0.00    -0.062 A 
ATOM     32  H   UNL A   1      31.034  27.783  22.877  1.00  0.00     0.063 H 
ATOM     33  C   UNL A   1      28.487  29.861  22.290  1.00  0.00    -0.062 A 
ATOM     34  H   UNL A   1      26.500  29.479  22.881  1.00  0.00     0.062 H 
ATOM     35  H   UNL A   1      30.546  29.922  21.858  1.00  0.00     0.062 H 
ATOM     36  H   UNL A   1      28.273  30.766  21.841  1.00  0.00     0.062 H 
ENDBRANCH  23  26
ENDBRANCH  22  23
ENDBRANCH  19  22
ENDBRANCH  15  18
ENDBRANCH  12  15
ENDBRANCH   8  11
ENDBRANCH   6   8
ENDBRANCH   1   4
BRANCH   1  37
ATOM     37  C   UNL A   1      33.966  28.108  22.844  1.00  0.00    -0.036 C 
ATOM     38  H   UNL A   1      33.817  29.043  22.345  1.00  0.00     0.028 H 
ATOM     39  H   UNL A   1      34.991  27.806  22.884  1.00  0.00     0.028 H 
BRANCH  37  40
ATOM     40  C   UNL A   1      33.510  28.269  24.299  1.00  0.00    -0.052 C 
ATOM     41  H   UNL A   1      34.365  28.121  24.926  1.00  0.00     0.027 H 
ATOM     42  H   UNL A   1      32.732  27.547  24.435  1.00  0.00     0.027 H 
BRANCH  40  43
ATOM     43  C   UNL A   1      32.887  29.615  24.672  1.00  0.00    -0.052 C 
ATOM     44  H   UNL A   1      32.443  30.026  23.790  1.00  0.00     0.027 H 
ATOM     45  H   UNL A   1      33.686  30.202  25.074  1.00  0.00     0.027 H 
BRANCH  43  46
ATOM     46  C   UNL A   1      31.816  29.574  25.761  1.00  0.00    -0.036 C 
ATOM     47  H   UNL A   1      31.575  28.549  25.948  1.00  0.00     0.028 H 
ATOM     48  H   UNL A   1      30.995  30.150  25.386  1.00  0.00     0.028 H 
BRANCH  46  49
ATOM     49  C   UNL A   1      32.201  30.216  27.092  1.00  0.00     0.018 C 
ATOM     50  H   UNL A   1      33.126  29.788  27.422  1.00  0.00     0.049 H 
ATOM     51  H   UNL A   1      31.405  30.028  27.781  1.00  0.00     0.049 H 
BRANCH  49  52
ATOM     52  N   UNL A   1      32.365  31.658  27.001  1.00  0.00    -0.352 N 
ATOM     53  C   UNL A   1      33.376  32.469  27.453  1.00  0.00     0.251 C 
ATOM     54  H   UNL A   1      31.633  32.129  26.540  1.00  0.00     0.163 HD
ATOM     55  O   UNL A   1      33.253  33.690  27.389  1.00  0.00    -0.269 OA
BRANCH  53  56
ATOM     56  C   UNL A   1      34.605  31.895  28.048  1.00  0.00     0.039 A 
ATOM     57  C   UNL A   1      35.614  32.769  28.467  1.00  0.00    -0.049 A 
ATOM     58  C   UNL A   1      34.789  30.515  28.171  1.00  0.00    -0.049 A 
ATOM     59  C   UNL A   1      36.769  32.266  29.072  1.00  0.00    -0.053 A 
ATOM     60  H   UNL A   1      35.506  33.786  28.331  1.00  0.00     0.063 H 
ATOM     61  C   UNL A   1      35.911  30.016  28.833  1.00  0.00    -0.053 A 
ATOM     62  H   UNL A   1      34.095  29.865  27.770  1.00  0.00     0.063 H 
ATOM     63  C   UNL A   1      36.910  30.886  29.295  1.00  0.00    -0.014 A 
ATOM     64  H   UNL A   1      37.521  32.911  29.357  1.00  0.00     0.063 H 
ATOM     65  H   UNL A   1      36.007  29.000  28.984  1.00  0.00     0.063 H 
BRANCH  63  66
ATOM     66  C   UNL A   1      38.081  30.354  30.039  1.00  0.00     0.031 A 
ATOM     67  C   UNL A   1      38.340  30.759  31.462  1.00  0.00     0.074 A 
ATOM     68  C   UNL A   1      38.946  29.537  29.407  1.00  0.00     0.049 A 
ATOM     69  N   UNL A   1      39.313  30.396  32.262  1.00  0.00    -0.248 NA
ATOM     70  C   UNL A   1      37.399  31.716  32.060  1.00  0.00    -0.034 C 
ATOM     71  C   UNL A   1      38.840  29.116  28.009  1.00  0.00    -0.036 A 
ATOM     72  N   UNL A   1      40.086  28.918  29.856  1.00  0.00    -0.354 N 
ATOM     73  C   UNL A   1      39.109  31.089  33.447  1.00  0.00     0.074 A 
ATOM     74  C   UNL A   1      37.946  31.927  33.249  1.00  0.00    -0.034 C 
ATOM     75  H   UNL A   1      36.536  32.118  31.660  1.00  0.00     0.065 H 
ATOM     76  C   UNL A   1      39.853  28.281  27.725  1.00  0.00    -0.036 A 
ATOM     77  H   UNL A   1      38.106  29.412  27.348  1.00  0.00     0.065 H 
ATOM     78  C   UNL A   1      40.694  28.131  28.909  1.00  0.00     0.049 A 
ATOM     79  H   UNL A   1      40.434  29.027  30.771  1.00  0.00     0.167 HD
ATOM     80  C   UNL A   1      39.815  31.016  34.602  1.00  0.00     0.037 A 
ATOM     81  H   UNL A   1      37.590  32.603  33.942  1.00  0.00     0.065 H 
ATOM     82  H   UNL A   1      40.012  27.821  26.816  1.00  0.00     0.065 H 
ATOM     83  C   UNL A   1      41.800  27.370  28.987  1.00  0.00     0.037 A 
ATOM     84  C   UNL A   1      40.954  30.160  34.809  1.00  0.00     0.049 A 
ATOM     85  C   UNL A   1      42.557  27.297  30.284  1.00  0.00     0.074 A 
ATOM     86  C   UNL A   1      41.679  29.952  35.969  1.00  0.00    -0.036 A 
ATOM     87  N   UNL A   1      41.540  29.376  33.826  1.00  0.00    -0.354 N 
ATOM     88  N   UNL A   1      42.302  27.887  31.425  1.00  0.00    -0.248 NA
ATOM     89  C   UNL A   1      43.753  26.443  30.302  1.00  0.00    -0.034 C 
ATOM     90  C   UNL A   1      42.730  29.074  35.679  1.00  0.00    -0.036 A 
ATOM     91  H   UNL A   1      41.478  30.371  36.891  1.00  0.00     0.065 H 
ATOM     92  C   UNL A   1      42.635  28.702  34.348  1.00  0.00     0.049 A 
ATOM     93  H   UNL A   1      41.225  29.307  32.896  1.00  0.00     0.167 HD
ATOM     94  C   UNL A   1      43.290  27.464  32.302  1.00  0.00     0.074 A 
ATOM     95  C   UNL A   1      44.140  26.551  31.565  1.00  0.00    -0.034 C 
ATOM     96  H   UNL A   1      44.180  25.902  29.533  1.00  0.00     0.065 H 
ATOM     97  H   UNL A   1      43.452  28.757  36.343  1.00  0.00     0.065 H 
ATOM     98  C   UNL A   1      43.478  27.803  33.601  1.00  0.00     0.037 A 
ATOM     99  H   UNL A   1      44.944  26.048  31.972  1.00  0.00     0.065 H 
BRANCH  80 100
ATOM    100  C   UNL A   1      39.371  31.892  35.738  1.00  0.00     0.064 A 
ATOM    101  C   UNL A   1      39.897  33.179  35.922  1.00  0.00     0.173 A 
ATOM    102  C   UNL A   1      38.387  31.450  36.635  1.00  0.00     0.173 A 
ATOM    103  F   UNL A   1      40.847  33.645  35.098  1.00  0.00    -0.203 F 
ATOM    104  C   UNL A   1      39.477  33.980  36.982  1.00  0.00     0.198 A 
ATOM    105  C   UNL A   1      37.950  32.263  37.677  1.00  0.00     0.198 A 
ATOM    106  F   UNL A   1      37.846  30.230  36.499  1.00  0.00    -0.203 F 
ATOM    107  F   UNL A   1      40.030  35.187  37.169  1.00  0.00    -0.200 F 
ATOM    108  C   UNL A   1      38.501  33.523  37.855  1.00  0.00     0.200 A 
ATOM    109  F   UNL A   1      36.998  31.826  38.513  1.00  0.00    -0.200 F 
ATOM    110  F   UNL A   1      38.097  34.296  38.873  1.00  0.00    -0.200 F 
ENDBRANCH  80 100
BRANCH  83 111
ATOM    111  C   UNL A   1      42.232  26.576  27.809  1.00  0.00     0.064 A 
ATOM    112  C   UNL A   1      43.195  27.079  26.923  1.00  0.00     0.173 A 
ATOM    113  C   UNL A   1      41.702  25.305  27.549  1.00  0.00     0.173 A 
ATOM    114  F   UNL A   1      43.712  28.300  27.121  1.00  0.00    -0.203 F 
ATOM    115  C   UNL A   1      43.604  26.343  25.814  1.00  0.00     0.198 A 
ATOM    116  C   UNL A   1      42.130  24.560  26.452  1.00  0.00     0.198 A 
ATOM    117  F   UNL A   1      40.781  24.780  28.370  1.00  0.00    -0.203 F 
ATOM    118  F   UNL A   1      44.501  26.862  24.963  1.00  0.00    -0.200 F 
ATOM    119  C   UNL A   1      43.076  25.082  25.582  1.00  0.00     0.200 A 
ATOM    120  F   UNL A   1      41.626  23.337  26.237  1.00  0.00    -0.200 F 
ATOM    121  F   UNL A   1      43.475  24.372  24.518  1.00  0.00    -0.200 F 
ENDBRANCH  83 111
BRANCH  98 122
ATOM    122  C   UNL A   1      44.639  27.170  34.309  1.00  0.00     0.064 A 
ATOM    123  C   UNL A   1      45.895  27.794  34.360  1.00  0.00     0.173 A 
ATOM    124  C   UNL A   1      44.493  25.934  34.955  1.00  0.00     0.173 A 
ATOM    125  F   UNL A   1      46.090  28.968  33.743  1.00  0.00    -0.203 F 
ATOM    126  C   UNL A   1      46.968  27.189  35.007  1.00  0.00     0.198 A 
ATOM    127  C   UNL A   1      45.561  25.344  35.625  1.00  0.00     0.198 A 
ATOM    128  F   UNL A   1      43.311  25.298  34.939  1.00  0.00    -0.203 F 
ATOM    129  F   UNL A   1      48.172  27.777  34.999  1.00  0.00    -0.200 F 
ATOM    130  C   UNL A   1      46.800  25.968  35.644  1.00  0.00     0.200 A 
ATOM    131  F   UNL A   1      45.394  24.169  36.247  1.00  0.00    -0.200 F 
ATOM    132  F   UNL A   1      47.835  25.386  36.265  1.00  0.00    -0.200 F 
ENDBRANCH  98 122
ENDBRANCH  63  66
ENDBRANCH  53  56
ENDBRANCH  49  52
ENDBRANCH  46  49
ENDBRANCH  43  46
ENDBRANCH  40  43
ENDBRANCH  37  40
ENDBRANCH   1  37
TORSDOF 19
ENDMDL
MODEL 6
REMARK VINA RESULT:     -10.6      1.927      2.695
REMARK SMILES O=C(CNC(=O)CNC(=O)OCc1ccccc1)NCCCCCCNC(=O)c1ccc(-c2c3nc(c(-c4c(F)c(F)c(F)c(F)c4F)c4ccc([nH]4)c(-c4c(F)c(F)c(F)c(F)c4F)c4nc(c(-c5c(F)c(F)c(F)c(F)c5F)c5ccc2[nH]5)C=C4)C=C3)cc1
REMARK SMILES IDX 20 1 19 4 1 5 2 6 3 8 4 11 5 12 6 14 7 15 8 18 9 19 10 21
REMARK SMILES IDX 11 22 12 23 13 26 14 27 18 28 15 29 17 31 16 33 21 37 22 40
REMARK SMILES IDX 23 43 24 46 25 49 26 52 27 53 28 55 29 56 30 57 91 58 31 59
REMARK SMILES IDX 90 61 32 63 33 66 34 67 84 68 35 69 89 70 83 71 85 72 36 73
REMARK SMILES IDX 88 74 82 76 81 78 37 80 69 83 49 84 68 85 50 86 53 87 67 88
REMARK SMILES IDX 86 89 51 90 52 92 66 94 87 95 54 98 38 100 39 101 47 102
REMARK SMILES IDX 40 103 41 104 45 105 48 106 42 107 43 108 46 109 44 110
REMARK SMILES IDX 70 111 71 112 79 113 72 114 73 115 77 116 80 117 74 118
REMARK SMILES IDX 75 119 78 120 76 121 55 122 56 123 64 124 57 125 58 126
REMARK SMILES IDX 62 127 65 128 59 129 60 130 63 131 61 132
REMARK H PARENT 20 2 20 3 19 7 3 9 3 10 4 13 7 16 7 17 8 20 12 24 12 25 14 30
REMARK H PARENT 18 32 15 34 17 35 16 36 21 38 21 39 22 41 22 42 23 44 23 45
REMARK H PARENT 24 47 24 48 25 50 25 51 26 54 30 60 91 62 31 64 90 65 89 75
REMARK H PARENT 83 77 85 79 88 81 82 82 50 91 53 93 86 96 51 97 87 99
REMARK Flexibility Score: inf
ROOT
ATOM      1  C   UNL A   1      33.638  31.007  27.559  1.00  0.00     0.017 C 
ATOM      2  H   UNL A   1      32.729  31.317  28.031  1.00  0.00     0.049 H 
ATOM      3  H   UNL A   1      33.734  31.399  26.569  1.00  0.00     0.049 H 
ENDROOT
BRANCH   1   4
ATOM      4  N   UNL A   1      33.629  29.560  27.448  1.00  0.00    -0.355 N 
ATOM      5  O   UNL A   1      33.288  29.492  25.179  1.00  0.00    -0.273 OA
ATOM      6  C   UNL A   1      33.491  28.910  26.241  1.00  0.00     0.239 C 
ATOM      7  H   UNL A   1      33.725  29.022  28.267  1.00  0.00     0.163 HD
BRANCH   6   8
ATOM      8  C   UNL A   1      33.525  27.374  26.307  1.00  0.00     0.097 C 
ATOM      9  H   UNL A   1      32.566  27.034  26.638  1.00  0.00     0.059 H 
ATOM     10  H   UNL A   1      34.318  27.120  26.979  1.00  0.00     0.059 H 
BRANCH   8  11
ATOM     11  N   UNL A   1      33.831  26.713  25.043  1.00  0.00    -0.346 N 
ATOM     12  C   UNL A   1      33.776  25.387  24.727  1.00  0.00     0.239 C 
ATOM     13  H   UNL A   1      34.118  27.310  24.314  1.00  0.00     0.164 HD
ATOM     14  O   UNL A   1      34.087  25.049  23.583  1.00  0.00    -0.273 OA
BRANCH  12  15
ATOM     15  C   UNL A   1      33.423  24.354  25.797  1.00  0.00     0.100 C 
ATOM     16  H   UNL A   1      32.611  23.742  25.464  1.00  0.00     0.060 H 
ATOM     17  H   UNL A   1      33.122  24.834  26.705  1.00  0.00     0.060 H 
BRANCH  15  18
ATOM     18  N   UNL A   1      34.603  23.541  26.010  1.00  0.00    -0.312 N 
ATOM     19  C   UNL A   1      34.769  22.243  25.653  1.00  0.00     0.407 C 
ATOM     20  H   UNL A   1      35.362  23.976  26.460  1.00  0.00     0.167 HD
ATOM     21  O   UNL A   1      35.642  21.569  26.184  1.00  0.00    -0.225 OA
BRANCH  19  22
ATOM     22  O   UNL A   1      33.891  21.808  24.723  1.00  0.00    -0.445 OA
BRANCH  22  23
ATOM     23  C   UNL A   1      33.047  20.719  25.138  1.00  0.00     0.118 C 
ATOM     24  H   UNL A   1      32.027  21.013  25.006  1.00  0.00     0.076 H 
ATOM     25  H   UNL A   1      33.281  20.514  26.162  1.00  0.00     0.076 H 
BRANCH  23  26
ATOM     26  C   UNL A   1      33.281  19.440  24.364  1.00  0.00    -0.011 A 
ATOM     27  C   UNL A   1      32.406  19.046  23.344  1.00  0.00    -0.056 A 
ATOM     28  C   UNL A   1      34.357  18.596  24.678  1.00  0.00    -0.056 A 
ATOM     29  C   UNL A   1      32.603  17.840  22.664  1.00  0.00    -0.062 A 
ATOM     30  H   UNL A   1      31.608  19.651  23.091  1.00  0.00     0.063 H 
ATOM     31  C   UNL A   1      34.568  17.404  23.986  1.00  0.00    -0.062 A 
ATOM     32  H   UNL A   1      35.006  18.862  25.436  1.00  0.00     0.063 H 
ATOM     33  C   UNL A   1      33.687  17.022  22.980  1.00  0.00    -0.062 A 
ATOM     34  H   UNL A   1      31.943  17.555  21.922  1.00  0.00     0.062 H 
ATOM     35  H   UNL A   1      35.375  16.804  24.219  1.00  0.00     0.062 H 
ATOM     36  H   UNL A   1      33.833  16.137  22.471  1.00  0.00     0.062 H 
ENDBRANCH  23  26
ENDBRANCH  22  23
ENDBRANCH  19  22
ENDBRANCH  15  18
ENDBRANCH  12  15
ENDBRANCH   8  11
ENDBRANCH   6   8
ENDBRANCH   1   4
BRANCH   1  37
ATOM     37  C   UNL A   1      34.816  31.545  28.373  1.00  0.00    -0.036 C 
ATOM     38  H   UNL A   1      35.602  31.797  27.692  1.00  0.00     0.028 H 
ATOM     39  H   UNL A   1      35.081  30.770  29.062  1.00  0.00     0.028 H 
BRANCH  37  40
ATOM     40  C   UNL A   1      34.506  32.784  29.222  1.00  0.00    -0.052 C 
ATOM     41  H   UNL A   1      35.336  32.943  29.880  1.00  0.00     0.027 H 
ATOM     42  H   UNL A   1      33.584  32.566  29.719  1.00  0.00     0.027 H 
BRANCH  40  43
ATOM     43  C   UNL A   1      34.260  34.087  28.460  1.00  0.00    -0.052 C 
ATOM     44  H   UNL A   1      34.215  33.853  27.417  1.00  0.00     0.027 H 
ATOM     45  H   UNL A   1      35.069  34.735  28.727  1.00  0.00     0.027 H 
BRANCH  43  46
ATOM     46  C   UNL A   1      32.985  34.843  28.827  1.00  0.00    -0.036 C 
ATOM     47  H   UNL A   1      32.409  34.220  29.479  1.00  0.00     0.028 H 
ATOM     48  H   UNL A   1      32.499  35.065  27.900  1.00  0.00     0.028 H 
BRANCH  46  49
ATOM     49  C   UNL A   1      33.190  36.187  29.524  1.00  0.00     0.018 C 
ATOM     50  H   UNL A   1      32.858  36.965  28.867  1.00  0.00     0.049 H 
ATOM     51  H   UNL A   1      34.230  36.274  29.754  1.00  0.00     0.049 H 
BRANCH  49  52
ATOM     52  N   UNL A   1      32.457  36.295  30.776  1.00  0.00    -0.352 N 
ATOM     53  C   UNL A   1      32.686  35.706  31.995  1.00  0.00     0.251 C 
ATOM     54  H   UNL A   1      31.671  36.887  30.745  1.00  0.00     0.163 HD
ATOM     55  O   UNL A   1      31.860  35.829  32.896  1.00  0.00    -0.269 OA
BRANCH  53  56
ATOM     56  C   UNL A   1      33.903  34.895  32.232  1.00  0.00     0.039 A 
ATOM     57  C   UNL A   1      35.144  35.437  31.881  1.00  0.00    -0.049 A 
ATOM     58  C   UNL A   1      33.836  33.605  32.766  1.00  0.00    -0.049 A 
ATOM     59  C   UNL A   1      36.316  34.719  32.130  1.00  0.00    -0.053 A 
ATOM     60  H   UNL A   1      35.194  36.367  31.437  1.00  0.00     0.063 H 
ATOM     61  C   UNL A   1      35.009  32.916  33.075  1.00  0.00    -0.053 A 
ATOM     62  H   UNL A   1      32.918  33.163  32.931  1.00  0.00     0.063 H 
ATOM     63  C   UNL A   1      36.261  33.467  32.765  1.00  0.00    -0.014 A 
ATOM     64  H   UNL A   1      37.228  35.110  31.846  1.00  0.00     0.063 H 
ATOM     65  H   UNL A   1      34.955  31.994  33.535  1.00  0.00     0.063 H 
BRANCH  63  66
ATOM     66  C   UNL A   1      37.508  32.749  33.137  1.00  0.00     0.031 A 
ATOM     67  C   UNL A   1      38.223  33.059  34.421  1.00  0.00     0.074 A 
ATOM     68  C   UNL A   1      38.026  31.846  32.282  1.00  0.00     0.049 A 
ATOM     69  N   UNL A   1      39.323  32.534  34.903  1.00  0.00    -0.248 NA
ATOM     70  C   UNL A   1      37.642  34.112  35.265  1.00  0.00    -0.034 C 
ATOM     71  C   UNL A   1      37.462  31.498  30.978  1.00  0.00    -0.036 A 
ATOM     72  N   UNL A   1      39.146  31.058  32.381  1.00  0.00    -0.354 N 
ATOM     73  C   UNL A   1      39.572  33.201  36.094  1.00  0.00     0.074 A 
ATOM     74  C   UNL A   1      38.534  34.199  36.242  1.00  0.00    -0.034 C 
ATOM     75  H   UNL A   1      36.768  34.645  35.133  1.00  0.00     0.065 H 
ATOM     76  C   UNL A   1      38.218  30.543  30.413  1.00  0.00    -0.036 A 
ATOM     77  H   UNL A   1      36.618  31.919  30.558  1.00  0.00     0.065 H 
ATOM     78  C   UNL A   1      39.334  30.232  31.300  1.00  0.00     0.049 A 
ATOM     79  H   UNL A   1      39.755  31.081  33.155  1.00  0.00     0.167 HD
ATOM     80  C   UNL A   1      40.563  32.986  36.993  1.00  0.00     0.037 A 
ATOM     81  H   UNL A   1      38.495  34.891  37.007  1.00  0.00     0.065 H 
ATOM     82  H   UNL A   1      38.039  30.101  29.498  1.00  0.00     0.065 H 
ATOM     83  C   UNL A   1      40.295  29.322  31.055  1.00  0.00     0.037 A 
ATOM     84  C   UNL A   1      41.578  31.973  36.861  1.00  0.00     0.049 A 
ATOM     85  C   UNL A   1      41.375  29.095  32.075  1.00  0.00     0.074 A 
ATOM     86  C   UNL A   1      42.569  31.621  37.761  1.00  0.00    -0.036 A 
ATOM     87  N   UNL A   1      41.736  31.154  35.753  1.00  0.00    -0.354 N 
ATOM     88  N   UNL A   1      41.548  29.670  33.238  1.00  0.00    -0.248 NA
ATOM     89  C   UNL A   1      42.390  28.083  31.746  1.00  0.00    -0.034 C 
ATOM     90  C   UNL A   1      43.354  30.619  37.179  1.00  0.00    -0.036 A 
ATOM     91  H   UNL A   1      42.706  32.028  38.699  1.00  0.00     0.065 H 
ATOM     92  C   UNL A   1      42.826  30.315  35.934  1.00  0.00     0.049 A 
ATOM     93  H   UNL A   1      41.159  31.166  34.955  1.00  0.00     0.167 HD
ATOM     94  C   UNL A   1      42.677  29.080  33.791  1.00  0.00     0.074 A 
ATOM     95  C   UNL A   1      43.137  28.087  32.841  1.00  0.00    -0.034 C 
ATOM     96  H   UNL A   1      42.494  27.519  30.887  1.00  0.00     0.065 H 
ATOM     97  H   UNL A   1      44.184  30.179  37.605  1.00  0.00     0.065 H 
ATOM     98  C   UNL A   1      43.278  29.338  34.977  1.00  0.00     0.037 A 
ATOM     99  H   UNL A   1      43.942  27.463  32.997  1.00  0.00     0.065 H 
BRANCH  80 100
ATOM    100  C   UNL A   1      40.598  33.870  38.207  1.00  0.00     0.064 A 
ATOM    101  C   UNL A   1      41.389  35.027  38.251  1.00  0.00     0.173 A 
ATOM    102  C   UNL A   1      39.807  33.572  39.327  1.00  0.00     0.173 A 
ATOM    103  F   UNL A   1      42.170  35.352  37.210  1.00  0.00    -0.203 F 
ATOM    104  C   UNL A   1      41.412  35.836  39.385  1.00  0.00     0.198 A 
ATOM    105  C   UNL A   1      39.812  34.397  40.448  1.00  0.00     0.198 A 
ATOM    106  F   UNL A   1      39.027  32.481  39.334  1.00  0.00    -0.203 F 
ATOM    107  F   UNL A   1      42.214  36.910  39.423  1.00  0.00    -0.200 F 
ATOM    108  C   UNL A   1      40.620  35.524  40.479  1.00  0.00     0.200 A 
ATOM    109  F   UNL A   1      39.037  34.101  41.501  1.00  0.00    -0.200 F 
ATOM    110  F   UNL A   1      40.643  36.305  41.568  1.00  0.00    -0.200 F 
ENDBRANCH  80 100
BRANCH  83 111
ATOM    111  C   UNL A   1      40.249  28.523  29.805  1.00  0.00     0.064 A 
ATOM    112  C   UNL A   1      40.908  28.966  28.649  1.00  0.00     0.173 A 
ATOM    113  C   UNL A   1      39.557  27.306  29.739  1.00  0.00     0.173 A 
ATOM    114  F   UNL A   1      41.564  30.135  28.660  1.00  0.00    -0.203 F 
ATOM    115  C   UNL A   1      40.868  28.225  27.471  1.00  0.00     0.198 A 
ATOM    116  C   UNL A   1      39.538  26.554  28.566  1.00  0.00     0.198 A 
ATOM    117  F   UNL A   1      38.913  26.840  30.818  1.00  0.00    -0.203 F 
ATOM    118  F   UNL A   1      41.478  28.687  26.370  1.00  0.00    -0.200 F 
ATOM    119  C   UNL A   1      40.188  27.017  27.432  1.00  0.00     0.200 A 
ATOM    120  F   UNL A   1      38.889  25.382  28.534  1.00  0.00    -0.200 F 
ATOM    121  F   UNL A   1      40.156  26.301  26.299  1.00  0.00    -0.200 F 
ENDBRANCH  83 111
BRANCH  98 122
ATOM    122  C   UNL A   1      44.491  28.524  35.318  1.00  0.00     0.064 A 
ATOM    123  C   UNL A   1      45.783  28.956  34.981  1.00  0.00     0.173 A 
ATOM    124  C   UNL A   1      44.363  27.304  36.000  1.00  0.00     0.173 A 
ATOM    125  F   UNL A   1      45.956  30.106  34.314  1.00  0.00    -0.203 F 
ATOM    126  C   UNL A   1      46.898  28.183  35.289  1.00  0.00     0.198 A 
ATOM    127  C   UNL A   1      45.483  26.547  36.330  1.00  0.00     0.198 A 
ATOM    128  F   UNL A   1      43.150  26.848  36.348  1.00  0.00    -0.203 F 
ATOM    129  F   UNL A   1      48.118  28.590  34.912  1.00  0.00    -0.200 F 
ATOM    130  C   UNL A   1      46.749  26.982  35.968  1.00  0.00     0.200 A 
ATOM    131  F   UNL A   1      45.338  25.392  36.994  1.00  0.00    -0.200 F 
ATOM    132  F   UNL A   1      47.825  26.239  36.262  1.00  0.00    -0.200 F 
ENDBRANCH  98 122
ENDBRANCH  63  66
ENDBRANCH  53  56
ENDBRANCH  49  52
ENDBRANCH  46  49
ENDBRANCH  43  46
ENDBRANCH  40  43
ENDBRANCH  37  40
ENDBRANCH   1  37
TORSDOF 19
ENDMDL
MODEL 7
REMARK VINA RESULT:     -10.5      4.243      7.664
REMARK SMILES O=C(CNC(=O)CNC(=O)OCc1ccccc1)NCCCCCCNC(=O)c1ccc(-c2c3nc(c(-c4c(F)c(F)c(F)c(F)c4F)c4ccc([nH]4)c(-c4c(F)c(F)c(F)c(F)c4F)c4nc(c(-c5c(F)c(F)c(F)c(F)c5F)c5ccc2[nH]5)C=C4)C=C3)cc1
REMARK SMILES IDX 20 1 19 4 1 5 2 6 3 8 4 11 5 12 6 14 7 15 8 18 9 19 10 21
REMARK SMILES IDX 11 22 12 23 13 26 14 27 18 28 15 29 17 31 16 33 21 37 22 40
REMARK SMILES IDX 23 43 24 46 25 49 26 52 27 53 28 55 29 56 30 57 91 58 31 59
REMARK SMILES IDX 90 61 32 63 33 66 34 67 84 68 35 69 89 70 83 71 85 72 36 73
REMARK SMILES IDX 88 74 82 76 81 78 37 80 69 83 49 84 68 85 50 86 53 87 67 88
REMARK SMILES IDX 86 89 51 90 52 92 66 94 87 95 54 98 38 100 39 101 47 102
REMARK SMILES IDX 40 103 41 104 45 105 48 106 42 107 43 108 46 109 44 110
REMARK SMILES IDX 70 111 71 112 79 113 72 114 73 115 77 116 80 117 74 118
REMARK SMILES IDX 75 119 78 120 76 121 55 122 56 123 64 124 57 125 58 126
REMARK SMILES IDX 62 127 65 128 59 129 60 130 63 131 61 132
REMARK H PARENT 20 2 20 3 19 7 3 9 3 10 4 13 7 16 7 17 8 20 12 24 12 25 14 30
REMARK H PARENT 18 32 15 34 17 35 16 36 21 38 21 39 22 41 22 42 23 44 23 45
REMARK H PARENT 24 47 24 48 25 50 25 51 26 54 30 60 91 62 31 64 90 65 89 75
REMARK H PARENT 83 77 85 79 88 81 82 82 50 91 53 93 86 96 51 97 87 99
REMARK Flexibility Score: inf
ROOT
ATOM      1  C   UNL A   1      36.653  33.102  35.692  1.00  0.00     0.017 C 
ATOM      2  H   UNL A   1      36.707  33.571  36.653  1.00  0.00     0.049 H 
ATOM      3  H   UNL A   1      35.786  32.485  35.592  1.00  0.00     0.049 H 
ENDROOT
BRANCH   1   4
ATOM      4  N   UNL A   1      37.812  32.244  35.533  1.00  0.00    -0.355 N 
ATOM      5  O   UNL A   1      37.039  31.134  33.678  1.00  0.00    -0.273 OA
ATOM      6  C   UNL A   1      37.929  31.342  34.498  1.00  0.00     0.239 C 
ATOM      7  H   UNL A   1      38.542  32.309  36.189  1.00  0.00     0.163 HD
BRANCH   6   8
ATOM      8  C   UNL A   1      39.234  30.530  34.471  1.00  0.00     0.097 C 
ATOM      9  H   UNL A   1      39.674  30.640  33.502  1.00  0.00     0.059 H 
ATOM     10  H   UNL A   1      38.965  29.520  34.700  1.00  0.00     0.059 H 
BRANCH   8  11
ATOM     11  N   UNL A   1      40.224  30.926  35.467  1.00  0.00    -0.346 N 
ATOM     12  C   UNL A   1      41.287  30.224  35.955  1.00  0.00     0.239 C 
ATOM     13  H   UNL A   1      40.107  31.831  35.840  1.00  0.00     0.164 HD
ATOM     14  O   UNL A   1      41.998  30.762  36.806  1.00  0.00    -0.273 OA
BRANCH  12  15
ATOM     15  C   UNL A   1      41.525  28.780  35.512  1.00  0.00     0.100 C 
ATOM     16  H   UNL A   1      42.556  28.636  35.268  1.00  0.00     0.060 H 
ATOM     17  H   UNL A   1      40.945  28.548  34.644  1.00  0.00     0.060 H 
BRANCH  15  18
ATOM     18  N   UNL A   1      41.154  27.928  36.623  1.00  0.00    -0.312 N 
ATOM     19  C   UNL A   1      41.234  26.575  36.670  1.00  0.00     0.407 C 
ATOM     20  H   UNL A   1      40.808  28.378  37.427  1.00  0.00     0.167 HD
ATOM     21  O   UNL A   1      40.578  25.951  37.494  1.00  0.00    -0.225 OA
BRANCH  19  22
ATOM     22  O   UNL A   1      42.049  26.036  35.737  1.00  0.00    -0.445 OA
BRANCH  22  23
ATOM     23  C   UNL A   1      41.866  24.628  35.501  1.00  0.00     0.118 C 
ATOM     24  H   UNL A   1      41.341  24.507  34.577  1.00  0.00     0.076 H 
ATOM     25  H   UNL A   1      41.318  24.240  36.334  1.00  0.00     0.076 H 
BRANCH  23  26
ATOM     26  C   UNL A   1      43.163  23.852  35.422  1.00  0.00    -0.011 A 
ATOM     27  C   UNL A   1      44.173  24.042  36.375  1.00  0.00    -0.056 A 
ATOM     28  C   UNL A   1      43.403  22.956  34.369  1.00  0.00    -0.056 A 
ATOM     29  C   UNL A   1      45.387  23.355  36.269  1.00  0.00    -0.062 A 
ATOM     30  H   UNL A   1      44.021  24.693  37.161  1.00  0.00     0.063 H 
ATOM     31  C   UNL A   1      44.604  22.255  34.276  1.00  0.00    -0.062 A 
ATOM     32  H   UNL A   1      42.675  22.813  33.650  1.00  0.00     0.063 H 
ATOM     33  C   UNL A   1      45.600  22.458  35.224  1.00  0.00    -0.062 A 
ATOM     34  H   UNL A   1      46.129  23.513  36.970  1.00  0.00     0.062 H 
ATOM     35  H   UNL A   1      44.755  21.586  33.504  1.00  0.00     0.062 H 
ATOM     36  H   UNL A   1      46.494  21.948  35.154  1.00  0.00     0.062 H 
ENDBRANCH  23  26
ENDBRANCH  22  23
ENDBRANCH  19  22
ENDBRANCH  15  18
ENDBRANCH  12  15
ENDBRANCH   8  11
ENDBRANCH   6   8
ENDBRANCH   1   4
BRANCH   1  37
ATOM     37  C   UNL A   1      36.554  34.194  34.625  1.00  0.00    -0.036 C 
ATOM     38  H   UNL A   1      37.097  33.865  33.764  1.00  0.00     0.028 H 
ATOM     39  H   UNL A   1      36.956  35.081  35.069  1.00  0.00     0.028 H 
BRANCH  37  40
ATOM     40  C   UNL A   1      35.128  34.545  34.184  1.00  0.00    -0.052 C 
ATOM     41  H   UNL A   1      34.569  34.797  35.061  1.00  0.00     0.027 H 
ATOM     42  H   UNL A   1      34.771  33.682  33.663  1.00  0.00     0.027 H 
BRANCH  40  43
ATOM     43  C   UNL A   1      34.989  35.704  33.195  1.00  0.00    -0.052 C 
ATOM     44  H   UNL A   1      35.710  35.561  32.418  1.00  0.00     0.027 H 
ATOM     45  H   UNL A   1      35.136  36.594  33.770  1.00  0.00     0.027 H 
BRANCH  43  46
ATOM     46  C   UNL A   1      33.618  35.858  32.539  1.00  0.00    -0.036 C 
ATOM     47  H   UNL A   1      32.969  36.339  33.241  1.00  0.00     0.028 H 
ATOM     48  H   UNL A   1      33.309  34.869  32.271  1.00  0.00     0.028 H 
BRANCH  46  49
ATOM     49  C   UNL A   1      33.591  36.668  31.245  1.00  0.00     0.018 C 
ATOM     50  H   UNL A   1      34.600  36.838  30.928  1.00  0.00     0.049 H 
ATOM     51  H   UNL A   1      33.076  37.583  31.449  1.00  0.00     0.049 H 
BRANCH  49  52
ATOM     52  N   UNL A   1      32.876  35.998  30.170  1.00  0.00    -0.352 N 
ATOM     53  C   UNL A   1      33.239  34.928  29.391  1.00  0.00     0.251 C 
ATOM     54  H   UNL A   1      31.987  36.373  29.968  1.00  0.00     0.163 HD
ATOM     55  O   UNL A   1      32.535  34.600  28.438  1.00  0.00    -0.269 OA
BRANCH  53  56
ATOM     56  C   UNL A   1      34.487  34.177  29.662  1.00  0.00     0.039 A 
ATOM     57  C   UNL A   1      35.633  34.500  28.926  1.00  0.00    -0.049 A 
ATOM     58  C   UNL A   1      34.538  33.147  30.604  1.00  0.00    -0.049 A 
ATOM     59  C   UNL A   1      36.838  33.843  29.184  1.00  0.00    -0.053 A 
ATOM     60  H   UNL A   1      35.587  35.224  28.192  1.00  0.00     0.063 H 
ATOM     61  C   UNL A   1      35.755  32.536  30.908  1.00  0.00    -0.053 A 
ATOM     62  H   UNL A   1      33.673  32.836  31.075  1.00  0.00     0.063 H 
ATOM     63  C   UNL A   1      36.919  32.882  30.205  1.00  0.00    -0.014 A 
ATOM     64  H   UNL A   1      37.674  34.065  28.622  1.00  0.00     0.063 H 
ATOM     65  H   UNL A   1      35.800  31.826  31.655  1.00  0.00     0.063 H 
BRANCH  63  66
ATOM     66  C   UNL A   1      38.221  32.262  30.562  1.00  0.00     0.031 A 
ATOM     67  C   UNL A   1      39.148  32.925  31.541  1.00  0.00     0.074 A 
ATOM     68  C   UNL A   1      38.592  31.116  29.959  1.00  0.00     0.049 A 
ATOM     69  N   UNL A   1      40.323  32.529  31.966  1.00  0.00    -0.248 NA
ATOM     70  C   UNL A   1      38.712  34.213  32.098  1.00  0.00    -0.034 C 
ATOM     71  C   UNL A   1      37.810  30.404  28.947  1.00  0.00    -0.036 A 
ATOM     72  N   UNL A   1      39.722  30.350  30.106  1.00  0.00    -0.354 N 
ATOM     73  C   UNL A   1      40.771  33.522  32.826  1.00  0.00     0.074 A 
ATOM     74  C   UNL A   1      39.762  34.561  32.829  1.00  0.00    -0.034 C 
ATOM     75  H   UNL A   1      37.822  34.715  31.958  1.00  0.00     0.065 H 
ATOM     76  C   UNL A   1      38.466  29.289  28.589  1.00  0.00    -0.036 A 
ATOM     77  H   UNL A   1      36.900  30.710  28.569  1.00  0.00     0.065 H 
ATOM     78  C   UNL A   1      39.726  29.222  29.323  1.00  0.00     0.049 A 
ATOM     79  H   UNL A   1      40.458  30.587  30.715  1.00  0.00     0.167 HD
ATOM     80  C   UNL A   1      41.908  33.555  33.562  1.00  0.00     0.037 A 
ATOM     81  H   UNL A   1      39.850  35.457  33.333  1.00  0.00     0.065 H 
ATOM     82  H   UNL A   1      38.134  28.593  27.905  1.00  0.00     0.065 H 
ATOM     83  C   UNL A   1      40.640  28.240  29.214  1.00  0.00     0.037 A 
ATOM     84  C   UNL A   1      42.897  32.508  33.582  1.00  0.00     0.049 A 
ATOM     85  C   UNL A   1      41.887  28.295  30.052  1.00  0.00     0.074 A 
ATOM     86  C   UNL A   1      44.036  32.411  34.361  1.00  0.00    -0.036 A 
ATOM     87  N   UNL A   1      42.866  31.379  32.777  1.00  0.00    -0.354 N 
ATOM     88  N   UNL A   1      42.256  29.195  30.928  1.00  0.00    -0.248 NA
ATOM     89  C   UNL A   1      42.840  27.188  29.887  1.00  0.00    -0.034 C 
ATOM     90  C   UNL A   1      44.719  31.244  33.997  1.00  0.00    -0.036 A 
ATOM     91  H   UNL A   1      44.332  33.084  35.086  1.00  0.00     0.065 H 
ATOM     92  C   UNL A   1      43.983  30.592  33.022  1.00  0.00     0.049 A 
ATOM     93  H   UNL A   1      42.157  31.167  32.128  1.00  0.00     0.167 HD
ATOM     94  C   UNL A   1      43.473  28.758  31.434  1.00  0.00     0.074 A 
ATOM     95  C   UNL A   1      43.769  27.501  30.780  1.00  0.00    -0.034 C 
ATOM     96  H   UNL A   1      42.798  26.381  29.245  1.00  0.00     0.065 H 
ATOM     97  H   UNL A   1      45.617  30.924  34.390  1.00  0.00     0.065 H 
ATOM     98  C   UNL A   1      44.271  29.347  32.357  1.00  0.00     0.037 A 
ATOM     99  H   UNL A   1      44.598  26.921  30.982  1.00  0.00     0.065 H 
BRANCH  80 100
ATOM    100  C   UNL A   1      42.145  34.770  34.412  1.00  0.00     0.064 A 
ATOM    101  C   UNL A   1      41.699  34.837  35.740  1.00  0.00     0.173 A 
ATOM    102  C   UNL A   1      42.854  35.868  33.901  1.00  0.00     0.173 A 
ATOM    103  F   UNL A   1      41.009  33.818  36.273  1.00  0.00    -0.203 F 
ATOM    104  C   UNL A   1      41.926  35.972  36.516  1.00  0.00     0.198 A 
ATOM    105  C   UNL A   1      43.102  36.990  34.688  1.00  0.00     0.198 A 
ATOM    106  F   UNL A   1      43.309  35.852  32.640  1.00  0.00    -0.203 F 
ATOM    107  F   UNL A   1      41.446  36.033  37.766  1.00  0.00    -0.200 F 
ATOM    108  C   UNL A   1      42.631  37.044  35.991  1.00  0.00     0.200 A 
ATOM    109  F   UNL A   1      43.794  38.021  34.184  1.00  0.00    -0.200 F 
ATOM    110  F   UNL A   1      42.850  38.134  36.740  1.00  0.00    -0.200 F 
ENDBRANCH  80 100
BRANCH  83 111
ATOM    111  C   UNL A   1      40.384  27.094  28.306  1.00  0.00     0.064 A 
ATOM    112  C   UNL A   1      41.008  27.022  27.053  1.00  0.00     0.173 A 
ATOM    113  C   UNL A   1      39.522  26.050  28.669  1.00  0.00     0.173 A 
ATOM    114  F   UNL A   1      41.823  28.010  26.654  1.00  0.00    -0.203 F 
ATOM    115  C   UNL A   1      40.772  25.953  26.192  1.00  0.00     0.198 A 
ATOM    116  C   UNL A   1      39.305  24.969  27.817  1.00  0.00     0.198 A 
ATOM    117  F   UNL A   1      38.904  26.072  29.859  1.00  0.00    -0.203 F 
ATOM    118  F   UNL A   1      41.355  25.926  24.985  1.00  0.00    -0.200 F 
ATOM    119  C   UNL A   1      39.925  24.925  26.578  1.00  0.00     0.200 A 
ATOM    120  F   UNL A   1      38.495  23.971  28.197  1.00  0.00    -0.200 F 
ATOM    121  F   UNL A   1      39.704  23.893  25.752  1.00  0.00    -0.200 F 
ENDBRANCH  83 111
BRANCH  98 122
ATOM    122  C   UNL A   1      45.536  28.627  32.722  1.00  0.00     0.064 A 
ATOM    123  C   UNL A   1      45.561  27.657  33.734  1.00  0.00     0.173 A 
ATOM    124  C   UNL A   1      46.733  28.900  32.044  1.00  0.00     0.173 A 
ATOM    125  F   UNL A   1      44.446  27.372  34.424  1.00  0.00    -0.203 F 
ATOM    126  C   UNL A   1      46.744  27.007  34.073  1.00  0.00     0.198 A 
ATOM    127  C   UNL A   1      47.909  28.230  32.367  1.00  0.00     0.198 A 
ATOM    128  F   UNL A   1      46.762  29.818  31.065  1.00  0.00    -0.203 F 
ATOM    129  F   UNL A   1      46.756  26.121  35.079  1.00  0.00    -0.200 F 
ATOM    130  C   UNL A   1      47.916  27.289  33.387  1.00  0.00     0.200 A 
ATOM    131  F   UNL A   1      49.038  28.497  31.696  1.00  0.00    -0.200 F 
ATOM    132  F   UNL A   1      49.055  26.664  33.716  1.00  0.00    -0.200 F 
ENDBRANCH  98 122
ENDBRANCH  63  66
ENDBRANCH  53  56
ENDBRANCH  49  52
ENDBRANCH  46  49
ENDBRANCH  43  46
ENDBRANCH  40  43
ENDBRANCH  37  40
ENDBRANCH   1  37
TORSDOF 19
ENDMDL
MODEL 8
REMARK VINA RESULT:     -10.5      4.170      6.809
REMARK SMILES O=C(CNC(=O)CNC(=O)OCc1ccccc1)NCCCCCCNC(=O)c1ccc(-c2c3nc(c(-c4c(F)c(F)c(F)c(F)c4F)c4ccc([nH]4)c(-c4c(F)c(F)c(F)c(F)c4F)c4nc(c(-c5c(F)c(F)c(F)c(F)c5F)c5ccc2[nH]5)C=C4)C=C3)cc1
REMARK SMILES IDX 20 1 19 4 1 5 2 6 3 8 4 11 5 12 6 14 7 15 8 18 9 19 10 21
REMARK SMILES IDX 11 22 12 23 13 26 14 27 18 28 15 29 17 31 16 33 21 37 22 40
REMARK SMILES IDX 23 43 24 46 25 49 26 52 27 53 28 55 29 56 30 57 91 58 31 59
REMARK SMILES IDX 90 61 32 63 33 66 34 67 84 68 35 69 89 70 83 71 85 72 36 73
REMARK SMILES IDX 88 74 82 76 81 78 37 80 69 83 49 84 68 85 50 86 53 87 67 88
REMARK SMILES IDX 86 89 51 90 52 92 66 94 87 95 54 98 38 100 39 101 47 102
REMARK SMILES IDX 40 103 41 104 45 105 48 106 42 107 43 108 46 109 44 110
REMARK SMILES IDX 70 111 71 112 79 113 72 114 73 115 77 116 80 117 74 118
REMARK SMILES IDX 75 119 78 120 76 121 55 122 56 123 64 124 57 125 58 126
REMARK SMILES IDX 62 127 65 128 59 129 60 130 63 131 61 132
REMARK H PARENT 20 2 20 3 19 7 3 9 3 10 4 13 7 16 7 17 8 20 12 24 12 25 14 30
REMARK H PARENT 18 32 15 34 17 35 16 36 21 38 21 39 22 41 22 42 23 44 23 45
REMARK H PARENT 24 47 24 48 25 50 25 51 26 54 30 60 91 62 31 64 90 65 89 75
REMARK H PARENT 83 77 85 79 88 81 82 82 50 91 53 93 86 96 51 97 87 99
REMARK Flexibility Score: inf
ROOT
ATOM      1  C   UNL A   1      32.638  25.980  21.825  1.00  0.00     0.017 C 
ATOM      2  H   UNL A   1      31.746  26.494  21.533  1.00  0.00     0.049 H 
ATOM      3  H   UNL A   1      33.212  25.657  20.982  1.00  0.00     0.049 H 
ENDROOT
BRANCH   1   4
ATOM      4  N   UNL A   1      32.263  24.793  22.569  1.00  0.00    -0.355 N 
ATOM      5  O   UNL A   1      33.671  23.357  21.464  1.00  0.00    -0.273 OA
ATOM      6  C   UNL A   1      32.847  23.565  22.351  1.00  0.00     0.239 C 
ATOM      7  H   UNL A   1      31.563  24.868  23.257  1.00  0.00     0.163 HD
BRANCH   6   8
ATOM      8  C   UNL A   1      32.343  22.421  23.246  1.00  0.00     0.097 C 
ATOM      9  H   UNL A   1      32.707  21.499  22.843  1.00  0.00     0.059 H 
ATOM     10  H   UNL A   1      31.275  22.489  23.247  1.00  0.00     0.059 H 
BRANCH   8  11
ATOM     11  N   UNL A   1      32.761  22.505  24.641  1.00  0.00    -0.346 N 
ATOM     12  C   UNL A   1      32.012  22.752  25.754  1.00  0.00     0.239 C 
ATOM     13  H   UNL A   1      33.723  22.362  24.802  1.00  0.00     0.164 HD
ATOM     14  O   UNL A   1      32.583  22.781  26.846  1.00  0.00    -0.273 OA
BRANCH  12  15
ATOM     15  C   UNL A   1      30.521  23.070  25.623  1.00  0.00     0.100 C 
ATOM     16  H   UNL A   1      29.938  22.253  25.994  1.00  0.00     0.060 H 
ATOM     17  H   UNL A   1      30.254  23.228  24.600  1.00  0.00     0.060 H 
BRANCH  15  18
ATOM     18  N   UNL A   1      30.269  24.258  26.412  1.00  0.00    -0.312 N 
ATOM     19  C   UNL A   1      30.207  25.535  25.957  1.00  0.00     0.407 C 
ATOM     20  H   UNL A   1      30.128  24.126  27.377  1.00  0.00     0.167 HD
ATOM     21  O   UNL A   1      30.343  26.469  26.737  1.00  0.00    -0.225 OA
BRANCH  19  22
ATOM     22  O   UNL A   1      30.021  25.639  24.623  1.00  0.00    -0.445 OA
BRANCH  22  23
ATOM     23  C   UNL A   1      28.817  26.320  24.223  1.00  0.00     0.118 C 
ATOM     24  H   UNL A   1      28.226  26.499  25.096  1.00  0.00     0.076 H 
ATOM     25  H   UNL A   1      28.320  25.688  23.517  1.00  0.00     0.076 H 
BRANCH  23  26
ATOM     26  C   UNL A   1      29.069  27.643  23.535  1.00  0.00    -0.011 A 
ATOM     27  C   UNL A   1      28.025  28.338  22.909  1.00  0.00    -0.056 A 
ATOM     28  C   UNL A   1      30.361  28.186  23.469  1.00  0.00    -0.056 A 
ATOM     29  C   UNL A   1      28.274  29.539  22.236  1.00  0.00    -0.062 A 
ATOM     30  H   UNL A   1      27.065  27.962  22.946  1.00  0.00     0.063 H 
ATOM     31  C   UNL A   1      30.606  29.394  22.816  1.00  0.00    -0.062 A 
ATOM     32  H   UNL A   1      31.146  27.682  23.912  1.00  0.00     0.063 H 
ATOM     33  C   UNL A   1      29.562  30.069  22.194  1.00  0.00    -0.062 A 
ATOM     34  H   UNL A   1      27.499  30.035  21.767  1.00  0.00     0.062 H 
ATOM     35  H   UNL A   1      31.561  29.786  22.794  1.00  0.00     0.062 H 
ATOM     36  H   UNL A   1      29.740  30.959  21.702  1.00  0.00     0.062 H 
ENDBRANCH  23  26
ENDBRANCH  22  23
ENDBRANCH  19  22
ENDBRANCH  15  18
ENDBRANCH  12  15
ENDBRANCH   8  11
ENDBRANCH   6   8
ENDBRANCH   1   4
BRANCH   1  37
ATOM     37  C   UNL A   1      33.515  26.946  22.624  1.00  0.00    -0.036 C 
ATOM     38  H   UNL A   1      32.932  27.813  22.851  1.00  0.00     0.028 H 
ATOM     39  H   UNL A   1      34.366  27.154  22.009  1.00  0.00     0.028 H 
BRANCH  37  40
ATOM     40  C   UNL A   1      34.067  26.385  23.940  1.00  0.00    -0.052 C 
ATOM     41  H   UNL A   1      35.109  26.626  23.986  1.00  0.00     0.027 H 
ATOM     42  H   UNL A   1      33.855  25.337  23.914  1.00  0.00     0.027 H 
BRANCH  40  43
ATOM     43  C   UNL A   1      33.415  26.901  25.224  1.00  0.00    -0.052 C 
ATOM     44  H   UNL A   1      33.500  26.134  25.966  1.00  0.00     0.027 H 
ATOM     45  H   UNL A   1      32.406  27.142  24.960  1.00  0.00     0.027 H 
BRANCH  43  46
ATOM     46  C   UNL A   1      34.008  28.183  25.805  1.00  0.00    -0.036 C 
ATOM     47  H   UNL A   1      33.631  29.007  25.236  1.00  0.00     0.028 H 
ATOM     48  H   UNL A   1      35.070  28.067  25.746  1.00  0.00     0.028 H 
BRANCH  46  49
ATOM     49  C   UNL A   1      33.698  28.448  27.276  1.00  0.00     0.018 C 
ATOM     50  H   UNL A   1      34.455  27.984  27.874  1.00  0.00     0.049 H 
ATOM     51  H   UNL A   1      32.728  28.047  27.477  1.00  0.00     0.049 H 
BRANCH  49  52
ATOM     52  N   UNL A   1      33.657  29.866  27.602  1.00  0.00    -0.352 N 
ATOM     53  C   UNL A   1      34.604  30.673  28.183  1.00  0.00     0.251 C 
ATOM     54  H   UNL A   1      32.815  30.320  27.367  1.00  0.00     0.163 HD
ATOM     55  O   UNL A   1      34.314  31.826  28.494  1.00  0.00    -0.269 OA
BRANCH  53  56
ATOM     56  C   UNL A   1      35.965  30.165  28.471  1.00  0.00     0.039 A 
ATOM     57  C   UNL A   1      36.926  30.221  27.455  1.00  0.00    -0.049 A 
ATOM     58  C   UNL A   1      36.298  29.611  29.710  1.00  0.00    -0.049 A 
ATOM     59  C   UNL A   1      38.232  29.791  27.704  1.00  0.00    -0.053 A 
ATOM     60  H   UNL A   1      36.671  30.580  26.522  1.00  0.00     0.063 H 
ATOM     61  C   UNL A   1      37.617  29.243  29.979  1.00  0.00    -0.053 A 
ATOM     62  H   UNL A   1      35.568  29.474  30.426  1.00  0.00     0.063 H 
ATOM     63  C   UNL A   1      38.598  29.334  28.980  1.00  0.00    -0.014 A 
ATOM     64  H   UNL A   1      38.931  29.810  26.946  1.00  0.00     0.063 H 
ATOM     65  H   UNL A   1      37.873  28.902  30.918  1.00  0.00     0.063 H 
BRANCH  63  66
ATOM     66  C   UNL A   1      40.010  28.983  29.284  1.00  0.00     0.031 A 
ATOM     67  C   UNL A   1      40.876  29.904  30.097  1.00  0.00     0.074 A 
ATOM     68  C   UNL A   1      40.530  27.848  28.779  1.00  0.00     0.049 A 
ATOM     69  N   UNL A   1      42.128  29.760  30.456  1.00  0.00    -0.248 NA
ATOM     70  C   UNL A   1      40.264  31.162  30.547  1.00  0.00    -0.034 C 
ATOM     71  C   UNL A   1      39.813  26.899  27.926  1.00  0.00    -0.036 A 
ATOM     72  N   UNL A   1      41.782  27.301  28.906  1.00  0.00    -0.354 N 
ATOM     73  C   UNL A   1      42.457  30.911  31.158  1.00  0.00     0.074 A 
ATOM     74  C   UNL A   1      41.287  31.764  31.138  1.00  0.00    -0.034 C 
ATOM     75  H   UNL A   1      39.293  31.491  30.434  1.00  0.00     0.065 H 
ATOM     76  C   UNL A   1      40.625  25.871  27.634  1.00  0.00    -0.036 A 
ATOM     77  H   UNL A   1      38.839  27.004  27.600  1.00  0.00     0.065 H 
ATOM     78  C   UNL A   1      41.926  26.101  28.254  1.00  0.00     0.049 A 
ATOM     79  H   UNL A   1      42.508  27.728  29.417  1.00  0.00     0.167 HD
ATOM     80  C   UNL A   1      43.620  31.219  31.780  1.00  0.00     0.037 A 
ATOM     81  H   UNL A   1      41.254  32.717  31.531  1.00  0.00     0.065 H 
ATOM     82  H   UNL A   1      40.370  25.051  27.062  1.00  0.00     0.065 H 
ATOM     83  C   UNL A   1      42.986  25.275  28.171  1.00  0.00     0.037 A 
ATOM     84  C   UNL A   1      44.774  30.359  31.825  1.00  0.00     0.049 A 
ATOM     85  C   UNL A   1      44.260  25.635  28.882  1.00  0.00     0.074 A 
ATOM     86  C   UNL A   1      45.965  30.545  32.504  1.00  0.00    -0.036 A 
ATOM     87  N   UNL A   1      44.882  29.149  31.154  1.00  0.00    -0.354 N 
ATOM     88  N   UNL A   1      44.529  26.684  29.617  1.00  0.00    -0.248 NA
ATOM     89  C   UNL A   1      45.376  24.687  28.754  1.00  0.00    -0.034 C 
ATOM     90  C   UNL A   1      46.812  29.469  32.210  1.00  0.00    -0.036 A 
ATOM     91  H   UNL A   1      46.191  31.341  33.122  1.00  0.00     0.065 H 
ATOM     92  C   UNL A   1      46.132  28.591  31.382  1.00  0.00     0.049 A 
ATOM     93  H   UNL A   1      44.176  28.746  30.599  1.00  0.00     0.167 HD
ATOM     94  C   UNL A   1      45.835  26.518  30.057  1.00  0.00     0.074 A 
ATOM     95  C   UNL A   1      46.298  25.254  29.520  1.00  0.00    -0.034 C 
ATOM     96  H   UNL A   1      45.429  23.811  28.210  1.00  0.00     0.065 H 
ATOM     97  H   UNL A   1      47.777  29.350  32.553  1.00  0.00     0.065 H 
ATOM     98  C   UNL A   1      46.584  27.337  30.834  1.00  0.00     0.037 A 
ATOM     99  H   UNL A   1      47.227  24.847  29.709  1.00  0.00     0.065 H 
BRANCH  80 100
ATOM    100  C   UNL A   1      43.704  32.552  32.467  1.00  0.00     0.064 A 
ATOM    101  C   UNL A   1      43.335  32.711  33.811  1.00  0.00     0.173 A 
ATOM    102  C   UNL A   1      44.188  33.677  31.782  1.00  0.00     0.173 A 
ATOM    103  F   UNL A   1      42.858  31.669  34.508  1.00  0.00    -0.203 F 
ATOM    104  C   UNL A   1      43.417  33.954  34.434  1.00  0.00     0.198 A 
ATOM    105  C   UNL A   1      44.293  34.912  32.416  1.00  0.00     0.198 A 
ATOM    106  F   UNL A   1      44.561  33.578  30.497  1.00  0.00    -0.203 F 
ATOM    107  F   UNL A   1      43.011  34.093  35.705  1.00  0.00    -0.200 F 
ATOM    108  C   UNL A   1      43.900  35.051  33.738  1.00  0.00     0.200 A 
ATOM    109  F   UNL A   1      44.772  35.969  31.746  1.00  0.00    -0.200 F 
ATOM    110  F   UNL A   1      43.980  36.246  34.341  1.00  0.00    -0.200 F 
ENDBRANCH  80 100
BRANCH  83 111
ATOM    111  C   UNL A   1      42.868  24.000  27.420  1.00  0.00     0.064 A 
ATOM    112  C   UNL A   1      42.393  22.841  28.052  1.00  0.00     0.173 A 
ATOM    113  C   UNL A   1      43.215  23.912  26.066  1.00  0.00     0.173 A 
ATOM    114  F   UNL A   1      42.070  22.873  29.353  1.00  0.00    -0.203 F 
ATOM    115  C   UNL A   1      42.282  21.639  27.358  1.00  0.00     0.198 A 
ATOM    116  C   UNL A   1      43.081  22.715  25.367  1.00  0.00     0.198 A 
ATOM    117  F   UNL A   1      43.671  24.994  25.418  1.00  0.00    -0.203 F 
ATOM    118  F   UNL A   1      41.858  20.538  27.994  1.00  0.00    -0.200 F 
ATOM    119  C   UNL A   1      42.620  21.578  26.014  1.00  0.00     0.200 A 
ATOM    120  F   UNL A   1      43.397  22.662  24.065  1.00  0.00    -0.200 F 
ATOM    121  F   UNL A   1      42.506  20.423  25.345  1.00  0.00    -0.200 F 
ENDBRANCH  83 111
BRANCH  98 122
ATOM    122  C   UNL A   1      47.976  26.884  31.160  1.00  0.00     0.064 A 
ATOM    123  C   UNL A   1      48.234  26.029  32.242  1.00  0.00     0.173 A 
ATOM    124  C   UNL A   1      49.063  27.297  30.374  1.00  0.00     0.173 A 
ATOM    125  F   UNL A   1      47.231  25.621  33.033  1.00  0.00    -0.203 F 
ATOM    126  C   UNL A   1      49.533  25.628  32.542  1.00  0.00     0.198 A 
ATOM    127  C   UNL A   1      50.357  26.872  30.662  1.00  0.00     0.198 A 
ATOM    128  F   UNL A   1      48.869  28.111  29.326  1.00  0.00    -0.203 F 
ATOM    129  F   UNL A   1      49.762  24.854  33.612  1.00  0.00    -0.200 F 
ATOM    130  C   UNL A   1      50.592  26.045  31.750  1.00  0.00     0.200 A 
ATOM    131  F   UNL A   1      51.378  27.268  29.889  1.00  0.00    -0.200 F 
ATOM    132  F   UNL A   1      51.842  25.659  32.042  1.00  0.00    -0.200 F 
ENDBRANCH  98 122
ENDBRANCH  63  66
ENDBRANCH  53  56
ENDBRANCH  49  52
ENDBRANCH  46  49
ENDBRANCH  43  46
ENDBRANCH  40  43
ENDBRANCH  37  40
ENDBRANCH   1  37
TORSDOF 19
ENDMDL
MODEL 9
REMARK VINA RESULT:     -10.5      6.671     12.208
REMARK SMILES O=C(CNC(=O)CNC(=O)OCc1ccccc1)NCCCCCCNC(=O)c1ccc(-c2c3nc(c(-c4c(F)c(F)c(F)c(F)c4F)c4ccc([nH]4)c(-c4c(F)c(F)c(F)c(F)c4F)c4nc(c(-c5c(F)c(F)c(F)c(F)c5F)c5ccc2[nH]5)C=C4)C=C3)cc1
REMARK SMILES IDX 20 1 19 4 1 5 2 6 3 8 4 11 5 12 6 14 7 15 8 18 9 19 10 21
REMARK SMILES IDX 11 22 12 23 13 26 14 27 18 28 15 29 17 31 16 33 21 37 22 40
REMARK SMILES IDX 23 43 24 46 25 49 26 52 27 53 28 55 29 56 30 57 91 58 31 59
REMARK SMILES IDX 90 61 32 63 33 66 34 67 84 68 35 69 89 70 83 71 85 72 36 73
REMARK SMILES IDX 88 74 82 76 81 78 37 80 69 83 49 84 68 85 50 86 53 87 67 88
REMARK SMILES IDX 86 89 51 90 52 92 66 94 87 95 54 98 38 100 39 101 47 102
REMARK SMILES IDX 40 103 41 104 45 105 48 106 42 107 43 108 46 109 44 110
REMARK SMILES IDX 70 111 71 112 79 113 72 114 73 115 77 116 80 117 74 118
REMARK SMILES IDX 75 119 78 120 76 121 55 122 56 123 64 124 57 125 58 126
REMARK SMILES IDX 62 127 65 128 59 129 60 130 63 131 61 132
REMARK H PARENT 20 2 20 3 19 7 3 9 3 10 4 13 7 16 7 17 8 20 12 24 12 25 14 30
REMARK H PARENT 18 32 15 34 17 35 16 36 21 38 21 39 22 41 22 42 23 44 23 45
REMARK H PARENT 24 47 24 48 25 50 25 51 26 54 30 60 91 62 31 64 90 65 89 75
REMARK H PARENT 83 77 85 79 88 81 82 82 50 91 53 93 86 96 51 97 87 99
REMARK Flexibility Score: inf
ROOT
ATOM      1  C   UNL A   1      38.873  23.491  26.529  1.00  0.00     0.017 C 
ATOM      2  H   UNL A   1      38.795  23.991  27.472  1.00  0.00     0.049 H 
ATOM      3  H   UNL A   1      38.795  24.168  25.704  1.00  0.00     0.049 H 
ENDROOT
BRANCH   1   4
ATOM      4  N   UNL A   1      37.775  22.549  26.415  1.00  0.00    -0.355 N 
ATOM      5  O   UNL A   1      37.117  23.193  24.313  1.00  0.00    -0.273 OA
ATOM      6  C   UNL A   1      36.998  22.449  25.282  1.00  0.00     0.239 C 
ATOM      7  H   UNL A   1      37.578  21.958  27.178  1.00  0.00     0.163 HD
BRANCH   6   8
ATOM      8  C   UNL A   1      35.893  21.380  25.328  1.00  0.00     0.097 C 
ATOM      9  H   UNL A   1      35.588  21.262  26.347  1.00  0.00     0.059 H 
ATOM     10  H   UNL A   1      36.317  20.492  24.908  1.00  0.00     0.059 H 
BRANCH   8  11
ATOM     11  N   UNL A   1      34.710  21.688  24.532  1.00  0.00    -0.346 N 
ATOM     12  C   UNL A   1      33.525  22.239  24.923  1.00  0.00     0.239 C 
ATOM     13  H   UNL A   1      34.778  21.465  23.574  1.00  0.00     0.164 HD
ATOM     14  O   UNL A   1      32.652  22.407  24.069  1.00  0.00    -0.273 OA
BRANCH  12  15
ATOM     15  C   UNL A   1      33.271  22.552  26.398  1.00  0.00     0.100 C 
ATOM     16  H   UNL A   1      33.567  23.557  26.616  1.00  0.00     0.060 H 
ATOM     17  H   UNL A   1      33.836  21.898  27.028  1.00  0.00     0.060 H 
BRANCH  15  18
ATOM     18  N   UNL A   1      31.850  22.392  26.628  1.00  0.00    -0.312 N 
ATOM     19  C   UNL A   1      30.980  23.352  27.029  1.00  0.00     0.407 C 
ATOM     20  H   UNL A   1      31.478  21.493  26.478  1.00  0.00     0.167 HD
ATOM     21  O   UNL A   1      29.906  23.036  27.525  1.00  0.00    -0.225 OA
BRANCH  19  22
ATOM     22  O   UNL A   1      31.428  24.615  26.853  1.00  0.00    -0.445 OA
BRANCH  22  23
ATOM     23  C   UNL A   1      30.609  25.444  26.010  1.00  0.00     0.118 C 
ATOM     24  H   UNL A   1      29.600  25.391  26.363  1.00  0.00     0.076 H 
ATOM     25  H   UNL A   1      30.711  25.074  25.012  1.00  0.00     0.076 H 
BRANCH  23  26
ATOM     26  C   UNL A   1      31.034  26.897  25.991  1.00  0.00    -0.011 A 
ATOM     27  C   UNL A   1      31.077  27.617  24.790  1.00  0.00    -0.056 A 
ATOM     28  C   UNL A   1      31.438  27.545  27.169  1.00  0.00    -0.056 A 
ATOM     29  C   UNL A   1      31.515  28.946  24.773  1.00  0.00    -0.062 A 
ATOM     30  H   UNL A   1      30.783  27.165  23.910  1.00  0.00     0.063 H 
ATOM     31  C   UNL A   1      31.854  28.875  27.156  1.00  0.00    -0.062 A 
ATOM     32  H   UNL A   1      31.426  27.026  28.062  1.00  0.00     0.063 H 
ATOM     33  C   UNL A   1      31.898  29.576  25.957  1.00  0.00    -0.062 A 
ATOM     34  H   UNL A   1      31.555  29.462  23.880  1.00  0.00     0.062 H 
ATOM     35  H   UNL A   1      32.129  29.340  28.036  1.00  0.00     0.062 H 
ATOM     36  H   UNL A   1      32.213  30.558  25.941  1.00  0.00     0.062 H 
ENDBRANCH  23  26
ENDBRANCH  22  23
ENDBRANCH  19  22
ENDBRANCH  15  18
ENDBRANCH  12  15
ENDBRANCH   8  11
ENDBRANCH   6   8
ENDBRANCH   1   4
BRANCH   1  37
ATOM     37  C   UNL A   1      40.250  22.832  26.441  1.00  0.00    -0.036 C 
ATOM     38  H   UNL A   1      40.985  23.607  26.381  1.00  0.00     0.028 H 
ATOM     39  H   UNL A   1      40.224  22.200  25.578  1.00  0.00     0.028 H 
BRANCH  37  40
ATOM     40  C   UNL A   1      40.612  21.924  27.623  1.00  0.00    -0.052 C 
ATOM     41  H   UNL A   1      39.958  21.077  27.596  1.00  0.00     0.027 H 
ATOM     42  H   UNL A   1      40.508  22.536  28.495  1.00  0.00     0.027 H 
BRANCH  40  43
ATOM     43  C   UNL A   1      42.049  21.400  27.662  1.00  0.00    -0.052 C 
ATOM     44  H   UNL A   1      42.402  21.488  28.668  1.00  0.00     0.027 H 
ATOM     45  H   UNL A   1      42.592  21.992  26.955  1.00  0.00     0.027 H 
BRANCH  43  46
ATOM     46  C   UNL A   1      42.241  19.950  27.223  1.00  0.00    -0.036 C 
ATOM     47  H   UNL A   1      41.590  19.338  27.811  1.00  0.00     0.028 H 
ATOM     48  H   UNL A   1      43.280  19.737  27.364  1.00  0.00     0.028 H 
BRANCH  46  49
ATOM     49  C   UNL A   1      41.953  19.661  25.751  1.00  0.00     0.018 C 
ATOM     50  H   UNL A   1      41.677  20.577  25.271  1.00  0.00     0.049 H 
ATOM     51  H   UNL A   1      41.166  18.937  25.715  1.00  0.00     0.049 H 
BRANCH  49  52
ATOM     52  N   UNL A   1      43.095  19.097  25.048  1.00  0.00    -0.352 N 
ATOM     53  C   UNL A   1      44.276  19.678  24.659  1.00  0.00     0.251 C 
ATOM     54  H   UNL A   1      43.007  18.144  24.814  1.00  0.00     0.163 HD
ATOM     55  O   UNL A   1      45.060  19.050  23.951  1.00  0.00    -0.269 OA
BRANCH  53  56
ATOM     56  C   UNL A   1      44.609  21.066  25.055  1.00  0.00     0.039 A 
ATOM     57  C   UNL A   1      44.101  22.118  24.285  1.00  0.00    -0.049 A 
ATOM     58  C   UNL A   1      45.433  21.343  26.149  1.00  0.00    -0.049 A 
ATOM     59  C   UNL A   1      44.358  23.441  24.653  1.00  0.00    -0.053 A 
ATOM     60  H   UNL A   1      43.535  21.918  23.445  1.00  0.00     0.063 H 
ATOM     61  C   UNL A   1      45.635  22.663  26.554  1.00  0.00    -0.053 A 
ATOM     62  H   UNL A   1      45.892  20.571  26.656  1.00  0.00     0.063 H 
ATOM     63  C   UNL A   1      45.096  23.725  25.813  1.00  0.00    -0.014 A 
ATOM     64  H   UNL A   1      44.003  24.214  24.069  1.00  0.00     0.063 H 
ATOM     65  H   UNL A   1      46.186  22.859  27.405  1.00  0.00     0.063 H 
BRANCH  63  66
ATOM     66  C   UNL A   1      45.277  25.126  26.274  1.00  0.00     0.031 A 
ATOM     67  C   UNL A   1      46.618  25.798  26.191  1.00  0.00     0.074 A 
ATOM     68  C   UNL A   1      44.234  25.780  26.820  1.00  0.00     0.049 A 
ATOM     69  N   UNL A   1      46.960  27.012  26.550  1.00  0.00    -0.248 NA
ATOM     70  C   UNL A   1      47.729  24.996  25.660  1.00  0.00    -0.034 C 
ATOM     71  C   UNL A   1      42.895  25.220  27.012  1.00  0.00    -0.036 A 
ATOM     72  N   UNL A   1      44.135  27.057  27.315  1.00  0.00    -0.354 N 
ATOM     73  C   UNL A   1      48.321  27.113  26.301  1.00  0.00     0.074 A 
ATOM     74  C   UNL A   1      48.754  25.824  25.802  1.00  0.00    -0.034 C 
ATOM     75  H   UNL A   1      47.715  24.038  25.275  1.00  0.00     0.065 H 
ATOM     76  C   UNL A   1      42.101  26.158  27.553  1.00  0.00    -0.036 A 
ATOM     77  H   UNL A   1      42.607  24.259  26.772  1.00  0.00     0.065 H 
ATOM     78  C   UNL A   1      42.879  27.374  27.771  1.00  0.00     0.049 A 
ATOM     79  H   UNL A   1      44.892  27.685  27.340  1.00  0.00     0.167 HD
ATOM     80  C   UNL A   1      49.132  28.188  26.454  1.00  0.00     0.037 A 
ATOM     81  H   UNL A   1      49.734  25.581  25.589  1.00  0.00     0.065 H 
ATOM     82  H   UNL A   1      41.101  26.038  27.778  1.00  0.00     0.065 H 
ATOM     83  C   UNL A   1      42.405  28.517  28.299  1.00  0.00     0.037 A 
ATOM     84  C   UNL A   1      48.696  29.478  26.922  1.00  0.00     0.049 A 
ATOM     85  C   UNL A   1      43.323  29.699  28.445  1.00  0.00     0.074 A 
ATOM     86  C   UNL A   1      49.423  30.650  27.025  1.00  0.00    -0.036 A 
ATOM     87  N   UNL A   1      47.415  29.762  27.372  1.00  0.00    -0.354 N 
ATOM     88  N   UNL A   1      44.587  29.809  28.122  1.00  0.00    -0.248 NA
ATOM     89  C   UNL A   1      42.740  30.918  29.024  1.00  0.00    -0.034 C 
ATOM     90  C   UNL A   1      48.595  31.634  27.580  1.00  0.00    -0.036 A 
ATOM     91  H   UNL A   1      50.408  30.778  26.742  1.00  0.00     0.065 H 
ATOM     92  C   UNL A   1      47.339  31.086  27.781  1.00  0.00     0.049 A 
ATOM     93  H   UNL A   1      46.670  29.119  27.397  1.00  0.00     0.167 HD
ATOM     94  C   UNL A   1      44.949  31.111  28.439  1.00  0.00     0.074 A 
ATOM     95  C   UNL A   1      43.764  31.758  28.963  1.00  0.00    -0.034 C 
ATOM     96  H   UNL A   1      41.786  31.077  29.385  1.00  0.00     0.065 H 
ATOM     97  H   UNL A   1      48.873  32.603  27.799  1.00  0.00     0.065 H 
ATOM     98  C   UNL A   1      46.155  31.715  28.309  1.00  0.00     0.037 A 
ATOM     99  H   UNL A   1      43.721  32.748  29.251  1.00  0.00     0.065 H 
BRANCH  80 100
ATOM    100  C   UNL A   1      50.583  28.012  26.110  1.00  0.00     0.064 A 
ATOM    101  C   UNL A   1      51.040  28.092  24.786  1.00  0.00     0.173 A 
ATOM    102  C   UNL A   1      51.532  27.792  27.120  1.00  0.00     0.173 A 
ATOM    103  F   UNL A   1      50.172  28.291  23.783  1.00  0.00    -0.203 F 
ATOM    104  C   UNL A   1      52.389  27.926  24.482  1.00  0.00     0.198 A 
ATOM    105  C   UNL A   1      52.884  27.654  26.815  1.00  0.00     0.198 A 
ATOM    106  F   UNL A   1      51.149  27.715  28.403  1.00  0.00    -0.203 F 
ATOM    107  F   UNL A   1      52.795  27.955  23.205  1.00  0.00    -0.200 F 
ATOM    108  C   UNL A   1      53.310  27.712  25.497  1.00  0.00     0.200 A 
ATOM    109  F   UNL A   1      53.774  27.459  27.798  1.00  0.00    -0.200 F 
ATOM    110  F   UNL A   1      54.608  27.555  25.202  1.00  0.00    -0.200 F 
ENDBRANCH  80 100
BRANCH  83 111
ATOM    111  C   UNL A   1      40.975  28.613  28.684  1.00  0.00     0.064 A 
ATOM    112  C   UNL A   1      40.561  28.272  29.980  1.00  0.00     0.173 A 
ATOM    113  C   UNL A   1      40.000  29.051  27.778  1.00  0.00     0.173 A 
ATOM    114  F   UNL A   1      41.456  27.827  30.873  1.00  0.00    -0.203 F 
ATOM    115  C   UNL A   1      39.221  28.355  30.351  1.00  0.00     0.198 A 
ATOM    116  C   UNL A   1      38.663  29.156  28.158  1.00  0.00     0.198 A 
ATOM    117  F   UNL A   1      40.347  29.391  26.529  1.00  0.00    -0.203 F 
ATOM    118  F   UNL A   1      38.846  27.990  31.585  1.00  0.00    -0.200 F 
ATOM    119  C   UNL A   1      38.274  28.803  29.441  1.00  0.00     0.200 A 
ATOM    120  F   UNL A   1      37.752  29.600  27.281  1.00  0.00    -0.200 F 
ATOM    121  F   UNL A   1      36.986  28.889  29.801  1.00  0.00    -0.200 F 
ENDBRANCH  83 111
BRANCH  98 122
ATOM    122  C   UNL A   1      46.246  33.153  28.727  1.00  0.00     0.064 A 
ATOM    123  C   UNL A   1      46.605  33.514  30.035  1.00  0.00     0.173 A 
ATOM    124  C   UNL A   1      45.984  34.181  27.810  1.00  0.00     0.173 A 
ATOM    125  F   UNL A   1      46.848  32.568  30.953  1.00  0.00    -0.203 F 
ATOM    126  C   UNL A   1      46.670  34.852  30.414  1.00  0.00     0.198 A 
ATOM    127  C   UNL A   1      46.076  35.518  28.185  1.00  0.00     0.198 A 
ATOM    128  F   UNL A   1      45.640  33.888  26.546  1.00  0.00    -0.203 F 
ATOM    129  F   UNL A   1      46.964  35.173  31.682  1.00  0.00    -0.200 F 
ATOM    130  C   UNL A   1      46.412  35.853  29.489  1.00  0.00     0.200 A 
ATOM    131  F   UNL A   1      45.836  36.484  27.288  1.00  0.00    -0.200 F 
ATOM    132  F   UNL A   1      46.473  37.140  29.858  1.00  0.00    -0.200 F 
ENDBRANCH  98 122
ENDBRANCH  63  66
ENDBRANCH  53  56
ENDBRANCH  49  52
ENDBRANCH  46  49
ENDBRANCH  43  46
ENDBRANCH  40  43
ENDBRANCH  37  40
ENDBRANCH   1  37
TORSDOF 19
ENDMDL
MODEL 10
REMARK VINA RESULT:     -10.4      2.393      3.678
REMARK SMILES O=C(CNC(=O)CNC(=O)OCc1ccccc1)NCCCCCCNC(=O)c1ccc(-c2c3nc(c(-c4c(F)c(F)c(F)c(F)c4F)c4ccc([nH]4)c(-c4c(F)c(F)c(F)c(F)c4F)c4nc(c(-c5c(F)c(F)c(F)c(F)c5F)c5ccc2[nH]5)C=C4)C=C3)cc1
REMARK SMILES IDX 20 1 19 4 1 5 2 6 3 8 4 11 5 12 6 14 7 15 8 18 9 19 10 21
REMARK SMILES IDX 11 22 12 23 13 26 14 27 18 28 15 29 17 31 16 33 21 37 22 40
REMARK SMILES IDX 23 43 24 46 25 49 26 52 27 53 28 55 29 56 30 57 91 58 31 59
REMARK SMILES IDX 90 61 32 63 33 66 34 67 84 68 35 69 89 70 83 71 85 72 36 73
REMARK SMILES IDX 88 74 82 76 81 78 37 80 69 83 49 84 68 85 50 86 53 87 67 88
REMARK SMILES IDX 86 89 51 90 52 92 66 94 87 95 54 98 38 100 39 101 47 102
REMARK SMILES IDX 40 103 41 104 45 105 48 106 42 107 43 108 46 109 44 110
REMARK SMILES IDX 70 111 71 112 79 113 72 114 73 115 77 116 80 117 74 118
REMARK SMILES IDX 75 119 78 120 76 121 55 122 56 123 64 124 57 125 58 126
REMARK SMILES IDX 62 127 65 128 59 129 60 130 63 131 61 132
REMARK H PARENT 20 2 20 3 19 7 3 9 3 10 4 13 7 16 7 17 8 20 12 24 12 25 14 30
REMARK H PARENT 18 32 15 34 17 35 16 36 21 38 21 39 22 41 22 42 23 44 23 45
REMARK H PARENT 24 47 24 48 25 50 25 51 26 54 30 60 91 62 31 64 90 65 89 75
REMARK H PARENT 83 77 85 79 88 81 82 82 50 91 53 93 86 96 51 97 87 99
REMARK Flexibility Score: inf
ROOT
ATOM      1  C   UNL A   1      32.476  28.520  23.861  1.00  0.00     0.017 C 
ATOM      2  H   UNL A   1      32.233  28.968  22.920  1.00  0.00     0.049 H 
ATOM      3  H   UNL A   1      33.310  27.855  23.790  1.00  0.00     0.049 H 
ENDROOT
BRANCH   1   4
ATOM      4  N   UNL A   1      31.339  27.736  24.305  1.00  0.00    -0.355 N 
ATOM      5  O   UNL A   1      31.755  25.922  22.962  1.00  0.00    -0.273 OA
ATOM      6  C   UNL A   1      31.088  26.464  23.840  1.00  0.00     0.239 C 
ATOM      7  H   UNL A   1      30.722  28.128  24.965  1.00  0.00     0.163 HD
BRANCH   6   8
ATOM      8  C   UNL A   1      29.852  25.771  24.435  1.00  0.00     0.097 C 
ATOM      9  H   UNL A   1      29.543  25.003  23.756  1.00  0.00     0.059 H 
ATOM     10  H   UNL A   1      29.116  26.535  24.572  1.00  0.00     0.059 H 
BRANCH   8  11
ATOM     11  N   UNL A   1      30.061  25.163  25.745  1.00  0.00    -0.346 N 
ATOM     12  C   UNL A   1      30.702  24.003  26.066  1.00  0.00     0.239 C 
ATOM     13  H   UNL A   1      29.685  25.663  26.506  1.00  0.00     0.164 HD
ATOM     14  O   UNL A   1      30.756  23.677  27.254  1.00  0.00    -0.273 OA
BRANCH  12  15
ATOM     15  C   UNL A   1      31.258  23.099  24.964  1.00  0.00     0.100 C 
ATOM     16  H   UNL A   1      30.700  23.235  24.062  1.00  0.00     0.060 H 
ATOM     17  H   UNL A   1      31.186  22.069  25.244  1.00  0.00     0.060 H 
BRANCH  15  18
ATOM     18  N   UNL A   1      32.639  23.482  24.757  1.00  0.00    -0.312 N 
ATOM     19  C   UNL A   1      33.737  22.863  25.260  1.00  0.00     0.407 C 
ATOM     20  H   UNL A   1      32.798  24.272  24.193  1.00  0.00     0.167 HD
ATOM     21  O   UNL A   1      34.804  23.460  25.318  1.00  0.00    -0.225 OA
BRANCH  19  22
ATOM     22  O   UNL A   1      33.513  21.600  25.688  1.00  0.00    -0.445 OA
BRANCH  22  23
ATOM     23  C   UNL A   1      34.526  20.643  25.332  1.00  0.00     0.118 C 
ATOM     24  H   UNL A   1      34.979  20.282  26.231  1.00  0.00     0.076 H 
ATOM     25  H   UNL A   1      35.225  21.148  24.698  1.00  0.00     0.076 H 
BRANCH  23  26
ATOM     26  C   UNL A   1      33.995  19.459  24.553  1.00  0.00    -0.011 A 
ATOM     27  C   UNL A   1      34.707  18.253  24.505  1.00  0.00    -0.056 A 
ATOM     28  C   UNL A   1      32.799  19.553  23.825  1.00  0.00    -0.056 A 
ATOM     29  C   UNL A   1      34.233  17.178  23.746  1.00  0.00    -0.062 A 
ATOM     30  H   UNL A   1      35.588  18.156  25.034  1.00  0.00     0.063 H 
ATOM     31  C   UNL A   1      32.315  18.475  23.086  1.00  0.00    -0.062 A 
ATOM     32  H   UNL A   1      32.267  20.438  23.838  1.00  0.00     0.063 H 
ATOM     33  C   UNL A   1      33.035  17.287  23.042  1.00  0.00    -0.062 A 
ATOM     34  H   UNL A   1      34.773  16.298  23.708  1.00  0.00     0.062 H 
ATOM     35  H   UNL A   1      31.424  18.558  22.572  1.00  0.00     0.062 H 
ATOM     36  H   UNL A   1      32.685  16.489  22.489  1.00  0.00     0.062 H 
ENDBRANCH  23  26
ENDBRANCH  22  23
ENDBRANCH  19  22
ENDBRANCH  15  18
ENDBRANCH  12  15
ENDBRANCH   8  11
ENDBRANCH   6   8
ENDBRANCH   1   4
BRANCH   1  37
ATOM     37  C   UNL A   1      32.867  29.630  24.839  1.00  0.00    -0.036 C 
ATOM     38  H   UNL A   1      32.345  30.520  24.556  1.00  0.00     0.028 H 
ATOM     39  H   UNL A   1      33.931  29.722  24.776  1.00  0.00     0.028 H 
BRANCH  37  40
ATOM     40  C   UNL A   1      32.551  29.340  26.311  1.00  0.00    -0.052 C 
ATOM     41  H   UNL A   1      33.454  29.473  26.871  1.00  0.00     0.027 H 
ATOM     42  H   UNL A   1      32.162  28.344  26.329  1.00  0.00     0.027 H 
BRANCH  40  43
ATOM     43  C   UNL A   1      31.472  30.210  26.959  1.00  0.00    -0.052 C 
ATOM     44  H   UNL A   1      31.586  30.138  28.020  1.00  0.00     0.027 H 
ATOM     45  H   UNL A   1      30.539  29.832  26.594  1.00  0.00     0.027 H 
BRANCH  43  46
ATOM     46  C   UNL A   1      31.494  31.690  26.583  1.00  0.00    -0.036 C 
ATOM     47  H   UNL A   1      30.668  32.165  27.069  1.00  0.00     0.028 H 
ATOM     48  H   UNL A   1      31.444  31.722  25.515  1.00  0.00     0.028 H 
BRANCH  46  49
ATOM     49  C   UNL A   1      32.763  32.450  26.964  1.00  0.00     0.018 C 
ATOM     50  H   UNL A   1      33.384  32.533  26.096  1.00  0.00     0.049 H 
ATOM     51  H   UNL A   1      33.242  31.902  27.747  1.00  0.00     0.049 H 
BRANCH  49  52
ATOM     52  N   UNL A   1      32.494  33.787  27.469  1.00  0.00    -0.352 N 
ATOM     53  C   UNL A   1      33.089  34.490  28.488  1.00  0.00     0.251 C 
ATOM     54  H   UNL A   1      31.769  34.266  27.006  1.00  0.00     0.163 HD
ATOM     55  O   UNL A   1      32.616  35.567  28.843  1.00  0.00    -0.269 OA
BRANCH  53  56
ATOM     56  C   UNL A   1      34.279  33.954  29.189  1.00  0.00     0.039 A 
ATOM     57  C   UNL A   1      34.087  32.997  30.191  1.00  0.00    -0.049 A 
ATOM     58  C   UNL A   1      35.570  34.400  28.896  1.00  0.00    -0.049 A 
ATOM     59  C   UNL A   1      35.188  32.437  30.844  1.00  0.00    -0.053 A 
ATOM     60  H   UNL A   1      33.131  32.702  30.448  1.00  0.00     0.063 H 
ATOM     61  C   UNL A   1      36.673  33.796  29.501  1.00  0.00    -0.053 A 
ATOM     62  H   UNL A   1      35.708  35.179  28.232  1.00  0.00     0.063 H 
ATOM     63  C   UNL A   1      36.493  32.804  30.478  1.00  0.00    -0.014 A 
ATOM     64  H   UNL A   1      35.042  31.751  31.600  1.00  0.00     0.063 H 
ATOM     65  H   UNL A   1      37.626  34.079  29.229  1.00  0.00     0.063 H 
BRANCH  63  66
ATOM     66  C   UNL A   1      37.670  32.132  31.087  1.00  0.00     0.031 A 
ATOM     67  C   UNL A   1      38.139  32.499  32.466  1.00  0.00     0.074 A 
ATOM     68  C   UNL A   1      38.352  31.220  30.368  1.00  0.00     0.049 A 
ATOM     69  N   UNL A   1      39.148  32.020  33.151  1.00  0.00    -0.248 NA
ATOM     70  C   UNL A   1      37.395  33.560  33.158  1.00  0.00    -0.034 C 
ATOM     71  C   UNL A   1      38.035  30.818  28.996  1.00  0.00    -0.036 A 
ATOM     72  N   UNL A   1      39.454  30.467  30.689  1.00  0.00    -0.354 N 
ATOM     73  C   UNL A   1      39.168  32.728  34.345  1.00  0.00     0.074 A 
ATOM     74  C   UNL A   1      38.098  33.701  34.274  1.00  0.00    -0.034 C 
ATOM     75  H   UNL A   1      36.546  34.064  32.856  1.00  0.00     0.065 H 
ATOM     76  C   UNL A   1      38.900  29.870  28.606  1.00  0.00    -0.036 A 
ATOM     77  H   UNL A   1      37.269  31.203  28.421  1.00  0.00     0.065 H 
ATOM     78  C   UNL A   1      39.849  29.616  29.686  1.00  0.00     0.049 A 
ATOM     79  H   UNL A   1      39.916  30.530  31.556  1.00  0.00     0.167 HD
ATOM     80  C   UNL A   1      39.989  32.567  35.411  1.00  0.00     0.037 A 
ATOM     81  H   UNL A   1      37.909  34.412  34.996  1.00  0.00     0.065 H 
ATOM     82  H   UNL A   1      38.896  29.396  27.689  1.00  0.00     0.065 H 
ATOM     83  C   UNL A   1      40.858  28.727  29.644  1.00  0.00     0.037 A 
ATOM     84  C   UNL A   1      41.034  31.580  35.493  1.00  0.00     0.049 A 
ATOM     85  C   UNL A   1      41.746  28.559  30.845  1.00  0.00     0.074 A 
ATOM     86  C   UNL A   1      41.858  31.282  36.565  1.00  0.00    -0.036 A 
ATOM     87  N   UNL A   1      41.404  30.734  34.458  1.00  0.00    -0.354 N 
ATOM     88  N   UNL A   1      41.698  29.172  32.001  1.00  0.00    -0.248 NA
ATOM     89  C   UNL A   1      42.825  27.567  30.734  1.00  0.00    -0.034 C 
ATOM     90  C   UNL A   1      42.756  30.286  36.164  1.00  0.00    -0.036 A 
ATOM     91  H   UNL A   1      41.818  31.720  37.498  1.00  0.00     0.065 H 
ATOM     92  C   UNL A   1      42.464  29.932  34.857  1.00  0.00     0.049 A 
ATOM     93  H   UNL A   1      40.977  30.706  33.572  1.00  0.00     0.167 HD
ATOM     94  C   UNL A   1      42.724  28.631  32.763  1.00  0.00     0.074 A 
ATOM     95  C   UNL A   1      43.366  27.625  31.943  1.00  0.00    -0.034 C 
ATOM     96  H   UNL A   1      43.092  26.982  29.927  1.00  0.00     0.065 H 
ATOM     97  H   UNL A   1      43.508  29.882  36.744  1.00  0.00     0.065 H 
ATOM     98  C   UNL A   1      43.100  28.941  34.028  1.00  0.00     0.037 A 
ATOM     99  H   UNL A   1      44.146  27.028  32.259  1.00  0.00     0.065 H 
BRANCH  80 100
ATOM    100  C   UNL A   1      39.789  33.487  36.581  1.00  0.00     0.064 A 
ATOM    101  C   UNL A   1      38.959  33.137  37.657  1.00  0.00     0.173 A 
ATOM    102  C   UNL A   1      40.458  34.718  36.642  1.00  0.00     0.173 A 
ATOM    103  F   UNL A   1      38.289  31.975  37.643  1.00  0.00    -0.203 F 
ATOM    104  C   UNL A   1      38.781  34.001  38.735  1.00  0.00     0.198 A 
ATOM    105  C   UNL A   1      40.300  35.567  37.734  1.00  0.00     0.198 A 
ATOM    106  F   UNL A   1      41.269  35.097  35.643  1.00  0.00    -0.203 F 
ATOM    107  F   UNL A   1      37.944  33.668  39.728  1.00  0.00    -0.200 F 
ATOM    108  C   UNL A   1      39.455  35.212  38.775  1.00  0.00     0.200 A 
ATOM    109  F   UNL A   1      40.961  36.732  37.777  1.00  0.00    -0.200 F 
ATOM    110  F   UNL A   1      39.285  36.040  39.815  1.00  0.00    -0.200 F 
ENDBRANCH  80 100
BRANCH  83 111
ATOM    111  C   UNL A   1      41.052  27.890  28.433  1.00  0.00     0.064 A 
ATOM    112  C   UNL A   1      40.382  26.666  28.297  1.00  0.00     0.173 A 
ATOM    113  C   UNL A   1      41.896  28.295  27.390  1.00  0.00     0.173 A 
ATOM    114  F   UNL A   1      39.581  26.228  29.279  1.00  0.00    -0.203 F 
ATOM    115  C   UNL A   1      40.559  25.872  27.166  1.00  0.00     0.198 A 
ATOM    116  C   UNL A   1      42.054  27.511  26.250  1.00  0.00     0.198 A 
ATOM    117  F   UNL A   1      42.556  29.459  27.474  1.00  0.00    -0.203 F 
ATOM    118  F   UNL A   1      39.935  24.690  27.075  1.00  0.00    -0.200 F 
ATOM    119  C   UNL A   1      41.390  26.298  26.141  1.00  0.00     0.200 A 
ATOM    120  F   UNL A   1      42.849  27.931  25.255  1.00  0.00    -0.200 F 
ATOM    121  F   UNL A   1      41.555  25.537  25.050  1.00  0.00    -0.200 F 
ENDBRANCH  83 111
BRANCH  98 122
ATOM    122  C   UNL A   1      44.251  28.171  34.603  1.00  0.00     0.064 A 
ATOM    123  C   UNL A   1      44.062  26.936  35.242  1.00  0.00     0.173 A 
ATOM    124  C   UNL A   1      45.561  28.665  34.505  1.00  0.00     0.173 A 
ATOM    125  F   UNL A   1      42.827  26.430  35.377  1.00  0.00    -0.203 F 
ATOM    126  C   UNL A   1      45.137  26.239  35.786  1.00  0.00     0.198 A 
ATOM    127  C   UNL A   1      46.637  27.953  35.026  1.00  0.00     0.198 A 
ATOM    128  F   UNL A   1      45.796  29.840  33.900  1.00  0.00    -0.203 F 
ATOM    129  F   UNL A   1      44.926  25.088  36.437  1.00  0.00    -0.200 F 
ATOM    130  C   UNL A   1      46.424  26.744  35.673  1.00  0.00     0.200 A 
ATOM    131  F   UNL A   1      47.881  28.438  34.907  1.00  0.00    -0.200 F 
ATOM    132  F   UNL A   1      47.458  26.073  36.199  1.00  0.00    -0.200 F 
ENDBRANCH  98 122
ENDBRANCH  63  66
ENDBRANCH  53  56
ENDBRANCH  49  52
ENDBRANCH  46  49
ENDBRANCH  43  46
ENDBRANCH  40  43
ENDBRANCH  37  40
ENDBRANCH   1  37
TORSDOF 19
ENDMDL
