MODEL 1
REMARK VINA RESULT:     -12.8      0.000      0.000
REMARK SMILES CC1=C(CC(=O)NCCCCCCNC(=O)c2ccc(-c3c4nc(c(-c5c(F)c(F)c(F)c(F)c5F)c5ccc([nH]5)c(-c5c(F)c(F)c(F)c(F)c5F)c5nc(c(-c6c(F)c(F)c(F)c(F)c6F)c6ccc3[nH]6)C=C5)C=C4)cc2)c2cc(F)ccc2/C1=C\c1ccc([S@@+](C)O)cc1
REMARK SMILES IDX 9 1 8 4 7 7 5 8 6 9 4 11 3 14 2 15 87 16 80 17 86 18 88 19
REMARK SMILES IDX 81 20 85 21 82 23 84 25 83 27 1 29 89 33 90 34 97 35 91 36
REMARK SMILES IDX 96 38 92 40 93 43 94 44 95 48 10 50 11 53 12 56 13 59 14 62
REMARK SMILES IDX 15 63 16 65 17 66 18 67 79 68 19 69 78 71 20 73 21 76 22 77
REMARK SMILES IDX 72 78 23 79 77 80 71 81 73 82 24 83 76 84 70 86 69 88 25 90
REMARK SMILES IDX 57 93 37 94 56 95 38 96 41 97 55 98 74 99 39 100 40 102
REMARK SMILES IDX 54 104 75 105 42 108 26 110 27 111 35 112 28 113 29 114
REMARK SMILES IDX 33 115 36 116 30 117 31 118 34 119 32 120 58 121 59 122
REMARK SMILES IDX 67 123 60 124 61 125 65 126 68 127 62 128 63 129 66 130
REMARK SMILES IDX 64 131 43 132 44 133 52 134 45 135 46 136 50 137 53 138
REMARK SMILES IDX 47 139 48 140 51 141 49 142
REMARK H PARENT 9 2 9 3 8 5 8 6 7 10 4 12 4 13 88 22 81 24 85 26 84 28 1 30
REMARK H PARENT 1 31 1 32 90 37 97 39 91 41 96 42 94 45 94 46 94 47 95 49
REMARK H PARENT 10 51 10 52 11 54 11 55 12 57 12 58 13 60 13 61 14 64 18 70
REMARK H PARENT 79 72 19 74 78 75 77 85 71 87 73 89 76 91 70 92 38 101 41 103
REMARK H PARENT 74 106 39 107 75 109
REMARK Flexibility Score: inf
ROOT
ATOM      1  C   UNL A   1      33.191  28.588  27.270  1.00  0.00    -0.036 C 
ATOM      2  H   UNL A   1      33.609  28.351  28.225  1.00  0.00     0.028 H 
ATOM      3  H   UNL A   1      32.206  28.190  27.140  1.00  0.00     0.028 H 
ENDROOT
BRANCH   1   4
ATOM      4  C   UNL A   1      34.070  27.955  26.189  1.00  0.00     0.017 C 
ATOM      5  H   UNL A   1      35.095  28.030  26.486  1.00  0.00     0.049 H 
ATOM      6  H   UNL A   1      33.782  26.930  26.079  1.00  0.00     0.049 H 
BRANCH   4   7
ATOM      7  N   UNL A   1      33.898  28.617  24.915  1.00  0.00    -0.356 N 
ATOM      8  C   UNL A   1      32.945  28.411  23.963  1.00  0.00     0.224 C 
ATOM      9  O   UNL A   1      33.040  29.030  22.900  1.00  0.00    -0.275 OA
ATOM     10  H   UNL A   1      34.561  29.315  24.706  1.00  0.00     0.163 HD
BRANCH   8  11
ATOM     11  C   UNL A   1      31.763  27.482  24.235  1.00  0.00     0.053 C 
ATOM     12  H   UNL A   1      31.388  27.697  25.214  1.00  0.00     0.042 H 
ATOM     13  H   UNL A   1      31.046  27.667  23.463  1.00  0.00     0.042 H 
BRANCH  11  14
ATOM     14  C   UNL A   1      32.092  26.025  24.170  1.00  0.00    -0.027 C 
ATOM     15  C   UNL A   1      32.081  25.099  25.159  1.00  0.00    -0.039 C 
ATOM     16  C   UNL A   1      32.497  23.794  24.620  1.00  0.00    -0.014 C 
ATOM     17  C   UNL A   1      32.445  25.340  22.915  1.00  0.00    -0.011 A 
ATOM     18  C   UNL A   1      32.642  23.968  23.160  1.00  0.00    -0.010 A 
ATOM     19  C   UNL A   1      32.738  22.702  25.374  1.00  0.00    -0.047 C 
ATOM     20  C   UNL A   1      32.562  25.853  21.630  1.00  0.00    -0.018 A 
ATOM     21  C   UNL A   1      32.889  23.095  22.109  1.00  0.00    -0.051 A 
ATOM     22  H   UNL A   1      32.604  22.791  26.394  1.00  0.00     0.064 H 
ATOM     23  C   UNL A   1      32.868  24.976  20.594  1.00  0.00     0.123 A 
ATOM     24  H   UNL A   1      32.424  26.860  21.447  1.00  0.00     0.066 H 
ATOM     25  C   UNL A   1      33.021  23.609  20.817  1.00  0.00    -0.026 A 
ATOM     26  H   UNL A   1      32.973  22.080  22.279  1.00  0.00     0.063 H 
ATOM     27  F   UNL A   1      33.003  25.450  19.348  1.00  0.00    -0.207 F 
ATOM     28  H   UNL A   1      33.231  22.977  20.030  1.00  0.00     0.065 H 
BRANCH  15  29
ATOM     29  C   UNL A   1      31.703  25.288  26.592  1.00  0.00    -0.039 C 
ATOM     30  H   UNL A   1      31.388  26.299  26.748  1.00  0.00     0.028 H 
ATOM     31  H   UNL A   1      32.546  25.076  27.215  1.00  0.00     0.028 H 
ATOM     32  H   UNL A   1      30.902  24.623  26.840  1.00  0.00     0.028 H 
ENDBRANCH  15  29
BRANCH  19  33
ATOM     33  C   UNL A   1      33.178  21.402  24.864  1.00  0.00    -0.025 A 
ATOM     34  C   UNL A   1      32.256  20.457  24.400  1.00  0.00    -0.050 A 
ATOM     35  C   UNL A   1      34.526  21.053  24.967  1.00  0.00    -0.050 A 
ATOM     36  C   UNL A   1      32.658  19.135  24.181  1.00  0.00    -0.003 A 
ATOM     37  H   UNL A   1      31.278  20.735  24.218  1.00  0.00     0.063 H 
ATOM     38  C   UNL A   1      34.929  19.736  24.729  1.00  0.00    -0.003 A 
ATOM     39  H   UNL A   1      35.224  21.768  25.221  1.00  0.00     0.063 H 
ATOM     40  C   UNL A   1      33.992  18.758  24.374  1.00  0.00     0.189 A 
ATOM     41  H   UNL A   1      31.967  18.433  23.874  1.00  0.00     0.068 H 
ATOM     42  H   UNL A   1      35.926  19.483  24.815  1.00  0.00     0.068 H 
BRANCH  40  43
ATOM     43  S   UNL A   1      34.433  16.999  24.412  1.00  0.00     0.178 S 
BRANCH  43  44
ATOM     44  C   UNL A   1      32.904  16.343  25.127  1.00  0.00     0.137 C 
ATOM     45  H   UNL A   1      32.079  16.588  24.492  1.00  0.00     0.085 H 
ATOM     46  H   UNL A   1      32.750  16.774  26.094  1.00  0.00     0.085 H 
ATOM     47  H   UNL A   1      32.981  15.280  25.218  1.00  0.00     0.085 H 
ENDBRANCH  43  44
BRANCH  43  48
ATOM     48  O   UNL A   1      33.971  16.697  22.901  1.00  0.00    -0.182 OA
ATOM     49  H   UNL A   1      33.302  17.347  22.631  1.00  0.00     0.283 HD
ENDBRANCH  43  48
ENDBRANCH  40  43
ENDBRANCH  19  33
ENDBRANCH  11  14
ENDBRANCH   8  11
ENDBRANCH   4   7
ENDBRANCH   1   4
BRANCH   1  50
ATOM     50  C   UNL A   1      33.072  30.114  27.160  1.00  0.00    -0.052 C 
ATOM     51  H   UNL A   1      33.833  30.458  26.490  1.00  0.00     0.027 H 
ATOM     52  H   UNL A   1      33.176  30.490  28.157  1.00  0.00     0.027 H 
BRANCH  50  53
ATOM     53  C   UNL A   1      31.723  30.634  26.651  1.00  0.00    -0.052 C 
ATOM     54  H   UNL A   1      30.951  30.169  27.227  1.00  0.00     0.027 H 
ATOM     55  H   UNL A   1      31.685  30.393  25.610  1.00  0.00     0.027 H 
BRANCH  53  56
ATOM     56  C   UNL A   1      31.532  32.149  26.743  1.00  0.00    -0.036 C 
ATOM     57  H   UNL A   1      30.683  32.342  27.366  1.00  0.00     0.028 H 
ATOM     58  H   UNL A   1      31.407  32.499  25.740  1.00  0.00     0.028 H 
BRANCH  56  59
ATOM     59  C   UNL A   1      32.722  32.907  27.318  1.00  0.00     0.018 C 
ATOM     60  H   UNL A   1      33.507  32.916  26.590  1.00  0.00     0.049 H 
ATOM     61  H   UNL A   1      33.020  32.406  28.216  1.00  0.00     0.049 H 
BRANCH  59  62
ATOM     62  N   UNL A   1      32.399  34.282  27.670  1.00  0.00    -0.352 N 
ATOM     63  C   UNL A   1      32.971  35.093  28.621  1.00  0.00     0.251 C 
ATOM     64  H   UNL A   1      31.666  34.688  27.153  1.00  0.00     0.163 HD
ATOM     65  O   UNL A   1      32.475  36.184  28.888  1.00  0.00    -0.269 OA
BRANCH  63  66
ATOM     66  C   UNL A   1      34.171  34.632  29.353  1.00  0.00     0.039 A 
ATOM     67  C   UNL A   1      35.439  34.745  28.782  1.00  0.00    -0.049 A 
ATOM     68  C   UNL A   1      34.020  34.052  30.616  1.00  0.00    -0.049 A 
ATOM     69  C   UNL A   1      36.525  34.123  29.390  1.00  0.00    -0.053 A 
ATOM     70  H   UNL A   1      35.571  35.286  27.914  1.00  0.00     0.063 H 
ATOM     71  C   UNL A   1      35.130  33.505  31.268  1.00  0.00    -0.053 A 
ATOM     72  H   UNL A   1      33.091  34.029  31.067  1.00  0.00     0.063 H 
ATOM     73  C   UNL A   1      36.382  33.486  30.635  1.00  0.00    -0.014 A 
ATOM     74  H   UNL A   1      37.444  34.128  28.921  1.00  0.00     0.063 H 
ATOM     75  H   UNL A   1      35.028  33.114  32.217  1.00  0.00     0.063 H 
BRANCH  73  76
ATOM     76  C   UNL A   1      37.556  32.798  31.235  1.00  0.00     0.031 A 
ATOM     77  C   UNL A   1      38.024  33.143  32.624  1.00  0.00     0.074 A 
ATOM     78  C   UNL A   1      38.152  31.799  30.554  1.00  0.00     0.049 A 
ATOM     79  N   UNL A   1      38.989  32.603  33.326  1.00  0.00    -0.248 NA
ATOM     80  C   UNL A   1      37.323  34.236  33.316  1.00  0.00    -0.034 C 
ATOM     81  C   UNL A   1      37.784  31.368  29.204  1.00  0.00    -0.036 A 
ATOM     82  N   UNL A   1      39.164  30.945  30.911  1.00  0.00    -0.354 N 
ATOM     83  C   UNL A   1      39.018  33.296  34.530  1.00  0.00     0.074 A 
ATOM     84  C   UNL A   1      37.999  34.319  34.454  1.00  0.00    -0.034 C 
ATOM     85  H   UNL A   1      36.515  34.793  32.999  1.00  0.00     0.065 H 
ATOM     86  C   UNL A   1      38.513  30.293  28.873  1.00  0.00    -0.036 A 
ATOM     87  H   UNL A   1      37.076  31.819  28.604  1.00  0.00     0.065 H 
ATOM     88  C   UNL A   1      39.442  29.995  29.958  1.00  0.00     0.049 A 
ATOM     89  H   UNL A   1      39.646  31.008  31.767  1.00  0.00     0.167 HD
ATOM     90  C   UNL A   1      39.810  33.083  35.608  1.00  0.00     0.037 A 
ATOM     91  H   UNL A   1      37.820  35.020  35.190  1.00  0.00     0.065 H 
ATOM     92  H   UNL A   1      38.430  29.761  27.992  1.00  0.00     0.065 H 
ATOM     93  C   UNL A   1      40.348  28.998  29.955  1.00  0.00     0.037 A 
ATOM     94  C   UNL A   1      40.805  32.046  35.695  1.00  0.00     0.049 A 
ATOM     95  C   UNL A   1      41.243  28.816  31.148  1.00  0.00     0.074 A 
ATOM     96  C   UNL A   1      41.634  31.737  36.759  1.00  0.00    -0.036 A 
ATOM     97  N   UNL A   1      41.102  31.149  34.681  1.00  0.00    -0.354 N 
ATOM     98  N   UNL A   1      41.245  29.466  32.284  1.00  0.00    -0.248 NA
ATOM     99  C   UNL A   1      42.270  27.769  31.052  1.00  0.00    -0.034 C 
ATOM    100  C   UNL A   1      42.463  30.679  36.375  1.00  0.00    -0.036 A 
ATOM    101  H   UNL A   1      41.641  32.206  37.678  1.00  0.00     0.065 H 
ATOM    102  C   UNL A   1      42.119  30.299  35.087  1.00  0.00     0.049 A 
ATOM    103  H   UNL A   1      40.655  31.117  33.804  1.00  0.00     0.167 HD
ATOM    104  C   UNL A   1      42.264  28.905  33.042  1.00  0.00     0.074 A 
ATOM    105  C   UNL A   1      42.842  27.844  32.245  1.00  0.00    -0.034 C 
ATOM    106  H   UNL A   1      42.488  27.140  30.262  1.00  0.00     0.065 H 
ATOM    107  H   UNL A   1      43.205  30.253  36.951  1.00  0.00     0.065 H 
ATOM    108  C   UNL A   1      42.685  29.247  34.283  1.00  0.00     0.037 A 
ATOM    109  H   UNL A   1      43.603  27.224  32.565  1.00  0.00     0.065 H 
BRANCH  90 110
ATOM    110  C   UNL A   1      39.640  33.983  36.797  1.00  0.00     0.064 A 
ATOM    111  C   UNL A   1      38.838  33.612  37.887  1.00  0.00     0.173 A 
ATOM    112  C   UNL A   1      40.354  35.187  36.888  1.00  0.00     0.173 A 
ATOM    113  F   UNL A   1      38.127  32.475  37.845  1.00  0.00    -0.203 F 
ATOM    114  C   UNL A   1      38.750  34.419  39.018  1.00  0.00     0.198 A 
ATOM    115  C   UNL A   1      40.285  35.979  38.032  1.00  0.00     0.198 A 
ATOM    116  F   UNL A   1      41.143  35.583  35.877  1.00  0.00    -0.203 F 
ATOM    117  F   UNL A   1      37.958  34.057  40.038  1.00  0.00    -0.200 F 
ATOM    118  C   UNL A   1      39.482  35.595  39.094  1.00  0.00     0.200 A 
ATOM    119  F   UNL A   1      41.004  37.107  38.109  1.00  0.00    -0.200 F 
ATOM    120  F   UNL A   1      39.412  36.360  40.193  1.00  0.00    -0.200 F 
ENDBRANCH  90 110
BRANCH  93 121
ATOM    121  C   UNL A   1      40.443  28.096  28.779  1.00  0.00     0.064 A 
ATOM    122  C   UNL A   1      39.742  26.883  28.742  1.00  0.00     0.173 A 
ATOM    123  C   UNL A   1      41.218  28.435  27.659  1.00  0.00     0.173 A 
ATOM    124  F   UNL A   1      39.005  26.504  29.798  1.00  0.00    -0.203 F 
ATOM    125  C   UNL A   1      39.818  26.042  27.635  1.00  0.00     0.198 A 
ATOM    126  C   UNL A   1      41.269  27.607  26.541  1.00  0.00     0.198 A 
ATOM    127  F   UNL A   1      41.907  29.587  27.644  1.00  0.00    -0.203 F 
ATOM    128  F   UNL A   1      39.164  24.871  27.639  1.00  0.00    -0.200 F 
ATOM    129  C   UNL A   1      40.573  26.409  26.531  1.00  0.00     0.200 A 
ATOM    130  F   UNL A   1      41.987  27.975  25.470  1.00  0.00    -0.200 F 
ATOM    131  F   UNL A   1      40.634  25.605  25.460  1.00  0.00    -0.200 F 
ENDBRANCH  93 121
BRANCH 108 132
ATOM    132  C   UNL A   1      43.828  28.470  34.866  1.00  0.00     0.064 A 
ATOM    133  C   UNL A   1      45.149  28.929  34.760  1.00  0.00     0.173 A 
ATOM    134  C   UNL A   1      43.592  27.302  35.606  1.00  0.00     0.173 A 
ATOM    135  F   UNL A   1      45.424  30.034  34.051  1.00  0.00    -0.203 F 
ATOM    136  C   UNL A   1      46.195  28.241  35.367  1.00  0.00     0.198 A 
ATOM    137  C   UNL A   1      44.638  26.631  36.234  1.00  0.00     0.198 A 
ATOM    138  F   UNL A   1      42.345  26.827  35.743  1.00  0.00    -0.203 F 
ATOM    139  F   UNL A   1      47.452  28.682  35.230  1.00  0.00    -0.200 F 
ATOM    140  C   UNL A   1      45.937  27.099  36.112  1.00  0.00     0.200 A 
ATOM    141  F   UNL A   1      44.386  25.537  36.966  1.00  0.00    -0.200 F 
ATOM    142  F   UNL A   1      46.944  26.449  36.712  1.00  0.00    -0.200 F 
ENDBRANCH 108 132
ENDBRANCH  73  76
ENDBRANCH  63  66
ENDBRANCH  59  62
ENDBRANCH  56  59
ENDBRANCH  53  56
ENDBRANCH  50  53
ENDBRANCH   1  50
TORSDOF 19
ENDMDL
MODEL 2
REMARK VINA RESULT:     -12.7      4.425      9.384
REMARK SMILES CC1=C(CC(=O)NCCCCCCNC(=O)c2ccc(-c3c4nc(c(-c5c(F)c(F)c(F)c(F)c5F)c5ccc([nH]5)c(-c5c(F)c(F)c(F)c(F)c5F)c5nc(c(-c6c(F)c(F)c(F)c(F)c6F)c6ccc3[nH]6)C=C5)C=C4)cc2)c2cc(F)ccc2/C1=C\c1ccc([S@@+](C)O)cc1
REMARK SMILES IDX 9 1 8 4 7 7 5 8 6 9 4 11 3 14 2 15 87 16 80 17 86 18 88 19
REMARK SMILES IDX 81 20 85 21 82 23 84 25 83 27 1 29 89 33 90 34 97 35 91 36
REMARK SMILES IDX 96 38 92 40 93 43 94 44 95 48 10 50 11 53 12 56 13 59 14 62
REMARK SMILES IDX 15 63 16 65 17 66 18 67 79 68 19 69 78 71 20 73 21 76 22 77
REMARK SMILES IDX 72 78 23 79 77 80 71 81 73 82 24 83 76 84 70 86 69 88 25 90
REMARK SMILES IDX 57 93 37 94 56 95 38 96 41 97 55 98 74 99 39 100 40 102
REMARK SMILES IDX 54 104 75 105 42 108 26 110 27 111 35 112 28 113 29 114
REMARK SMILES IDX 33 115 36 116 30 117 31 118 34 119 32 120 58 121 59 122
REMARK SMILES IDX 67 123 60 124 61 125 65 126 68 127 62 128 63 129 66 130
REMARK SMILES IDX 64 131 43 132 44 133 52 134 45 135 46 136 50 137 53 138
REMARK SMILES IDX 47 139 48 140 51 141 49 142
REMARK H PARENT 9 2 9 3 8 5 8 6 7 10 4 12 4 13 88 22 81 24 85 26 84 28 1 30
REMARK H PARENT 1 31 1 32 90 37 97 39 91 41 96 42 94 45 94 46 94 47 95 49
REMARK H PARENT 10 51 10 52 11 54 11 55 12 57 12 58 13 60 13 61 14 64 18 70
REMARK H PARENT 79 72 19 74 78 75 77 85 71 87 73 89 76 91 70 92 38 101 41 103
REMARK H PARENT 74 106 39 107 75 109
REMARK Flexibility Score: inf
ROOT
ATOM      1  C   UNL A   1      34.131  26.367  25.869  1.00  0.00    -0.036 C 
ATOM      2  H   UNL A   1      34.773  26.694  26.659  1.00  0.00     0.028 H 
ATOM      3  H   UNL A   1      34.352  26.841  24.936  1.00  0.00     0.028 H 
ENDROOT
BRANCH   1   4
ATOM      4  C   UNL A   1      32.693  26.747  26.228  1.00  0.00     0.017 C 
ATOM      5  H   UNL A   1      32.095  25.861  26.256  1.00  0.00     0.049 H 
ATOM      6  H   UNL A   1      32.701  27.228  27.184  1.00  0.00     0.049 H 
BRANCH   4   7
ATOM      7  N   UNL A   1      32.133  27.665  25.260  1.00  0.00    -0.356 N 
ATOM      8  C   UNL A   1      31.022  27.521  24.485  1.00  0.00     0.224 C 
ATOM      9  O   UNL A   1      30.774  28.396  23.652  1.00  0.00    -0.275 OA
ATOM     10  H   UNL A   1      32.624  28.512  25.145  1.00  0.00     0.163 HD
BRANCH   8  11
ATOM     11  C   UNL A   1      30.082  26.334  24.689  1.00  0.00     0.053 C 
ATOM     12  H   UNL A   1      29.680  26.393  25.678  1.00  0.00     0.042 H 
ATOM     13  H   UNL A   1      29.333  26.405  23.928  1.00  0.00     0.042 H 
BRANCH  11  14
ATOM     14  C   UNL A   1      30.728  24.996  24.526  1.00  0.00    -0.027 C 
ATOM     15  C   UNL A   1      30.658  23.907  25.328  1.00  0.00    -0.039 C 
ATOM     16  C   UNL A   1      31.479  22.822  24.765  1.00  0.00    -0.014 C 
ATOM     17  C   UNL A   1      31.546  24.639  23.354  1.00  0.00    -0.011 A 
ATOM     18  C   UNL A   1      31.967  23.300  23.455  1.00  0.00    -0.010 A 
ATOM     19  C   UNL A   1      31.744  21.662  25.400  1.00  0.00    -0.047 C 
ATOM     20  C   UNL A   1      31.886  25.406  22.246  1.00  0.00    -0.018 A 
ATOM     21  C   UNL A   1      32.672  22.705  22.417  1.00  0.00    -0.051 A 
ATOM     22  H   UNL A   1      31.326  21.526  26.333  1.00  0.00     0.064 H 
ATOM     23  C   UNL A   1      32.643  24.814  21.240  1.00  0.00     0.123 A 
ATOM     24  H   UNL A   1      31.584  26.391  22.171  1.00  0.00     0.066 H 
ATOM     25  C   UNL A   1      33.028  23.476  21.309  1.00  0.00    -0.026 A 
ATOM     26  H   UNL A   1      32.929  21.706  22.464  1.00  0.00     0.063 H 
ATOM     27  F   UNL A   1      32.999  25.539  20.170  1.00  0.00    -0.207 F 
ATOM     28  H   UNL A   1      33.574  23.056  20.542  1.00  0.00     0.065 H 
BRANCH  15  29
ATOM     29  C   UNL A   1      29.878  23.744  26.592  1.00  0.00    -0.039 C 
ATOM     30  H   UNL A   1      30.553  23.642  27.417  1.00  0.00     0.028 H 
ATOM     31  H   UNL A   1      29.265  22.869  26.524  1.00  0.00     0.028 H 
ATOM     32  H   UNL A   1      29.258  24.603  26.743  1.00  0.00     0.028 H 
ENDBRANCH  15  29
BRANCH  19  33
ATOM     33  C   UNL A   1      32.579  20.581  24.871  1.00  0.00    -0.025 A 
ATOM     34  C   UNL A   1      32.056  19.624  23.994  1.00  0.00    -0.050 A 
ATOM     35  C   UNL A   1      33.879  20.429  25.356  1.00  0.00    -0.050 A 
ATOM     36  C   UNL A   1      32.775  18.456  23.722  1.00  0.00    -0.003 A 
ATOM     37  H   UNL A   1      31.138  19.781  23.546  1.00  0.00     0.063 H 
ATOM     38  C   UNL A   1      34.604  19.270  25.068  1.00  0.00    -0.003 A 
ATOM     39  H   UNL A   1      34.305  21.174  25.929  1.00  0.00     0.063 H 
ATOM     40  C   UNL A   1      34.042  18.256  24.282  1.00  0.00     0.189 A 
ATOM     41  H   UNL A   1      32.369  17.736  23.104  1.00  0.00     0.068 H 
ATOM     42  H   UNL A   1      35.562  19.160  25.436  1.00  0.00     0.068 H 
BRANCH  40  43
ATOM     43  S   UNL A   1      34.814  16.617  24.197  1.00  0.00     0.178 S 
BRANCH  43  44
ATOM     44  C   UNL A   1      33.601  15.686  25.167  1.00  0.00     0.137 C 
ATOM     45  H   UNL A   1      33.849  14.645  25.143  1.00  0.00     0.085 H 
ATOM     46  H   UNL A   1      32.627  15.830  24.750  1.00  0.00     0.085 H 
ATOM     47  H   UNL A   1      33.613  16.032  26.179  1.00  0.00     0.085 H 
ENDBRANCH  43  44
BRANCH  43  48
ATOM     48  O   UNL A   1      34.147  16.211  22.790  1.00  0.00    -0.182 OA
ATOM     49  H   UNL A   1      34.841  15.936  22.170  1.00  0.00     0.283 HD
ENDBRANCH  43  48
ENDBRANCH  40  43
ENDBRANCH  19  33
ENDBRANCH  11  14
ENDBRANCH   8  11
ENDBRANCH   4   7
ENDBRANCH   1   4
BRANCH   1  50
ATOM     50  C   UNL A   1      34.345  24.861  25.665  1.00  0.00    -0.052 C 
ATOM     51  H   UNL A   1      33.384  24.405  25.541  1.00  0.00     0.027 H 
ATOM     52  H   UNL A   1      34.874  24.519  26.529  1.00  0.00     0.027 H 
BRANCH  50  53
ATOM     53  C   UNL A   1      35.210  24.477  24.459  1.00  0.00    -0.052 C 
ATOM     54  H   UNL A   1      36.012  25.181  24.390  1.00  0.00     0.027 H 
ATOM     55  H   UNL A   1      34.559  24.485  23.611  1.00  0.00     0.027 H 
BRANCH  53  56
ATOM     56  C   UNL A   1      35.818  23.074  24.514  1.00  0.00    -0.036 C 
ATOM     57  H   UNL A   1      36.606  23.023  23.792  1.00  0.00     0.028 H 
ATOM     58  H   UNL A   1      35.019  22.391  24.315  1.00  0.00     0.028 H 
BRANCH  56  59
ATOM     59  C   UNL A   1      36.391  22.682  25.871  1.00  0.00     0.018 C 
ATOM     60  H   UNL A   1      35.593  22.336  26.493  1.00  0.00     0.049 H 
ATOM     61  H   UNL A   1      36.868  23.547  26.282  1.00  0.00     0.049 H 
BRANCH  59  62
ATOM     62  N   UNL A   1      37.395  21.632  25.776  1.00  0.00    -0.352 N 
ATOM     63  C   UNL A   1      38.741  21.689  26.049  1.00  0.00     0.251 C 
ATOM     64  H   UNL A   1      37.063  20.757  25.472  1.00  0.00     0.163 HD
ATOM     65  O   UNL A   1      39.473  20.743  25.773  1.00  0.00    -0.269 OA
BRANCH  63  66
ATOM     66  C   UNL A   1      39.316  22.914  26.648  1.00  0.00     0.039 A 
ATOM     67  C   UNL A   1      38.864  24.176  26.258  1.00  0.00    -0.049 A 
ATOM     68  C   UNL A   1      40.341  22.797  27.591  1.00  0.00    -0.049 A 
ATOM     69  C   UNL A   1      39.552  25.311  26.672  1.00  0.00    -0.053 A 
ATOM     70  H   UNL A   1      38.025  24.266  25.664  1.00  0.00     0.063 H 
ATOM     71  C   UNL A   1      40.974  23.947  28.076  1.00  0.00    -0.053 A 
ATOM     72  H   UNL A   1      40.630  21.866  27.929  1.00  0.00     0.063 H 
ATOM     73  C   UNL A   1      40.622  25.211  27.579  1.00  0.00    -0.014 A 
ATOM     74  H   UNL A   1      39.274  26.236  26.311  1.00  0.00     0.063 H 
ATOM     75  H   UNL A   1      41.703  23.865  28.802  1.00  0.00     0.063 H 
BRANCH  73  76
ATOM     76  C   UNL A   1      41.359  26.442  27.968  1.00  0.00     0.031 A 
ATOM     77  C   UNL A   1      42.770  26.676  27.497  1.00  0.00     0.074 A 
ATOM     78  C   UNL A   1      40.724  27.390  28.684  1.00  0.00     0.049 A 
ATOM     79  N   UNL A   1      43.541  27.718  27.690  1.00  0.00    -0.248 NA
ATOM     80  C   UNL A   1      43.402  25.605  26.711  1.00  0.00    -0.034 C 
ATOM     81  C   UNL A   1      39.355  27.282  29.192  1.00  0.00    -0.036 A 
ATOM     82  N   UNL A   1      41.126  28.641  29.079  1.00  0.00    -0.354 N 
ATOM     83  C   UNL A   1      44.745  27.422  27.063  1.00  0.00     0.074 A 
ATOM     84  C   UNL A   1      44.620  26.091  26.512  1.00  0.00    -0.034 C 
ATOM     85  H   UNL A   1      43.002  24.708  26.395  1.00  0.00     0.065 H 
ATOM     86  C   UNL A   1      39.009  28.440  29.773  1.00  0.00    -0.036 A 
ATOM     87  H   UNL A   1      38.752  26.448  29.114  1.00  0.00     0.065 H 
ATOM     88  C   UNL A   1      40.149  29.350  29.736  1.00  0.00     0.049 A 
ATOM     89  H   UNL A   1      42.028  28.996  28.909  1.00  0.00     0.167 HD
ATOM     90  C   UNL A   1      45.847  28.201  26.941  1.00  0.00     0.037 A 
ATOM     91  H   UNL A   1      45.378  25.587  26.028  1.00  0.00     0.065 H 
ATOM     92  H   UNL A   1      38.085  28.653  30.181  1.00  0.00     0.065 H 
ATOM     93  C   UNL A   1      40.170  30.592  30.255  1.00  0.00     0.037 A 
ATOM     94  C   UNL A   1      45.961  29.537  27.463  1.00  0.00     0.049 A 
ATOM     95  C   UNL A   1      41.422  31.415  30.142  1.00  0.00     0.074 A 
ATOM     96  C   UNL A   1      47.029  30.412  27.362  1.00  0.00    -0.036 A 
ATOM     97  N   UNL A   1      44.973  30.192  28.181  1.00  0.00    -0.354 N 
ATOM     98  N   UNL A   1      42.544  31.129  29.530  1.00  0.00    -0.248 NA
ATOM     99  C   UNL A   1      41.415  32.727  30.804  1.00  0.00    -0.034 C 
ATOM    100  C   UNL A   1      46.704  31.581  28.055  1.00  0.00    -0.036 A 
ATOM    101  H   UNL A   1      47.913  30.232  26.862  1.00  0.00     0.065 H 
ATOM    102  C   UNL A   1      45.416  31.453  28.550  1.00  0.00     0.049 A 
ATOM    103  H   UNL A   1      44.088  29.819  28.396  1.00  0.00     0.167 HD
ATOM    104  C   UNL A   1      43.374  32.224  29.725  1.00  0.00     0.074 A 
ATOM    105  C   UNL A   1      42.616  33.192  30.490  1.00  0.00    -0.034 C 
ATOM    106  H   UNL A   1      40.670  33.170  31.365  1.00  0.00     0.065 H 
ATOM    107  H   UNL A   1      47.318  32.400  28.178  1.00  0.00     0.065 H 
ATOM    108  C   UNL A   1      44.651  32.406  29.312  1.00  0.00     0.037 A 
ATOM    109  H   UNL A   1      42.967  34.126  30.758  1.00  0.00     0.065 H 
BRANCH  90 110
ATOM    110  C   UNL A   1      47.030  27.639  26.207  1.00  0.00     0.064 A 
ATOM    111  C   UNL A   1      47.132  27.721  24.810  1.00  0.00     0.173 A 
ATOM    112  C   UNL A   1      48.112  27.092  26.913  1.00  0.00     0.173 A 
ATOM    113  F   UNL A   1      46.120  28.227  24.089  1.00  0.00    -0.203 F 
ATOM    114  C   UNL A   1      48.269  27.268  24.148  1.00  0.00     0.198 A 
ATOM    115  C   UNL A   1      49.259  26.663  26.249  1.00  0.00     0.198 A 
ATOM    116  F   UNL A   1      48.068  26.998  28.251  1.00  0.00    -0.203 F 
ATOM    117  F   UNL A   1      48.334  27.334  22.810  1.00  0.00    -0.200 F 
ATOM    118  C   UNL A   1      49.335  26.750  24.868  1.00  0.00     0.200 A 
ATOM    119  F   UNL A   1      50.294  26.177  26.948  1.00  0.00    -0.200 F 
ATOM    120  F   UNL A   1      50.438  26.333  24.230  1.00  0.00    -0.200 F 
ENDBRANCH  90 110
BRANCH  93 121
ATOM    121  C   UNL A   1      38.956  31.130  30.923  1.00  0.00     0.064 A 
ATOM    122  C   UNL A   1      37.980  31.824  30.195  1.00  0.00     0.173 A 
ATOM    123  C   UNL A   1      38.736  30.943  32.296  1.00  0.00     0.173 A 
ATOM    124  F   UNL A   1      38.156  32.047  28.884  1.00  0.00    -0.203 F 
ATOM    125  C   UNL A   1      36.835  32.316  30.816  1.00  0.00     0.198 A 
ATOM    126  C   UNL A   1      37.577  31.409  32.910  1.00  0.00     0.198 A 
ATOM    127  F   UNL A   1      39.640  30.283  33.037  1.00  0.00    -0.203 F 
ATOM    128  F   UNL A   1      35.932  33.005  30.104  1.00  0.00    -0.200 F 
ATOM    129  C   UNL A   1      36.629  32.100  32.171  1.00  0.00     0.200 A 
ATOM    130  F   UNL A   1      37.375  31.183  34.215  1.00  0.00    -0.200 F 
ATOM    131  F   UNL A   1      35.520  32.561  32.765  1.00  0.00    -0.200 F 
ENDBRANCH  93 121
BRANCH 108 132
ATOM    132  C   UNL A   1      45.321  33.698  29.674  1.00  0.00     0.064 A 
ATOM    133  C   UNL A   1      46.093  33.815  30.839  1.00  0.00     0.173 A 
ATOM    134  C   UNL A   1      45.257  34.801  28.810  1.00  0.00     0.173 A 
ATOM    135  F   UNL A   1      46.171  32.792  31.702  1.00  0.00    -0.203 F 
ATOM    136  C   UNL A   1      46.771  34.995  31.130  1.00  0.00     0.198 A 
ATOM    137  C   UNL A   1      45.958  35.971  29.092  1.00  0.00     0.198 A 
ATOM    138  F   UNL A   1      44.538  34.735  27.680  1.00  0.00    -0.203 F 
ATOM    139  F   UNL A   1      47.480  35.095  32.263  1.00  0.00    -0.200 F 
ATOM    140  C   UNL A   1      46.711  36.067  30.252  1.00  0.00     0.200 A 
ATOM    141  F   UNL A   1      45.913  37.000  28.235  1.00  0.00    -0.200 F 
ATOM    142  F   UNL A   1      47.381  37.195  30.525  1.00  0.00    -0.200 F 
ENDBRANCH 108 132
ENDBRANCH  73  76
ENDBRANCH  63  66
ENDBRANCH  59  62
ENDBRANCH  56  59
ENDBRANCH  53  56
ENDBRANCH  50  53
ENDBRANCH   1  50
TORSDOF 19
ENDMDL
MODEL 3
REMARK VINA RESULT:     -12.7      0.432      6.928
REMARK SMILES CC1=C(CC(=O)NCCCCCCNC(=O)c2ccc(-c3c4nc(c(-c5c(F)c(F)c(F)c(F)c5F)c5ccc([nH]5)c(-c5c(F)c(F)c(F)c(F)c5F)c5nc(c(-c6c(F)c(F)c(F)c(F)c6F)c6ccc3[nH]6)C=C5)C=C4)cc2)c2cc(F)ccc2/C1=C\c1ccc([S@@+](C)O)cc1
REMARK SMILES IDX 9 1 8 4 7 7 5 8 6 9 4 11 3 14 2 15 87 16 80 17 86 18 88 19
REMARK SMILES IDX 81 20 85 21 82 23 84 25 83 27 1 29 89 33 90 34 97 35 91 36
REMARK SMILES IDX 96 38 92 40 93 43 94 44 95 48 10 50 11 53 12 56 13 59 14 62
REMARK SMILES IDX 15 63 16 65 17 66 18 67 79 68 19 69 78 71 20 73 21 76 22 77
REMARK SMILES IDX 72 78 23 79 77 80 71 81 73 82 24 83 76 84 70 86 69 88 25 90
REMARK SMILES IDX 57 93 37 94 56 95 38 96 41 97 55 98 74 99 39 100 40 102
REMARK SMILES IDX 54 104 75 105 42 108 26 110 27 111 35 112 28 113 29 114
REMARK SMILES IDX 33 115 36 116 30 117 31 118 34 119 32 120 58 121 59 122
REMARK SMILES IDX 67 123 60 124 61 125 65 126 68 127 62 128 63 129 66 130
REMARK SMILES IDX 64 131 43 132 44 133 52 134 45 135 46 136 50 137 53 138
REMARK SMILES IDX 47 139 48 140 51 141 49 142
REMARK H PARENT 9 2 9 3 8 5 8 6 7 10 4 12 4 13 88 22 81 24 85 26 84 28 1 30
REMARK H PARENT 1 31 1 32 90 37 97 39 91 41 96 42 94 45 94 46 94 47 95 49
REMARK H PARENT 10 51 10 52 11 54 11 55 12 57 12 58 13 60 13 61 14 64 18 70
REMARK H PARENT 79 72 19 74 78 75 77 85 71 87 73 89 76 91 70 92 38 101 41 103
REMARK H PARENT 74 106 39 107 75 109
REMARK Flexibility Score: inf
ROOT
ATOM      1  C   UNL A   1      33.238  28.631  27.273  1.00  0.00    -0.036 C 
ATOM      2  H   UNL A   1      33.685  28.405  28.218  1.00  0.00     0.028 H 
ATOM      3  H   UNL A   1      32.245  28.243  27.184  1.00  0.00     0.028 H 
ENDROOT
BRANCH   1   4
ATOM      4  C   UNL A   1      34.072  27.969  26.176  1.00  0.00     0.017 C 
ATOM      5  H   UNL A   1      35.106  28.012  26.450  1.00  0.00     0.049 H 
ATOM      6  H   UNL A   1      33.750  26.953  26.074  1.00  0.00     0.049 H 
BRANCH   4   7
ATOM      7  N   UNL A   1      33.893  28.634  24.904  1.00  0.00    -0.356 N 
ATOM      8  C   UNL A   1      32.936  28.430  23.956  1.00  0.00     0.224 C 
ATOM      9  O   UNL A   1      33.025  29.052  22.894  1.00  0.00    -0.275 OA
ATOM     10  H   UNL A   1      34.556  29.333  24.694  1.00  0.00     0.163 HD
BRANCH   8  11
ATOM     11  C   UNL A   1      31.756  27.500  24.232  1.00  0.00     0.053 C 
ATOM     12  H   UNL A   1      31.384  27.715  25.212  1.00  0.00     0.042 H 
ATOM     13  H   UNL A   1      31.037  27.683  23.461  1.00  0.00     0.042 H 
BRANCH  11  14
ATOM     14  C   UNL A   1      32.087  26.044  24.167  1.00  0.00    -0.027 C 
ATOM     15  C   UNL A   1      32.077  25.117  25.155  1.00  0.00    -0.039 C 
ATOM     16  C   UNL A   1      32.494  23.812  24.616  1.00  0.00    -0.014 C 
ATOM     17  C   UNL A   1      32.440  25.358  22.911  1.00  0.00    -0.011 A 
ATOM     18  C   UNL A   1      32.639  23.987  23.156  1.00  0.00    -0.010 A 
ATOM     19  C   UNL A   1      32.738  22.721  25.370  1.00  0.00    -0.047 C 
ATOM     20  C   UNL A   1      32.556  25.872  21.626  1.00  0.00    -0.018 A 
ATOM     21  C   UNL A   1      32.887  23.114  22.105  1.00  0.00    -0.051 A 
ATOM     22  H   UNL A   1      32.603  22.809  26.390  1.00  0.00     0.064 H 
ATOM     23  C   UNL A   1      32.864  24.996  20.590  1.00  0.00     0.123 A 
ATOM     24  H   UNL A   1      32.417  26.879  21.444  1.00  0.00     0.066 H 
ATOM     25  C   UNL A   1      33.018  23.629  20.813  1.00  0.00    -0.026 A 
ATOM     26  H   UNL A   1      32.972  22.100  22.275  1.00  0.00     0.063 H 
ATOM     27  F   UNL A   1      32.998  25.471  19.344  1.00  0.00    -0.207 F 
ATOM     28  H   UNL A   1      33.229  22.997  20.025  1.00  0.00     0.065 H 
BRANCH  15  29
ATOM     29  C   UNL A   1      31.699  25.305  26.588  1.00  0.00    -0.039 C 
ATOM     30  H   UNL A   1      31.880  26.320  26.875  1.00  0.00     0.028 H 
ATOM     31  H   UNL A   1      32.284  24.651  27.201  1.00  0.00     0.028 H 
ATOM     32  H   UNL A   1      30.661  25.077  26.716  1.00  0.00     0.028 H 
ENDBRANCH  15  29
BRANCH  19  33
ATOM     33  C   UNL A   1      33.178  21.421  24.859  1.00  0.00    -0.025 A 
ATOM     34  C   UNL A   1      32.259  20.483  24.376  1.00  0.00    -0.050 A 
ATOM     35  C   UNL A   1      34.523  21.065  24.981  1.00  0.00    -0.050 A 
ATOM     36  C   UNL A   1      32.658  19.161  24.156  1.00  0.00    -0.003 A 
ATOM     37  H   UNL A   1      31.285  20.767  24.182  1.00  0.00     0.063 H 
ATOM     38  C   UNL A   1      34.923  19.748  24.742  1.00  0.00    -0.003 A 
ATOM     39  H   UNL A   1      35.221  21.776  25.249  1.00  0.00     0.063 H 
ATOM     40  C   UNL A   1      33.988  18.776  24.368  1.00  0.00     0.189 A 
ATOM     41  H   UNL A   1      31.968  18.463  23.836  1.00  0.00     0.068 H 
ATOM     42  H   UNL A   1      35.918  19.490  24.842  1.00  0.00     0.068 H 
BRANCH  40  43
ATOM     43  S   UNL A   1      34.419  17.015  24.403  1.00  0.00     0.178 S 
BRANCH  43  44
ATOM     44  C   UNL A   1      32.898  16.369  25.143  1.00  0.00     0.137 C 
ATOM     45  H   UNL A   1      33.033  15.338  25.394  1.00  0.00     0.085 H 
ATOM     46  H   UNL A   1      32.094  16.463  24.443  1.00  0.00     0.085 H 
ATOM     47  H   UNL A   1      32.668  16.925  26.028  1.00  0.00     0.085 H 
ENDBRANCH  43  44
BRANCH  43  48
ATOM     48  O   UNL A   1      33.933  16.712  22.899  1.00  0.00    -0.182 OA
ATOM     49  H   UNL A   1      34.395  17.304  22.285  1.00  0.00     0.283 HD
ENDBRANCH  43  48
ENDBRANCH  40  43
ENDBRANCH  19  33
ENDBRANCH  11  14
ENDBRANCH   8  11
ENDBRANCH   4   7
ENDBRANCH   1   4
BRANCH   1  50
ATOM     50  C   UNL A   1      33.133  30.156  27.141  1.00  0.00    -0.052 C 
ATOM     51  H   UNL A   1      33.855  30.476  26.420  1.00  0.00     0.027 H 
ATOM     52  H   UNL A   1      33.303  30.550  28.122  1.00  0.00     0.027 H 
BRANCH  50  53
ATOM     53  C   UNL A   1      31.762  30.687  26.706  1.00  0.00    -0.052 C 
ATOM     54  H   UNL A   1      31.020  30.237  27.331  1.00  0.00     0.027 H 
ATOM     55  H   UNL A   1      31.660  30.434  25.672  1.00  0.00     0.027 H 
BRANCH  53  56
ATOM     56  C   UNL A   1      31.593  32.204  26.791  1.00  0.00    -0.036 C 
ATOM     57  H   UNL A   1      30.760  32.413  27.429  1.00  0.00     0.028 H 
ATOM     58  H   UNL A   1      31.453  32.549  25.788  1.00  0.00     0.028 H 
BRANCH  56  59
ATOM     59  C   UNL A   1      32.805  32.950  27.337  1.00  0.00     0.018 C 
ATOM     60  H   UNL A   1      33.579  32.933  26.597  1.00  0.00     0.049 H 
ATOM     61  H   UNL A   1      33.107  32.458  28.237  1.00  0.00     0.049 H 
BRANCH  59  62
ATOM     62  N   UNL A   1      32.511  34.336  27.671  1.00  0.00    -0.352 N 
ATOM     63  C   UNL A   1      33.030  35.116  28.676  1.00  0.00     0.251 C 
ATOM     64  H   UNL A   1      31.845  34.776  27.095  1.00  0.00     0.163 HD
ATOM     65  O   UNL A   1      32.559  36.226  28.908  1.00  0.00    -0.269 OA
BRANCH  63  66
ATOM     66  C   UNL A   1      34.139  34.598  29.508  1.00  0.00     0.039 A 
ATOM     67  C   UNL A   1      35.449  34.601  29.027  1.00  0.00    -0.049 A 
ATOM     68  C   UNL A   1      33.858  34.078  30.774  1.00  0.00    -0.049 A 
ATOM     69  C   UNL A   1      36.441  33.927  29.731  1.00  0.00    -0.053 A 
ATOM     70  H   UNL A   1      35.681  35.099  28.154  1.00  0.00     0.063 H 
ATOM     71  C   UNL A   1      34.877  33.479  31.522  1.00  0.00    -0.053 A 
ATOM     72  H   UNL A   1      32.901  34.136  31.157  1.00  0.00     0.063 H 
ATOM     73  C   UNL A   1      36.166  33.348  30.982  1.00  0.00    -0.014 A 
ATOM     74  H   UNL A   1      37.389  33.851  29.331  1.00  0.00     0.063 H 
ATOM     75  H   UNL A   1      34.681  33.131  32.474  1.00  0.00     0.063 H 
BRANCH  73  76
ATOM     76  C   UNL A   1      37.241  32.602  31.687  1.00  0.00     0.031 A 
ATOM     77  C   UNL A   1      37.978  31.482  31.001  1.00  0.00     0.074 A 
ATOM     78  C   UNL A   1      37.609  32.989  32.924  1.00  0.00     0.049 A 
ATOM     79  N   UNL A   1      38.982  30.764  31.441  1.00  0.00    -0.248 NA
ATOM     80  C   UNL A   1      37.533  31.116  29.648  1.00  0.00    -0.034 C 
ATOM     81  C   UNL A   1      36.976  34.065  33.690  1.00  0.00    -0.036 A 
ATOM     82  N   UNL A   1      38.621  32.552  33.741  1.00  0.00    -0.354 N 
ATOM     83  C   UNL A   1      39.276  29.859  30.429  1.00  0.00     0.074 A 
ATOM     84  C   UNL A   1      38.326  30.091  29.365  1.00  0.00    -0.034 C 
ATOM     85  H   UNL A   1      36.795  31.545  29.068  1.00  0.00     0.065 H 
ATOM     86  C   UNL A   1      37.653  34.247  34.833  1.00  0.00    -0.036 A 
ATOM     87  H   UNL A   1      36.143  34.598  33.396  1.00  0.00     0.065 H 
ATOM     88  C   UNL A   1      38.727  33.263  34.912  1.00  0.00     0.049 A 
ATOM     89  H   UNL A   1      39.214  31.801  33.510  1.00  0.00     0.167 HD
ATOM     90  C   UNL A   1      40.264  28.933  30.386  1.00  0.00     0.037 A 
ATOM     91  H   UNL A   1      38.273  29.533  28.498  1.00  0.00     0.065 H 
ATOM     92  H   UNL A   1      37.446  34.967  35.543  1.00  0.00     0.065 H 
ATOM     93  C   UNL A   1      39.589  33.133  35.939  1.00  0.00     0.037 A 
ATOM     94  C   UNL A   1      41.228  28.722  31.434  1.00  0.00     0.049 A 
ATOM     95  C   UNL A   1      40.645  32.067  35.881  1.00  0.00     0.074 A 
ATOM     96  C   UNL A   1      42.282  27.825  31.464  1.00  0.00    -0.036 A 
ATOM     97  N   UNL A   1      41.258  29.416  32.632  1.00  0.00    -0.354 N 
ATOM     98  N   UNL A   1      40.923  31.233  34.909  1.00  0.00    -0.248 NA
ATOM     99  C   UNL A   1      41.500  31.915  37.066  1.00  0.00    -0.034 C 
ATOM    100  C   UNL A   1      42.925  27.947  32.699  1.00  0.00    -0.036 A 
ATOM    101  H   UNL A   1      42.549  27.178  30.706  1.00  0.00     0.065 H 
ATOM    102  C   UNL A   1      42.299  28.952  33.421  1.00  0.00     0.049 A 
ATOM    103  H   UNL A   1      40.633  30.134  32.886  1.00  0.00     0.167 HD
ATOM    104  C   UNL A   1      41.987  30.463  35.361  1.00  0.00     0.074 A 
ATOM    105  C   UNL A   1      42.321  30.947  36.683  1.00  0.00    -0.034 C 
ATOM    106  H   UNL A   1      41.470  32.428  37.962  1.00  0.00     0.065 H 
ATOM    107  H   UNL A   1      43.728  27.386  33.020  1.00  0.00     0.065 H 
ATOM    108  C   UNL A   1      42.621  29.443  34.735  1.00  0.00     0.037 A 
ATOM    109  H   UNL A   1      43.100  30.584  37.256  1.00  0.00     0.065 H 
BRANCH  90 110
ATOM    110  C   UNL A   1      40.368  28.069  29.163  1.00  0.00     0.064 A 
ATOM    111  C   UNL A   1      39.636  26.878  29.042  1.00  0.00     0.173 A 
ATOM    112  C   UNL A   1      41.138  28.480  28.064  1.00  0.00     0.173 A 
ATOM    113  F   UNL A   1      38.892  26.437  30.068  1.00  0.00    -0.203 F 
ATOM    114  C   UNL A   1      39.679  26.127  27.871  1.00  0.00     0.198 A 
ATOM    115  C   UNL A   1      41.159  27.740  26.885  1.00  0.00     0.198 A 
ATOM    116  F   UNL A   1      41.850  29.616  28.124  1.00  0.00    -0.203 F 
ATOM    117  F   UNL A   1      38.991  24.979  27.788  1.00  0.00    -0.200 F 
ATOM    118  C   UNL A   1      40.431  26.563  26.790  1.00  0.00     0.200 A 
ATOM    119  F   UNL A   1      41.873  28.171  25.836  1.00  0.00    -0.200 F 
ATOM    120  F   UNL A   1      40.455  25.849  25.656  1.00  0.00    -0.200 F 
ENDBRANCH  90 110
BRANCH  93 121
ATOM    121  C   UNL A   1      39.485  34.047  37.105  1.00  0.00     0.064 A 
ATOM    122  C   UNL A   1      38.752  33.683  38.243  1.00  0.00     0.173 A 
ATOM    123  C   UNL A   1      40.132  35.292  37.117  1.00  0.00     0.173 A 
ATOM    124  F   UNL A   1      38.098  32.513  38.271  1.00  0.00    -0.203 F 
ATOM    125  C   UNL A   1      38.665  34.532  39.344  1.00  0.00     0.198 A 
ATOM    126  C   UNL A   1      40.069  36.127  38.230  1.00  0.00     0.198 A 
ATOM    127  F   UNL A   1      40.848  35.687  36.052  1.00  0.00    -0.203 F 
ATOM    128  F   UNL A   1      37.931  34.175  40.407  1.00  0.00    -0.200 F 
ATOM    129  C   UNL A   1      39.332  35.749  39.340  1.00  0.00     0.200 A 
ATOM    130  F   UNL A   1      40.728  37.294  38.227  1.00  0.00    -0.200 F 
ATOM    131  F   UNL A   1      39.259  36.559  40.406  1.00  0.00    -0.200 F 
ENDBRANCH  93 121
BRANCH 108 132
ATOM    132  C   UNL A   1      43.745  28.772  35.468  1.00  0.00     0.064 A 
ATOM    133  C   UNL A   1      45.072  29.199  35.312  1.00  0.00     0.173 A 
ATOM    134  C   UNL A   1      43.484  27.750  36.393  1.00  0.00     0.173 A 
ATOM    135  F   UNL A   1      45.371  30.162  34.429  1.00  0.00    -0.203 F 
ATOM    136  C   UNL A   1      46.099  28.620  36.050  1.00  0.00     0.198 A 
ATOM    137  C   UNL A   1      44.511  27.192  37.149  1.00  0.00     0.198 A 
ATOM    138  F   UNL A   1      42.230  27.313  36.583  1.00  0.00    -0.203 F 
ATOM    139  F   UNL A   1      47.363  29.023  35.866  1.00  0.00    -0.200 F 
ATOM    140  C   UNL A   1      45.817  27.625  36.975  1.00  0.00     0.200 A 
ATOM    141  F   UNL A   1      44.235  26.242  38.053  1.00  0.00    -0.200 F 
ATOM    142  F   UNL A   1      46.805  27.082  37.699  1.00  0.00    -0.200 F 
ENDBRANCH 108 132
ENDBRANCH  73  76
ENDBRANCH  63  66
ENDBRANCH  59  62
ENDBRANCH  56  59
ENDBRANCH  53  56
ENDBRANCH  50  53
ENDBRANCH   1  50
TORSDOF 19
ENDMDL
MODEL 4
REMARK VINA RESULT:     -12.7      2.684      5.027
REMARK SMILES CC1=C(CC(=O)NCCCCCCNC(=O)c2ccc(-c3c4nc(c(-c5c(F)c(F)c(F)c(F)c5F)c5ccc([nH]5)c(-c5c(F)c(F)c(F)c(F)c5F)c5nc(c(-c6c(F)c(F)c(F)c(F)c6F)c6ccc3[nH]6)C=C5)C=C4)cc2)c2cc(F)ccc2/C1=C\c1ccc([S@@+](C)O)cc1
REMARK SMILES IDX 9 1 8 4 7 7 5 8 6 9 4 11 3 14 2 15 87 16 80 17 86 18 88 19
REMARK SMILES IDX 81 20 85 21 82 23 84 25 83 27 1 29 89 33 90 34 97 35 91 36
REMARK SMILES IDX 96 38 92 40 93 43 94 44 95 48 10 50 11 53 12 56 13 59 14 62
REMARK SMILES IDX 15 63 16 65 17 66 18 67 79 68 19 69 78 71 20 73 21 76 22 77
REMARK SMILES IDX 72 78 23 79 77 80 71 81 73 82 24 83 76 84 70 86 69 88 25 90
REMARK SMILES IDX 57 93 37 94 56 95 38 96 41 97 55 98 74 99 39 100 40 102
REMARK SMILES IDX 54 104 75 105 42 108 26 110 27 111 35 112 28 113 29 114
REMARK SMILES IDX 33 115 36 116 30 117 31 118 34 119 32 120 58 121 59 122
REMARK SMILES IDX 67 123 60 124 61 125 65 126 68 127 62 128 63 129 66 130
REMARK SMILES IDX 64 131 43 132 44 133 52 134 45 135 46 136 50 137 53 138
REMARK SMILES IDX 47 139 48 140 51 141 49 142
REMARK H PARENT 9 2 9 3 8 5 8 6 7 10 4 12 4 13 88 22 81 24 85 26 84 28 1 30
REMARK H PARENT 1 31 1 32 90 37 97 39 91 41 96 42 94 45 94 46 94 47 95 49
REMARK H PARENT 10 51 10 52 11 54 11 55 12 57 12 58 13 60 13 61 14 64 18 70
REMARK H PARENT 79 72 19 74 78 75 77 85 71 87 73 89 76 91 70 92 38 101 41 103
REMARK H PARENT 74 106 39 107 75 109
REMARK Flexibility Score: inf
ROOT
ATOM      1  C   UNL A   1      35.626  24.081  25.287  1.00  0.00    -0.036 C 
ATOM      2  H   UNL A   1      36.161  24.654  24.559  1.00  0.00     0.028 H 
ATOM      3  H   UNL A   1      36.216  23.859  26.151  1.00  0.00     0.028 H 
ENDROOT
BRANCH   1   4
ATOM      4  C   UNL A   1      35.246  22.740  24.656  1.00  0.00     0.017 C 
ATOM      5  H   UNL A   1      34.478  22.902  23.929  1.00  0.00     0.049 H 
ATOM      6  H   UNL A   1      36.119  22.323  24.199  1.00  0.00     0.049 H 
BRANCH   4   7
ATOM      7  N   UNL A   1      34.762  21.808  25.651  1.00  0.00    -0.356 N 
ATOM      8  C   UNL A   1      33.559  21.172  25.718  1.00  0.00     0.224 C 
ATOM      9  O   UNL A   1      33.318  20.483  26.712  1.00  0.00    -0.275 OA
ATOM     10  H   UNL A   1      35.391  21.604  26.382  1.00  0.00     0.163 HD
BRANCH   8  11
ATOM     11  C   UNL A   1      32.565  21.269  24.563  1.00  0.00     0.053 C 
ATOM     12  H   UNL A   1      33.075  21.001  23.661  1.00  0.00     0.042 H 
ATOM     13  H   UNL A   1      31.758  20.607  24.799  1.00  0.00     0.042 H 
BRANCH  11  14
ATOM     14  C   UNL A   1      31.962  22.624  24.375  1.00  0.00    -0.027 C 
ATOM     15  C   UNL A   1      31.233  23.365  25.243  1.00  0.00    -0.039 C 
ATOM     16  C   UNL A   1      30.840  24.632  24.603  1.00  0.00    -0.014 C 
ATOM     17  C   UNL A   1      32.142  23.416  23.146  1.00  0.00    -0.011 A 
ATOM     18  C   UNL A   1      31.510  24.666  23.288  1.00  0.00    -0.010 A 
ATOM     19  C   UNL A   1      29.981  25.521  25.144  1.00  0.00    -0.047 C 
ATOM     20  C   UNL A   1      32.832  23.100  21.983  1.00  0.00    -0.018 A 
ATOM     21  C   UNL A   1      31.626  25.628  22.293  1.00  0.00    -0.051 A 
ATOM     22  H   UNL A   1      29.593  25.300  26.074  1.00  0.00     0.064 H 
ATOM     23  C   UNL A   1      32.890  24.052  20.969  1.00  0.00     0.123 A 
ATOM     24  H   UNL A   1      33.291  22.181  21.873  1.00  0.00     0.066 H 
ATOM     25  C   UNL A   1      32.307  25.309  21.117  1.00  0.00    -0.026 A 
ATOM     26  H   UNL A   1      31.215  26.566  22.422  1.00  0.00     0.063 H 
ATOM     27  F   UNL A   1      33.535  23.763  19.831  1.00  0.00    -0.207 F 
ATOM     28  H   UNL A   1      32.378  26.004  20.358  1.00  0.00     0.065 H 
BRANCH  15  29
ATOM     29  C   UNL A   1      30.859  23.031  26.650  1.00  0.00    -0.039 C 
ATOM     30  H   UNL A   1      30.661  21.982  26.727  1.00  0.00     0.028 H 
ATOM     31  H   UNL A   1      29.983  23.580  26.927  1.00  0.00     0.028 H 
ATOM     32  H   UNL A   1      31.664  23.292  27.305  1.00  0.00     0.028 H 
ENDBRANCH  15  29
BRANCH  19  33
ATOM     33  C   UNL A   1      29.555  26.774  24.515  1.00  0.00    -0.025 A 
ATOM     34  C   UNL A   1      28.309  26.882  23.887  1.00  0.00    -0.050 A 
ATOM     35  C   UNL A   1      30.462  27.831  24.428  1.00  0.00    -0.050 A 
ATOM     36  C   UNL A   1      28.035  27.977  23.062  1.00  0.00    -0.003 A 
ATOM     37  H   UNL A   1      27.591  26.154  24.034  1.00  0.00     0.063 H 
ATOM     38  C   UNL A   1      30.178  28.933  23.617  1.00  0.00    -0.003 A 
ATOM     39  H   UNL A   1      31.344  27.798  24.962  1.00  0.00     0.063 H 
ATOM     40  C   UNL A   1      28.980  28.996  22.896  1.00  0.00     0.189 A 
ATOM     41  H   UNL A   1      27.129  28.035  22.571  1.00  0.00     0.068 H 
ATOM     42  H   UNL A   1      30.857  29.708  23.551  1.00  0.00     0.068 H 
BRANCH  40  43
ATOM     43  S   UNL A   1      28.756  30.226  21.582  1.00  0.00     0.178 S 
BRANCH  43  44
ATOM     44  C   UNL A   1      28.842  31.729  22.588  1.00  0.00     0.137 C 
ATOM     45  H   UNL A   1      27.953  32.306  22.444  1.00  0.00     0.085 H 
ATOM     46  H   UNL A   1      29.693  32.306  22.293  1.00  0.00     0.085 H 
ATOM     47  H   UNL A   1      28.931  31.462  23.620  1.00  0.00     0.085 H 
ENDBRANCH  43  44
BRANCH  43  48
ATOM     48  O   UNL A   1      30.311  30.293  21.172  1.00  0.00    -0.182 OA
ATOM     49  H   UNL A   1      30.827  30.635  21.919  1.00  0.00     0.283 HD
ENDBRANCH  43  48
ENDBRANCH  40  43
ENDBRANCH  19  33
ENDBRANCH  11  14
ENDBRANCH   8  11
ENDBRANCH   4   7
ENDBRANCH   1   4
BRANCH   1  50
ATOM     50  C   UNL A   1      34.426  24.906  25.767  1.00  0.00    -0.052 C 
ATOM     51  H   UNL A   1      34.623  25.224  26.770  1.00  0.00     0.027 H 
ATOM     52  H   UNL A   1      33.573  24.266  25.679  1.00  0.00     0.027 H 
BRANCH  50  53
ATOM     53  C   UNL A   1      34.106  26.151  24.930  1.00  0.00    -0.052 C 
ATOM     54  H   UNL A   1      33.340  25.891  24.231  1.00  0.00     0.027 H 
ATOM     55  H   UNL A   1      35.026  26.442  24.469  1.00  0.00     0.027 H 
BRANCH  53  56
ATOM     56  C   UNL A   1      33.626  27.366  25.726  1.00  0.00    -0.036 C 
ATOM     57  H   UNL A   1      33.967  27.260  26.735  1.00  0.00     0.028 H 
ATOM     58  H   UNL A   1      32.560  27.381  25.639  1.00  0.00     0.028 H 
BRANCH  56  59
ATOM     59  C   UNL A   1      34.120  28.707  25.197  1.00  0.00     0.018 C 
ATOM     60  H   UNL A   1      34.156  28.662  24.129  1.00  0.00     0.049 H 
ATOM     61  H   UNL A   1      35.087  28.884  25.619  1.00  0.00     0.049 H 
BRANCH  59  62
ATOM     62  N   UNL A   1      33.261  29.817  25.587  1.00  0.00    -0.352 N 
ATOM     63  C   UNL A   1      33.355  30.645  26.681  1.00  0.00     0.251 C 
ATOM     64  H   UNL A   1      32.506  29.999  24.982  1.00  0.00     0.163 HD
ATOM     65  O   UNL A   1      32.456  31.441  26.936  1.00  0.00    -0.269 OA
BRANCH  63  66
ATOM     66  C   UNL A   1      34.530  30.550  27.574  1.00  0.00     0.039 A 
ATOM     67  C   UNL A   1      35.483  31.569  27.607  1.00  0.00    -0.049 A 
ATOM     68  C   UNL A   1      34.693  29.411  28.369  1.00  0.00    -0.049 A 
ATOM     69  C   UNL A   1      36.677  31.372  28.292  1.00  0.00    -0.053 A 
ATOM     70  H   UNL A   1      35.303  32.463  27.125  1.00  0.00     0.063 H 
ATOM     71  C   UNL A   1      35.857  29.255  29.129  1.00  0.00    -0.053 A 
ATOM     72  H   UNL A   1      33.956  28.689  28.396  1.00  0.00     0.063 H 
ATOM     73  C   UNL A   1      36.884  30.208  29.053  1.00  0.00    -0.014 A 
ATOM     74  H   UNL A   1      37.419  32.087  28.240  1.00  0.00     0.063 H 
ATOM     75  H   UNL A   1      35.961  28.435  29.748  1.00  0.00     0.063 H 
BRANCH  73  76
ATOM     76  C   UNL A   1      38.189  30.014  29.740  1.00  0.00     0.031 A 
ATOM     77  C   UNL A   1      38.429  30.587  31.111  1.00  0.00     0.074 A 
ATOM     78  C   UNL A   1      39.132  29.249  29.155  1.00  0.00     0.049 A 
ATOM     79  N   UNL A   1      39.482  30.465  31.882  1.00  0.00    -0.248 NA
ATOM     80  C   UNL A   1      37.355  31.403  31.696  1.00  0.00    -0.034 C 
ATOM     81  C   UNL A   1      39.012  28.634  27.832  1.00  0.00    -0.036 A 
ATOM     82  N   UNL A   1      40.357  28.829  29.608  1.00  0.00    -0.354 N 
ATOM     83  C   UNL A   1      39.201  31.196  33.030  1.00  0.00     0.074 A 
ATOM     84  C   UNL A   1      37.896  31.788  32.844  1.00  0.00    -0.034 C 
ATOM     85  H   UNL A   1      36.422  31.621  31.313  1.00  0.00     0.065 H 
ATOM     86  C   UNL A   1      40.087  27.865  27.607  1.00  0.00    -0.036 A 
ATOM     87  H   UNL A   1      38.226  28.770  27.178  1.00  0.00     0.065 H 
ATOM     88  C   UNL A   1      41.001  27.980  28.739  1.00  0.00     0.049 A 
ATOM     89  H   UNL A   1      40.739  29.109  30.470  1.00  0.00     0.167 HD
ATOM     90  C   UNL A   1      39.957  31.341  34.144  1.00  0.00     0.037 A 
ATOM     91  H   UNL A   1      37.444  32.426  33.518  1.00  0.00     0.065 H 
ATOM     92  H   UNL A   1      40.244  27.286  26.767  1.00  0.00     0.065 H 
ATOM     93  C   UNL A   1      42.195  27.368  28.840  1.00  0.00     0.037 A 
ATOM     94  C   UNL A   1      41.244  30.727  34.340  1.00  0.00     0.049 A 
ATOM     95  C   UNL A   1      43.031  27.584  30.070  1.00  0.00     0.074 A 
ATOM     96  C   UNL A   1      42.070  30.795  35.449  1.00  0.00    -0.036 A 
ATOM     97  N   UNL A   1      41.891  29.931  33.408  1.00  0.00    -0.354 N 
ATOM     98  N   UNL A   1      42.743  28.262  31.153  1.00  0.00    -0.248 NA
ATOM     99  C   UNL A   1      44.362  26.962  30.086  1.00  0.00    -0.034 C 
ATOM    100  C   UNL A   1      43.235  30.075  35.173  1.00  0.00    -0.036 A 
ATOM    101  H   UNL A   1      41.861  31.292  36.330  1.00  0.00     0.065 H 
ATOM    102  C   UNL A   1      43.116  29.520  33.908  1.00  0.00     0.049 A 
ATOM    103  H   UNL A   1      41.532  29.691  32.523  1.00  0.00     0.167 HD
ATOM    104  C   UNL A   1      43.850  28.143  31.982  1.00  0.00     0.074 A 
ATOM    105  C   UNL A   1      44.805  27.306  31.287  1.00  0.00    -0.034 C 
ATOM    106  H   UNL A   1      44.828  26.403  29.354  1.00  0.00     0.065 H 
ATOM    107  H   UNL A   1      44.045  29.973  35.802  1.00  0.00     0.065 H 
ATOM    108  C   UNL A   1      44.057  28.686  33.205  1.00  0.00     0.037 A 
ATOM    109  H   UNL A   1      45.715  27.014  31.676  1.00  0.00     0.065 H 
BRANCH  90 110
ATOM    110  C   UNL A   1      39.419  32.195  35.255  1.00  0.00     0.064 A 
ATOM    111  C   UNL A   1      38.646  31.648  36.291  1.00  0.00     0.173 A 
ATOM    112  C   UNL A   1      39.751  33.556  35.333  1.00  0.00     0.173 A 
ATOM    113  F   UNL A   1      38.293  30.354  36.257  1.00  0.00    -0.203 F 
ATOM    114  C   UNL A   1      38.219  32.434  37.357  1.00  0.00     0.198 A 
ATOM    115  C   UNL A   1      39.344  34.334  36.414  1.00  0.00     0.198 A 
ATOM    116  F   UNL A   1      40.495  34.127  34.373  1.00  0.00    -0.203 F 
ATOM    117  F   UNL A   1      37.461  31.895  38.323  1.00  0.00    -0.200 F 
ATOM    118  C   UNL A   1      38.577  33.772  37.424  1.00  0.00     0.200 A 
ATOM    119  F   UNL A   1      39.704  35.622  36.485  1.00  0.00    -0.200 F 
ATOM    120  F   UNL A   1      38.182  34.523  38.462  1.00  0.00    -0.200 F 
ENDBRANCH  90 110
BRANCH  93 121
ATOM    121  C   UNL A   1      42.664  26.485  27.740  1.00  0.00     0.064 A 
ATOM    122  C   UNL A   1      43.543  26.962  26.758  1.00  0.00     0.173 A 
ATOM    123  C   UNL A   1      42.261  25.144  27.659  1.00  0.00     0.173 A 
ATOM    124  F   UNL A   1      43.939  28.244  26.781  1.00  0.00    -0.203 F 
ATOM    125  C   UNL A   1      43.995  26.134  25.735  1.00  0.00     0.198 A 
ATOM    126  C   UNL A   1      42.738  24.308  26.652  1.00  0.00     0.198 A 
ATOM    127  F   UNL A   1      41.422  24.638  28.576  1.00  0.00    -0.203 F 
ATOM    128  F   UNL A   1      44.809  26.624  24.789  1.00  0.00    -0.200 F 
ATOM    129  C   UNL A   1      43.600  24.805  25.687  1.00  0.00     0.200 A 
ATOM    130  F   UNL A   1      42.367  23.021  26.621  1.00  0.00    -0.200 F 
ATOM    131  F   UNL A   1      44.048  24.004  24.710  1.00  0.00    -0.200 F 
ENDBRANCH  93 121
BRANCH 108 132
ATOM    132  C   UNL A   1      45.365  28.398  33.881  1.00  0.00     0.064 A 
ATOM    133  C   UNL A   1      45.536  27.258  34.678  1.00  0.00     0.173 A 
ATOM    134  C   UNL A   1      46.477  29.225  33.663  1.00  0.00     0.173 A 
ATOM    135  F   UNL A   1      44.498  26.446  34.926  1.00  0.00    -0.203 F 
ATOM    136  C   UNL A   1      46.773  26.959  35.241  1.00  0.00     0.198 A 
ATOM    137  C   UNL A   1      47.719  28.909  34.206  1.00  0.00     0.198 A 
ATOM    138  F   UNL A   1      46.365  30.323  32.900  1.00  0.00    -0.203 F 
ATOM    139  F   UNL A   1      46.908  25.879  36.022  1.00  0.00    -0.200 F 
ATOM    140  C   UNL A   1      47.866  27.779  34.995  1.00  0.00     0.200 A 
ATOM    141  F   UNL A   1      48.777  29.692  33.955  1.00  0.00    -0.200 F 
ATOM    142  F   UNL A   1      49.060  27.479  35.522  1.00  0.00    -0.200 F 
ENDBRANCH 108 132
ENDBRANCH  73  76
ENDBRANCH  63  66
ENDBRANCH  59  62
ENDBRANCH  56  59
ENDBRANCH  53  56
ENDBRANCH  50  53
ENDBRANCH   1  50
TORSDOF 19
ENDMDL
MODEL 5
REMARK VINA RESULT:     -12.5      3.586      8.108
REMARK SMILES CC1=C(CC(=O)NCCCCCCNC(=O)c2ccc(-c3c4nc(c(-c5c(F)c(F)c(F)c(F)c5F)c5ccc([nH]5)c(-c5c(F)c(F)c(F)c(F)c5F)c5nc(c(-c6c(F)c(F)c(F)c(F)c6F)c6ccc3[nH]6)C=C5)C=C4)cc2)c2cc(F)ccc2/C1=C\c1ccc([S@@+](C)O)cc1
REMARK SMILES IDX 9 1 8 4 7 7 5 8 6 9 4 11 3 14 2 15 87 16 80 17 86 18 88 19
REMARK SMILES IDX 81 20 85 21 82 23 84 25 83 27 1 29 89 33 90 34 97 35 91 36
REMARK SMILES IDX 96 38 92 40 93 43 94 44 95 48 10 50 11 53 12 56 13 59 14 62
REMARK SMILES IDX 15 63 16 65 17 66 18 67 79 68 19 69 78 71 20 73 21 76 22 77
REMARK SMILES IDX 72 78 23 79 77 80 71 81 73 82 24 83 76 84 70 86 69 88 25 90
REMARK SMILES IDX 57 93 37 94 56 95 38 96 41 97 55 98 74 99 39 100 40 102
REMARK SMILES IDX 54 104 75 105 42 108 26 110 27 111 35 112 28 113 29 114
REMARK SMILES IDX 33 115 36 116 30 117 31 118 34 119 32 120 58 121 59 122
REMARK SMILES IDX 67 123 60 124 61 125 65 126 68 127 62 128 63 129 66 130
REMARK SMILES IDX 64 131 43 132 44 133 52 134 45 135 46 136 50 137 53 138
REMARK SMILES IDX 47 139 48 140 51 141 49 142
REMARK H PARENT 9 2 9 3 8 5 8 6 7 10 4 12 4 13 88 22 81 24 85 26 84 28 1 30
REMARK H PARENT 1 31 1 32 90 37 97 39 91 41 96 42 94 45 94 46 94 47 95 49
REMARK H PARENT 10 51 10 52 11 54 11 55 12 57 12 58 13 60 13 61 14 64 18 70
REMARK H PARENT 79 72 19 74 78 75 77 85 71 87 73 89 76 91 70 92 38 101 41 103
REMARK H PARENT 74 106 39 107 75 109
REMARK Flexibility Score: inf
ROOT
ATOM      1  C   UNL A   1      33.960  26.665  25.319  1.00  0.00    -0.036 C 
ATOM      2  H   UNL A   1      33.105  26.439  25.920  1.00  0.00     0.028 H 
ATOM      3  H   UNL A   1      34.665  27.292  25.824  1.00  0.00     0.028 H 
ENDROOT
BRANCH   1   4
ATOM      4  C   UNL A   1      33.489  27.436  24.084  1.00  0.00     0.017 C 
ATOM      5  H   UNL A   1      34.267  28.100  23.770  1.00  0.00     0.049 H 
ATOM      6  H   UNL A   1      33.261  26.730  23.313  1.00  0.00     0.049 H 
BRANCH   4   7
ATOM      7  N   UNL A   1      32.297  28.206  24.366  1.00  0.00    -0.356 N 
ATOM      8  C   UNL A   1      31.091  28.182  23.734  1.00  0.00     0.224 C 
ATOM      9  O   UNL A   1      30.233  28.995  24.085  1.00  0.00    -0.275 OA
ATOM     10  H   UNL A   1      32.368  28.835  25.121  1.00  0.00     0.163 HD
BRANCH   8  11
ATOM     11  C   UNL A   1      30.797  27.133  22.663  1.00  0.00     0.053 C 
ATOM     12  H   UNL A   1      29.741  27.122  22.488  1.00  0.00     0.042 H 
ATOM     13  H   UNL A   1      31.361  27.414  21.799  1.00  0.00     0.042 H 
BRANCH  11  14
ATOM     14  C   UNL A   1      31.226  25.746  23.019  1.00  0.00    -0.027 C 
ATOM     15  C   UNL A   1      32.101  24.930  22.384  1.00  0.00    -0.039 C 
ATOM     16  C   UNL A   1      32.192  23.647  23.099  1.00  0.00    -0.014 C 
ATOM     17  C   UNL A   1      30.761  25.050  24.231  1.00  0.00    -0.011 A 
ATOM     18  C   UNL A   1      31.381  23.790  24.326  1.00  0.00    -0.010 A 
ATOM     19  C   UNL A   1      32.855  22.566  22.640  1.00  0.00    -0.047 C 
ATOM     20  C   UNL A   1      29.881  25.481  25.216  1.00  0.00    -0.018 A 
ATOM     21  C   UNL A   1      31.174  22.987  25.439  1.00  0.00    -0.051 A 
ATOM     22  H   UNL A   1      33.344  22.658  21.735  1.00  0.00     0.064 H 
ATOM     23  C   UNL A   1      29.637  24.641  26.298  1.00  0.00     0.123 A 
ATOM     24  H   UNL A   1      29.420  26.403  25.147  1.00  0.00     0.066 H 
ATOM     25  C   UNL A   1      30.279  23.411  26.424  1.00  0.00    -0.026 A 
ATOM     26  H   UNL A   1      31.675  22.090  25.539  1.00  0.00     0.063 H 
ATOM     27  F   UNL A   1      28.778  25.027  27.251  1.00  0.00    -0.207 F 
ATOM     28  H   UNL A   1      30.094  22.813  27.244  1.00  0.00     0.065 H 
BRANCH  15  29
ATOM     29  C   UNL A   1      32.903  25.218  21.156  1.00  0.00    -0.039 C 
ATOM     30  H   UNL A   1      33.899  25.494  21.437  1.00  0.00     0.028 H 
ATOM     31  H   UNL A   1      32.450  26.022  20.614  1.00  0.00     0.028 H 
ATOM     32  H   UNL A   1      32.935  24.346  20.538  1.00  0.00     0.028 H 
ENDBRANCH  15  29
BRANCH  19  33
ATOM     33  C   UNL A   1      32.937  21.272  23.320  1.00  0.00    -0.025 A 
ATOM     34  C   UNL A   1      33.858  21.051  24.351  1.00  0.00    -0.050 A 
ATOM     35  C   UNL A   1      32.174  20.204  22.841  1.00  0.00    -0.050 A 
ATOM     36  C   UNL A   1      34.114  19.750  24.794  1.00  0.00    -0.003 A 
ATOM     37  H   UNL A   1      34.348  21.850  24.784  1.00  0.00     0.063 H 
ATOM     38  C   UNL A   1      32.419  18.907  23.300  1.00  0.00    -0.003 A 
ATOM     39  H   UNL A   1      31.430  20.374  22.147  1.00  0.00     0.063 H 
ATOM     40  C   UNL A   1      33.418  18.664  24.249  1.00  0.00     0.189 A 
ATOM     41  H   UNL A   1      34.821  19.589  25.528  1.00  0.00     0.068 H 
ATOM     42  H   UNL A   1      31.857  18.122  22.935  1.00  0.00     0.068 H 
BRANCH  40  43
ATOM     43  S   UNL A   1      33.985  16.974  24.584  1.00  0.00     0.178 S 
BRANCH  43  44
ATOM     44  C   UNL A   1      32.489  16.330  25.376  1.00  0.00     0.137 C 
ATOM     45  H   UNL A   1      31.721  16.207  24.642  1.00  0.00     0.085 H 
ATOM     46  H   UNL A   1      32.159  17.017  26.126  1.00  0.00     0.085 H 
ATOM     47  H   UNL A   1      32.705  15.384  25.828  1.00  0.00     0.085 H 
ENDBRANCH  43  44
BRANCH  43  48
ATOM     48  O   UNL A   1      33.586  16.394  23.136  1.00  0.00    -0.182 OA
ATOM     49  H   UNL A   1      32.907  15.708  23.239  1.00  0.00     0.283 HD
ENDBRANCH  43  48
ENDBRANCH  40  43
ENDBRANCH  19  33
ENDBRANCH  11  14
ENDBRANCH   8  11
ENDBRANCH   4   7
ENDBRANCH   1   4
BRANCH   1  50
ATOM     50  C   UNL A   1      34.684  25.352  24.995  1.00  0.00    -0.052 C 
ATOM     51  H   UNL A   1      35.728  25.566  24.893  1.00  0.00     0.027 H 
ATOM     52  H   UNL A   1      34.232  24.979  24.100  1.00  0.00     0.027 H 
BRANCH  50  53
ATOM     53  C   UNL A   1      34.529  24.240  26.040  1.00  0.00    -0.052 C 
ATOM     54  H   UNL A   1      33.694  23.635  25.757  1.00  0.00     0.027 H 
ATOM     55  H   UNL A   1      34.402  24.733  26.981  1.00  0.00     0.027 H 
BRANCH  53  56
ATOM     56  C   UNL A   1      35.743  23.324  26.202  1.00  0.00    -0.036 C 
ATOM     57  H   UNL A   1      35.433  22.320  25.998  1.00  0.00     0.028 H 
ATOM     58  H   UNL A   1      36.095  23.463  27.202  1.00  0.00     0.028 H 
BRANCH  56  59
ATOM     59  C   UNL A   1      36.915  23.653  25.284  1.00  0.00     0.018 C 
ATOM     60  H   UNL A   1      37.218  24.663  25.464  1.00  0.00     0.049 H 
ATOM     61  H   UNL A   1      36.585  23.512  24.276  1.00  0.00     0.049 H 
BRANCH  59  62
ATOM     62  N   UNL A   1      38.059  22.779  25.497  1.00  0.00    -0.352 N 
ATOM     63  C   UNL A   1      39.252  23.046  26.126  1.00  0.00     0.251 C 
ATOM     64  H   UNL A   1      37.966  21.867  25.138  1.00  0.00     0.163 HD
ATOM     65  O   UNL A   1      40.172  22.234  26.087  1.00  0.00    -0.269 OA
BRANCH  63  66
ATOM     66  C   UNL A   1      39.439  24.338  26.823  1.00  0.00     0.039 A 
ATOM     67  C   UNL A   1      40.069  25.407  26.184  1.00  0.00    -0.049 A 
ATOM     68  C   UNL A   1      39.004  24.469  28.145  1.00  0.00    -0.049 A 
ATOM     69  C   UNL A   1      40.420  26.535  26.916  1.00  0.00    -0.053 A 
ATOM     70  H   UNL A   1      40.273  25.359  25.174  1.00  0.00     0.063 H 
ATOM     71  C   UNL A   1      39.279  25.643  28.855  1.00  0.00    -0.053 A 
ATOM     72  H   UNL A   1      38.479  23.703  28.596  1.00  0.00     0.063 H 
ATOM     73  C   UNL A   1      40.039  26.664  28.263  1.00  0.00    -0.014 A 
ATOM     74  H   UNL A   1      40.966  27.286  26.466  1.00  0.00     0.063 H 
ATOM     75  H   UNL A   1      38.924  25.759  29.816  1.00  0.00     0.063 H 
BRANCH  73  76
ATOM     76  C   UNL A   1      40.467  27.867  29.025  1.00  0.00     0.031 A 
ATOM     77  C   UNL A   1      41.904  28.046  29.439  1.00  0.00     0.074 A 
ATOM     78  C   UNL A   1      39.570  28.842  29.274  1.00  0.00     0.049 A 
ATOM     79  N   UNL A   1      42.465  29.058  30.053  1.00  0.00    -0.248 NA
ATOM     80  C   UNL A   1      42.833  26.949  29.126  1.00  0.00    -0.034 C 
ATOM     81  C   UNL A   1      38.152  28.787  28.917  1.00  0.00    -0.036 A 
ATOM     82  N   UNL A   1      39.720  30.077  29.852  1.00  0.00    -0.354 N 
ATOM     83  C   UNL A   1      43.802  28.715  30.211  1.00  0.00     0.074 A 
ATOM     84  C   UNL A   1      43.966  27.388  29.660  1.00  0.00    -0.034 C 
ATOM     85  H   UNL A   1      42.653  26.067  28.623  1.00  0.00     0.065 H 
ATOM     86  C   UNL A   1      37.577  29.959  29.223  1.00  0.00    -0.036 A 
ATOM     87  H   UNL A   1      37.671  27.977  28.496  1.00  0.00     0.065 H 
ATOM     88  C   UNL A   1      38.567  30.825  29.855  1.00  0.00     0.049 A 
ATOM     89  H   UNL A   1      40.571  30.397  30.229  1.00  0.00     0.167 HD
ATOM     90  C   UNL A   1      44.805  29.450  30.748  1.00  0.00     0.037 A 
ATOM     91  H   UNL A   1      44.848  26.853  29.680  1.00  0.00     0.065 H 
ATOM     92  H   UNL A   1      36.591  30.209  29.042  1.00  0.00     0.065 H 
ATOM     93  C   UNL A   1      38.332  32.067  30.318  1.00  0.00     0.037 A 
ATOM     94  C   UNL A   1      44.648  30.783  31.269  1.00  0.00     0.049 A 
ATOM     95  C   UNL A   1      39.455  32.840  30.950  1.00  0.00     0.074 A 
ATOM     96  C   UNL A   1      45.614  31.615  31.807  1.00  0.00    -0.036 A 
ATOM     97  N   UNL A   1      43.449  31.477  31.316  1.00  0.00    -0.354 N 
ATOM     98  N   UNL A   1      40.716  32.510  31.074  1.00  0.00    -0.248 NA
ATOM     99  C   UNL A   1      39.118  34.153  31.517  1.00  0.00    -0.034 C 
ATOM    100  C   UNL A   1      44.993  32.798  32.217  1.00  0.00    -0.036 A 
ATOM    101  H   UNL A   1      46.620  31.400  31.891  1.00  0.00     0.065 H 
ATOM    102  C   UNL A   1      43.647  32.721  31.894  1.00  0.00     0.049 A 
ATOM    103  H   UNL A   1      42.586  31.139  30.985  1.00  0.00     0.167 HD
ATOM    104  C   UNL A   1      41.326  33.574  31.724  1.00  0.00     0.074 A 
ATOM    105  C   UNL A   1      40.301  34.572  31.946  1.00  0.00    -0.034 C 
ATOM    106  H   UNL A   1      38.202  34.627  31.567  1.00  0.00     0.065 H 
ATOM    107  H   UNL A   1      45.457  33.594  32.681  1.00  0.00     0.065 H 
ATOM    108  C   UNL A   1      42.618  33.704  32.109  1.00  0.00     0.037 A 
ATOM    109  H   UNL A   1      40.469  35.492  32.383  1.00  0.00     0.065 H 
BRANCH  90 110
ATOM    110  C   UNL A   1      46.176  28.841  30.801  1.00  0.00     0.064 A 
ATOM    111  C   UNL A   1      46.592  28.068  31.895  1.00  0.00     0.173 A 
ATOM    112  C   UNL A   1      47.049  28.958  29.709  1.00  0.00     0.173 A 
ATOM    113  F   UNL A   1      45.797  27.934  32.968  1.00  0.00    -0.203 F 
ATOM    114  C   UNL A   1      47.836  27.443  31.898  1.00  0.00     0.198 A 
ATOM    115  C   UNL A   1      48.282  28.310  29.704  1.00  0.00     0.198 A 
ATOM    116  F   UNL A   1      46.696  29.678  28.634  1.00  0.00    -0.203 F 
ATOM    117  F   UNL A   1      48.223  26.730  32.965  1.00  0.00    -0.200 F 
ATOM    118  C   UNL A   1      48.675  27.555  30.799  1.00  0.00     0.200 A 
ATOM    119  F   UNL A   1      49.085  28.407  28.635  1.00  0.00    -0.200 F 
ATOM    120  F   UNL A   1      49.864  26.935  30.795  1.00  0.00    -0.200 F 
ENDBRANCH  90 110
BRANCH  93 121
ATOM    121  C   UNL A   1      36.972  32.652  30.194  1.00  0.00     0.064 A 
ATOM    122  C   UNL A   1      36.048  32.559  31.244  1.00  0.00     0.173 A 
ATOM    123  C   UNL A   1      36.574  33.335  29.034  1.00  0.00     0.173 A 
ATOM    124  F   UNL A   1      36.374  31.898  32.364  1.00  0.00    -0.203 F 
ATOM    125  C   UNL A   1      34.778  33.120  31.135  1.00  0.00     0.198 A 
ATOM    126  C   UNL A   1      35.315  33.920  28.939  1.00  0.00     0.198 A 
ATOM    127  F   UNL A   1      37.423  33.453  28.001  1.00  0.00    -0.203 F 
ATOM    128  F   UNL A   1      33.901  32.988  32.141  1.00  0.00    -0.200 F 
ATOM    129  C   UNL A   1      34.415  33.809  29.987  1.00  0.00     0.200 A 
ATOM    130  F   UNL A   1      34.976  34.599  27.834  1.00  0.00    -0.200 F 
ATOM    131  F   UNL A   1      33.198  34.360  29.889  1.00  0.00    -0.200 F 
ENDBRANCH  93 121
BRANCH 108 132
ATOM    132  C   UNL A   1      43.008  34.971  32.812  1.00  0.00     0.064 A 
ATOM    133  C   UNL A   1      43.450  36.093  32.097  1.00  0.00     0.173 A 
ATOM    134  C   UNL A   1      42.860  35.090  34.202  1.00  0.00     0.173 A 
ATOM    135  F   UNL A   1      43.620  36.023  30.768  1.00  0.00    -0.203 F 
ATOM    136  C   UNL A   1      43.739  37.288  32.750  1.00  0.00     0.198 A 
ATOM    137  C   UNL A   1      43.125  36.293  34.848  1.00  0.00     0.198 A 
ATOM    138  F   UNL A   1      42.432  34.046  34.928  1.00  0.00    -0.203 F 
ATOM    139  F   UNL A   1      44.187  38.339  32.051  1.00  0.00    -0.200 F 
ATOM    140  C   UNL A   1      43.566  37.390  34.123  1.00  0.00     0.200 A 
ATOM    141  F   UNL A   1      42.942  36.395  36.172  1.00  0.00    -0.200 F 
ATOM    142  F   UNL A   1      43.826  38.546  34.747  1.00  0.00    -0.200 F 
ENDBRANCH 108 132
ENDBRANCH  73  76
ENDBRANCH  63  66
ENDBRANCH  59  62
ENDBRANCH  56  59
ENDBRANCH  53  56
ENDBRANCH  50  53
ENDBRANCH   1  50
TORSDOF 19
ENDMDL
MODEL 6
REMARK VINA RESULT:     -12.5      5.459     12.047
REMARK SMILES CC1=C(CC(=O)NCCCCCCNC(=O)c2ccc(-c3c4nc(c(-c5c(F)c(F)c(F)c(F)c5F)c5ccc([nH]5)c(-c5c(F)c(F)c(F)c(F)c5F)c5nc(c(-c6c(F)c(F)c(F)c(F)c6F)c6ccc3[nH]6)C=C5)C=C4)cc2)c2cc(F)ccc2/C1=C\c1ccc([S@@+](C)O)cc1
REMARK SMILES IDX 9 1 8 4 7 7 5 8 6 9 4 11 3 14 2 15 87 16 80 17 86 18 88 19
REMARK SMILES IDX 81 20 85 21 82 23 84 25 83 27 1 29 89 33 90 34 97 35 91 36
REMARK SMILES IDX 96 38 92 40 93 43 94 44 95 48 10 50 11 53 12 56 13 59 14 62
REMARK SMILES IDX 15 63 16 65 17 66 18 67 79 68 19 69 78 71 20 73 21 76 22 77
REMARK SMILES IDX 72 78 23 79 77 80 71 81 73 82 24 83 76 84 70 86 69 88 25 90
REMARK SMILES IDX 57 93 37 94 56 95 38 96 41 97 55 98 74 99 39 100 40 102
REMARK SMILES IDX 54 104 75 105 42 108 26 110 27 111 35 112 28 113 29 114
REMARK SMILES IDX 33 115 36 116 30 117 31 118 34 119 32 120 58 121 59 122
REMARK SMILES IDX 67 123 60 124 61 125 65 126 68 127 62 128 63 129 66 130
REMARK SMILES IDX 64 131 43 132 44 133 52 134 45 135 46 136 50 137 53 138
REMARK SMILES IDX 47 139 48 140 51 141 49 142
REMARK H PARENT 9 2 9 3 8 5 8 6 7 10 4 12 4 13 88 22 81 24 85 26 84 28 1 30
REMARK H PARENT 1 31 1 32 90 37 97 39 91 41 96 42 94 45 94 46 94 47 95 49
REMARK H PARENT 10 51 10 52 11 54 11 55 12 57 12 58 13 60 13 61 14 64 18 70
REMARK H PARENT 79 72 19 74 78 75 77 85 71 87 73 89 76 91 70 92 38 101 41 103
REMARK H PARENT 74 106 39 107 75 109
REMARK Flexibility Score: inf
ROOT
ATOM      1  C   UNL A   1      44.091  23.647  30.815  1.00  0.00    -0.036 C 
ATOM      2  H   UNL A   1      43.699  23.146  31.675  1.00  0.00     0.028 H 
ATOM      3  H   UNL A   1      44.901  23.116  30.362  1.00  0.00     0.028 H 
ENDROOT
BRANCH   1   4
ATOM      4  C   UNL A   1      44.645  25.002  31.260  1.00  0.00     0.017 C 
ATOM      5  H   UNL A   1      45.713  24.948  31.291  1.00  0.00     0.049 H 
ATOM      6  H   UNL A   1      44.324  25.744  30.560  1.00  0.00     0.049 H 
BRANCH   4   7
ATOM      7  N   UNL A   1      44.154  25.367  32.571  1.00  0.00    -0.356 N 
ATOM      8  C   UNL A   1      43.699  26.574  33.011  1.00  0.00     0.224 C 
ATOM      9  O   UNL A   1      43.411  26.688  34.205  1.00  0.00    -0.275 OA
ATOM     10  H   UNL A   1      44.146  24.642  33.239  1.00  0.00     0.163 HD
BRANCH   8  11
ATOM     11  C   UNL A   1      43.499  27.731  32.034  1.00  0.00     0.053 C 
ATOM     12  H   UNL A   1      44.455  28.167  31.833  1.00  0.00     0.042 H 
ATOM     13  H   UNL A   1      43.036  27.317  31.163  1.00  0.00     0.042 H 
BRANCH  11  14
ATOM     14  C   UNL A   1      42.589  28.809  32.528  1.00  0.00    -0.027 C 
ATOM     15  C   UNL A   1      42.898  30.027  33.034  1.00  0.00    -0.039 C 
ATOM     16  C   UNL A   1      41.663  30.738  33.404  1.00  0.00    -0.014 C 
ATOM     17  C   UNL A   1      41.121  28.703  32.475  1.00  0.00    -0.011 A 
ATOM     18  C   UNL A   1      40.539  29.892  32.954  1.00  0.00    -0.010 A 
ATOM     19  C   UNL A   1      41.632  31.907  34.076  1.00  0.00    -0.047 C 
ATOM     20  C   UNL A   1      40.325  27.661  32.015  1.00  0.00    -0.018 A 
ATOM     21  C   UNL A   1      39.162  30.068  32.910  1.00  0.00    -0.051 A 
ATOM     22  H   UNL A   1      42.537  32.334  34.329  1.00  0.00     0.064 H 
ATOM     23  C   UNL A   1      38.944  27.828  32.031  1.00  0.00     0.123 A 
ATOM     24  H   UNL A   1      40.748  26.785  31.668  1.00  0.00     0.066 H 
ATOM     25  C   UNL A   1      38.358  29.018  32.462  1.00  0.00    -0.026 A 
ATOM     26  H   UNL A   1      38.739  30.962  33.205  1.00  0.00     0.063 H 
ATOM     27  F   UNL A   1      38.155  26.831  31.609  1.00  0.00    -0.207 F 
ATOM     28  H   UNL A   1      37.332  29.123  32.448  1.00  0.00     0.065 H 
BRANCH  15  29
ATOM     29  C   UNL A   1      44.252  30.635  33.207  1.00  0.00    -0.039 C 
ATOM     30  H   UNL A   1      44.171  31.523  33.799  1.00  0.00     0.028 H 
ATOM     31  H   UNL A   1      44.657  30.883  32.247  1.00  0.00     0.028 H 
ATOM     32  H   UNL A   1      44.898  29.937  33.696  1.00  0.00     0.028 H 
ENDBRANCH  15  29
BRANCH  19  33
ATOM     33  C   UNL A   1      40.416  32.619  34.478  1.00  0.00    -0.025 A 
ATOM     34  C   UNL A   1      39.715  32.260  35.635  1.00  0.00    -0.050 A 
ATOM     35  C   UNL A   1      39.879  33.581  33.620  1.00  0.00    -0.050 A 
ATOM     36  C   UNL A   1      38.425  32.755  35.852  1.00  0.00    -0.003 A 
ATOM     37  H   UNL A   1      40.151  31.632  36.329  1.00  0.00     0.063 H 
ATOM     38  C   UNL A   1      38.598  34.087  33.850  1.00  0.00    -0.003 A 
ATOM     39  H   UNL A   1      40.430  33.917  32.815  1.00  0.00     0.063 H 
ATOM     40  C   UNL A   1      37.844  33.648  34.944  1.00  0.00     0.189 A 
ATOM     41  H   UNL A   1      37.897  32.458  36.688  1.00  0.00     0.068 H 
ATOM     42  H   UNL A   1      38.204  34.792  33.207  1.00  0.00     0.068 H 
BRANCH  40  43
ATOM     43  S   UNL A   1      36.072  34.018  35.056  1.00  0.00     0.178 S 
BRANCH  43  44
ATOM     44  C   UNL A   1      35.888  34.967  33.524  1.00  0.00     0.137 C 
ATOM     45  H   UNL A   1      34.871  35.284  33.422  1.00  0.00     0.085 H 
ATOM     46  H   UNL A   1      36.156  34.353  32.691  1.00  0.00     0.085 H 
ATOM     47  H   UNL A   1      36.527  35.824  33.558  1.00  0.00     0.085 H 
ENDBRANCH  43  44
BRANCH  43  48
ATOM     48  O   UNL A   1      35.590  32.641  34.376  1.00  0.00    -0.182 OA
ATOM     49  H   UNL A   1      36.339  32.027  34.322  1.00  0.00     0.283 HD
ENDBRANCH  43  48
ENDBRANCH  40  43
ENDBRANCH  19  33
ENDBRANCH  11  14
ENDBRANCH   8  11
ENDBRANCH   4   7
ENDBRANCH   1   4
BRANCH   1  50
ATOM     50  C   UNL A   1      42.978  23.745  29.764  1.00  0.00    -0.052 C 
ATOM     51  H   UNL A   1      42.770  24.781  29.597  1.00  0.00     0.027 H 
ATOM     52  H   UNL A   1      42.147  23.199  30.161  1.00  0.00     0.027 H 
BRANCH  50  53
ATOM     53  C   UNL A   1      43.295  23.102  28.408  1.00  0.00    -0.052 C 
ATOM     54  H   UNL A   1      44.233  22.595  28.495  1.00  0.00     0.027 H 
ATOM     55  H   UNL A   1      43.303  23.900  27.696  1.00  0.00     0.027 H 
BRANCH  53  56
ATOM     56  C   UNL A   1      42.259  22.095  27.906  1.00  0.00    -0.036 C 
ATOM     57  H   UNL A   1      41.350  22.253  28.448  1.00  0.00     0.028 H 
ATOM     58  H   UNL A   1      42.681  21.125  28.062  1.00  0.00     0.028 H 
BRANCH  56  59
ATOM     59  C   UNL A   1      41.946  22.194  26.417  1.00  0.00     0.018 C 
ATOM     60  H   UNL A   1      42.542  21.476  25.894  1.00  0.00     0.049 H 
ATOM     61  H   UNL A   1      42.165  23.194  26.107  1.00  0.00     0.049 H 
BRANCH  59  62
ATOM     62  N   UNL A   1      40.544  21.940  26.119  1.00  0.00    -0.352 N 
ATOM     63  C   UNL A   1      39.448  22.740  26.346  1.00  0.00     0.251 C 
ATOM     64  H   UNL A   1      40.353  21.073  25.694  1.00  0.00     0.163 HD
ATOM     65  O   UNL A   1      38.314  22.306  26.165  1.00  0.00    -0.269 OA
BRANCH  63  66
ATOM     66  C   UNL A   1      39.638  24.119  26.847  1.00  0.00     0.039 A 
ATOM     67  C   UNL A   1      40.103  25.126  26.000  1.00  0.00    -0.049 A 
ATOM     68  C   UNL A   1      39.374  24.399  28.191  1.00  0.00    -0.049 A 
ATOM     69  C   UNL A   1      40.471  26.357  26.532  1.00  0.00    -0.053 A 
ATOM     70  H   UNL A   1      40.174  24.957  24.984  1.00  0.00     0.063 H 
ATOM     71  C   UNL A   1      39.660  25.668  28.706  1.00  0.00    -0.053 A 
ATOM     72  H   UNL A   1      38.967  23.673  28.801  1.00  0.00     0.063 H 
ATOM     73  C   UNL A   1      40.264  26.640  27.893  1.00  0.00    -0.014 A 
ATOM     74  H   UNL A   1      40.900  27.068  25.921  1.00  0.00     0.063 H 
ATOM     75  H   UNL A   1      39.428  25.890  29.686  1.00  0.00     0.063 H 
BRANCH  73  76
ATOM     76  C   UNL A   1      40.706  27.953  28.434  1.00  0.00     0.031 A 
ATOM     77  C   UNL A   1      42.170  28.264  28.599  1.00  0.00     0.074 A 
ATOM     78  C   UNL A   1      39.784  28.898  28.703  1.00  0.00     0.049 A 
ATOM     79  N   UNL A   1      42.737  29.376  28.998  1.00  0.00    -0.248 NA
ATOM     80  C   UNL A   1      43.124  27.191  28.278  1.00  0.00    -0.034 C 
ATOM     81  C   UNL A   1      38.336  28.718  28.576  1.00  0.00    -0.036 A 
ATOM     82  N   UNL A   1      39.922  30.203  29.103  1.00  0.00    -0.354 N 
ATOM     83  C   UNL A   1      44.104  29.132  28.987  1.00  0.00     0.074 A 
ATOM     84  C   UNL A   1      44.285  27.758  28.577  1.00  0.00    -0.034 C 
ATOM     85  H   UNL A   1      42.939  26.244  27.914  1.00  0.00     0.065 H 
ATOM     86  C   UNL A   1      37.725  29.885  28.828  1.00  0.00    -0.036 A 
ATOM     87  H   UNL A   1      37.862  27.835  28.332  1.00  0.00     0.065 H 
ATOM     88  C   UNL A   1      38.729  30.878  29.195  1.00  0.00     0.049 A 
ATOM     89  H   UNL A   1      40.793  30.616  29.305  1.00  0.00     0.167 HD
ATOM     90  C   UNL A   1      45.116  29.986  29.275  1.00  0.00     0.037 A 
ATOM     91  H   UNL A   1      45.199  27.281  28.523  1.00  0.00     0.065 H 
ATOM     92  H   UNL A   1      36.708  30.053  28.772  1.00  0.00     0.065 H 
ATOM     93  C   UNL A   1      38.471  32.154  29.541  1.00  0.00     0.037 A 
ATOM     94  C   UNL A   1      44.936  31.362  29.655  1.00  0.00     0.049 A 
ATOM     95  C   UNL A   1      39.612  33.064  29.898  1.00  0.00     0.074 A 
ATOM     96  C   UNL A   1      45.905  32.310  29.937  1.00  0.00    -0.036 A 
ATOM     97  N   UNL A   1      43.709  31.988  29.803  1.00  0.00    -0.354 N 
ATOM     98  N   UNL A   1      40.899  32.824  29.865  1.00  0.00    -0.248 NA
ATOM     99  C   UNL A   1      39.264  34.417  30.353  1.00  0.00    -0.034 C 
ATOM    100  C   UNL A   1      45.263  33.498  30.297  1.00  0.00    -0.036 A 
ATOM    101  H   UNL A   1      46.926  32.165  29.890  1.00  0.00     0.065 H 
ATOM    102  C   UNL A   1      43.894  33.304  30.196  1.00  0.00     0.049 A 
ATOM    103  H   UNL A   1      42.834  31.561  29.651  1.00  0.00     0.167 HD
ATOM    104  C   UNL A   1      41.515  33.995  30.285  1.00  0.00     0.074 A 
ATOM    105  C   UNL A   1      40.461  34.953  30.543  1.00  0.00    -0.034 C 
ATOM    106  H   UNL A   1      38.331  34.839  30.487  1.00  0.00     0.065 H 
ATOM    107  H   UNL A   1      45.728  34.371  30.588  1.00  0.00     0.065 H 
ATOM    108  C   UNL A   1      42.836  34.247  30.449  1.00  0.00     0.037 A 
ATOM    109  H   UNL A   1      40.621  35.929  30.839  1.00  0.00     0.065 H 
BRANCH  90 110
ATOM    110  C   UNL A   1      46.522  29.467  29.187  1.00  0.00     0.064 A 
ATOM    111  C   UNL A   1      47.253  29.532  27.992  1.00  0.00     0.173 A 
ATOM    112  C   UNL A   1      47.175  28.982  30.331  1.00  0.00     0.173 A 
ATOM    113  F   UNL A   1      46.671  29.979  26.869  1.00  0.00    -0.203 F 
ATOM    114  C   UNL A   1      48.583  29.122  27.943  1.00  0.00     0.198 A 
ATOM    115  C   UNL A   1      48.512  28.596  30.284  1.00  0.00     0.198 A 
ATOM    116  F   UNL A   1      46.523  28.908  31.501  1.00  0.00    -0.203 F 
ATOM    117  F   UNL A   1      49.254  29.170  26.784  1.00  0.00    -0.200 F 
ATOM    118  C   UNL A   1      49.214  28.665  29.090  1.00  0.00     0.200 A 
ATOM    119  F   UNL A   1      49.125  28.170  31.397  1.00  0.00    -0.200 F 
ATOM    120  F   UNL A   1      50.500  28.289  29.045  1.00  0.00    -0.200 F 
ENDBRANCH  90 110
BRANCH  93 121
ATOM    121  C   UNL A   1      37.067  32.640  29.559  1.00  0.00     0.064 A 
ATOM    122  C   UNL A   1      36.509  33.274  28.441  1.00  0.00     0.173 A 
ATOM    123  C   UNL A   1      36.248  32.463  30.685  1.00  0.00     0.173 A 
ATOM    124  F   UNL A   1      37.259  33.486  27.349  1.00  0.00    -0.203 F 
ATOM    125  C   UNL A   1      35.189  33.718  28.450  1.00  0.00     0.198 A 
ATOM    126  C   UNL A   1      34.919  32.881  30.682  1.00  0.00     0.198 A 
ATOM    127  F   UNL A   1      36.734  31.860  31.781  1.00  0.00    -0.203 F 
ATOM    128  F   UNL A   1      34.690  34.351  27.379  1.00  0.00    -0.200 F 
ATOM    129  C   UNL A   1      34.392  33.512  29.567  1.00  0.00     0.200 A 
ATOM    130  F   UNL A   1      34.149  32.664  31.757  1.00  0.00    -0.200 F 
ATOM    131  F   UNL A   1      33.118  33.927  29.569  1.00  0.00    -0.200 F 
ENDBRANCH  93 121
BRANCH 108 132
ATOM    132  C   UNL A   1      43.227  35.612  30.931  1.00  0.00     0.064 A 
ATOM    133  C   UNL A   1      43.377  35.886  32.298  1.00  0.00     0.173 A 
ATOM    134  C   UNL A   1      43.532  36.631  30.016  1.00  0.00     0.173 A 
ATOM    135  F   UNL A   1      43.084  34.947  33.210  1.00  0.00    -0.203 F 
ATOM    136  C   UNL A   1      43.812  37.134  32.733  1.00  0.00     0.198 A 
ATOM    137  C   UNL A   1      43.991  37.870  30.454  1.00  0.00     0.198 A 
ATOM    138  F   UNL A   1      43.411  36.416  28.698  1.00  0.00    -0.203 F 
ATOM    139  F   UNL A   1      43.922  37.383  34.045  1.00  0.00    -0.200 F 
ATOM    140  C   UNL A   1      44.129  38.121  31.811  1.00  0.00     0.200 A 
ATOM    141  F   UNL A   1      44.312  38.817  29.562  1.00  0.00    -0.200 F 
ATOM    142  F   UNL A   1      44.565  39.316  32.231  1.00  0.00    -0.200 F 
ENDBRANCH 108 132
ENDBRANCH  73  76
ENDBRANCH  63  66
ENDBRANCH  59  62
ENDBRANCH  56  59
ENDBRANCH  53  56
ENDBRANCH  50  53
ENDBRANCH   1  50
TORSDOF 19
ENDMDL
MODEL 7
REMARK VINA RESULT:     -12.5      0.817      2.101
REMARK SMILES CC1=C(CC(=O)NCCCCCCNC(=O)c2ccc(-c3c4nc(c(-c5c(F)c(F)c(F)c(F)c5F)c5ccc([nH]5)c(-c5c(F)c(F)c(F)c(F)c5F)c5nc(c(-c6c(F)c(F)c(F)c(F)c6F)c6ccc3[nH]6)C=C5)C=C4)cc2)c2cc(F)ccc2/C1=C\c1ccc([S@@+](C)O)cc1
REMARK SMILES IDX 9 1 8 4 7 7 5 8 6 9 4 11 3 14 2 15 87 16 80 17 86 18 88 19
REMARK SMILES IDX 81 20 85 21 82 23 84 25 83 27 1 29 89 33 90 34 97 35 91 36
REMARK SMILES IDX 96 38 92 40 93 43 94 44 95 48 10 50 11 53 12 56 13 59 14 62
REMARK SMILES IDX 15 63 16 65 17 66 18 67 79 68 19 69 78 71 20 73 21 76 22 77
REMARK SMILES IDX 72 78 23 79 77 80 71 81 73 82 24 83 76 84 70 86 69 88 25 90
REMARK SMILES IDX 57 93 37 94 56 95 38 96 41 97 55 98 74 99 39 100 40 102
REMARK SMILES IDX 54 104 75 105 42 108 26 110 27 111 35 112 28 113 29 114
REMARK SMILES IDX 33 115 36 116 30 117 31 118 34 119 32 120 58 121 59 122
REMARK SMILES IDX 67 123 60 124 61 125 65 126 68 127 62 128 63 129 66 130
REMARK SMILES IDX 64 131 43 132 44 133 52 134 45 135 46 136 50 137 53 138
REMARK SMILES IDX 47 139 48 140 51 141 49 142
REMARK H PARENT 9 2 9 3 8 5 8 6 7 10 4 12 4 13 88 22 81 24 85 26 84 28 1 30
REMARK H PARENT 1 31 1 32 90 37 97 39 91 41 96 42 94 45 94 46 94 47 95 49
REMARK H PARENT 10 51 10 52 11 54 11 55 12 57 12 58 13 60 13 61 14 64 18 70
REMARK H PARENT 79 72 19 74 78 75 77 85 71 87 73 89 76 91 70 92 38 101 41 103
REMARK H PARENT 74 106 39 107 75 109
REMARK Flexibility Score: inf
ROOT
ATOM      1  C   UNL A   1      32.746  28.769  27.243  1.00  0.00    -0.036 C 
ATOM      2  H   UNL A   1      32.857  28.432  28.252  1.00  0.00     0.028 H 
ATOM      3  H   UNL A   1      31.844  28.417  26.787  1.00  0.00     0.028 H 
ENDROOT
BRANCH   1   4
ATOM      4  C   UNL A   1      33.905  28.208  26.418  1.00  0.00     0.017 C 
ATOM      5  H   UNL A   1      34.828  28.464  26.896  1.00  0.00     0.049 H 
ATOM      6  H   UNL A   1      33.793  27.145  26.358  1.00  0.00     0.049 H 
BRANCH   4   7
ATOM      7  N   UNL A   1      33.905  28.744  25.075  1.00  0.00    -0.356 N 
ATOM      8  C   UNL A   1      33.086  28.440  24.030  1.00  0.00     0.224 C 
ATOM      9  O   UNL A   1      33.321  28.956  22.934  1.00  0.00    -0.275 OA
ATOM     10  H   UNL A   1      34.593  29.425  24.890  1.00  0.00     0.163 HD
BRANCH   8  11
ATOM     11  C   UNL A   1      31.875  27.530  24.232  1.00  0.00     0.053 C 
ATOM     12  H   UNL A   1      31.460  27.737  25.196  1.00  0.00     0.042 H 
ATOM     13  H   UNL A   1      31.198  27.742  23.431  1.00  0.00     0.042 H 
BRANCH  11  14
ATOM     14  C   UNL A   1      32.179  26.069  24.157  1.00  0.00    -0.027 C 
ATOM     15  C   UNL A   1      32.168  25.139  25.142  1.00  0.00    -0.039 C 
ATOM     16  C   UNL A   1      32.554  23.829  24.593  1.00  0.00    -0.014 C 
ATOM     17  C   UNL A   1      32.502  25.382  22.894  1.00  0.00    -0.011 A 
ATOM     18  C   UNL A   1      32.680  24.006  23.132  1.00  0.00    -0.010 A 
ATOM     19  C   UNL A   1      32.790  22.731  25.340  1.00  0.00    -0.047 C 
ATOM     20  C   UNL A   1      32.608  25.898  21.609  1.00  0.00    -0.018 A 
ATOM     21  C   UNL A   1      32.897  23.133  22.074  1.00  0.00    -0.051 A 
ATOM     22  H   UNL A   1      32.672  22.818  26.362  1.00  0.00     0.064 H 
ATOM     23  C   UNL A   1      32.885  25.020  20.565  1.00  0.00     0.123 A 
ATOM     24  H   UNL A   1      32.484  26.908  21.432  1.00  0.00     0.066 H 
ATOM     25  C   UNL A   1      33.018  23.650  20.782  1.00  0.00    -0.026 A 
ATOM     26  H   UNL A   1      32.968  22.117  22.239  1.00  0.00     0.063 H 
ATOM     27  F   UNL A   1      33.009  25.497  19.319  1.00  0.00    -0.207 F 
ATOM     28  H   UNL A   1      33.206  23.017  19.989  1.00  0.00     0.065 H 
BRANCH  15  29
ATOM     29  C   UNL A   1      31.814  25.328  26.582  1.00  0.00    -0.039 C 
ATOM     30  H   UNL A   1      32.094  24.456  27.136  1.00  0.00     0.028 H 
ATOM     31  H   UNL A   1      30.759  25.484  26.673  1.00  0.00     0.028 H 
ATOM     32  H   UNL A   1      32.335  26.179  26.969  1.00  0.00     0.028 H 
ENDBRANCH  15  29
BRANCH  19  33
ATOM     33  C   UNL A   1      33.200  21.425  24.818  1.00  0.00    -0.025 A 
ATOM     34  C   UNL A   1      32.254  20.486  24.391  1.00  0.00    -0.050 A 
ATOM     35  C   UNL A   1      34.548  21.066  24.874  1.00  0.00    -0.050 A 
ATOM     36  C   UNL A   1      32.638  19.161  24.162  1.00  0.00    -0.003 A 
ATOM     37  H   UNL A   1      31.272  20.771  24.244  1.00  0.00     0.063 H 
ATOM     38  C   UNL A   1      34.932  19.745  24.626  1.00  0.00    -0.003 A 
ATOM     39  H   UNL A   1      35.261  21.777  25.099  1.00  0.00     0.063 H 
ATOM     40  C   UNL A   1      33.976  18.774  24.309  1.00  0.00     0.189 A 
ATOM     41  H   UNL A   1      31.931  18.463  23.883  1.00  0.00     0.068 H 
ATOM     42  H   UNL A   1      35.929  19.485  24.677  1.00  0.00     0.068 H 
BRANCH  40  43
ATOM     43  S   UNL A   1      34.403  17.011  24.337  1.00  0.00     0.178 S 
BRANCH  43  44
ATOM     44  C   UNL A   1      32.878  16.365  25.067  1.00  0.00     0.137 C 
ATOM     45  H   UNL A   1      33.004  15.328  25.298  1.00  0.00     0.085 H 
ATOM     46  H   UNL A   1      32.074  16.480  24.371  1.00  0.00     0.085 H 
ATOM     47  H   UNL A   1      32.655  16.905  25.963  1.00  0.00     0.085 H 
ENDBRANCH  43  44
BRANCH  43  48
ATOM     48  O   UNL A   1      33.923  16.717  22.829  1.00  0.00    -0.182 OA
ATOM     49  H   UNL A   1      34.447  15.989  22.459  1.00  0.00     0.283 HD
ENDBRANCH  43  48
ENDBRANCH  40  43
ENDBRANCH  19  33
ENDBRANCH  11  14
ENDBRANCH   8  11
ENDBRANCH   4   7
ENDBRANCH   1   4
BRANCH   1  50
ATOM     50  C   UNL A   1      32.672  30.302  27.251  1.00  0.00    -0.052 C 
ATOM     51  H   UNL A   1      33.556  30.678  26.780  1.00  0.00     0.027 H 
ATOM     52  H   UNL A   1      32.577  30.587  28.278  1.00  0.00     0.027 H 
BRANCH  50  53
ATOM     53  C   UNL A   1      31.459  30.906  26.533  1.00  0.00    -0.052 C 
ATOM     54  H   UNL A   1      30.576  30.546  27.016  1.00  0.00     0.027 H 
ATOM     55  H   UNL A   1      31.540  30.605  25.509  1.00  0.00     0.027 H 
BRANCH  53  56
ATOM     56  C   UNL A   1      31.402  32.434  26.523  1.00  0.00    -0.036 C 
ATOM     57  H   UNL A   1      30.663  32.746  27.231  1.00  0.00     0.028 H 
ATOM     58  H   UNL A   1      31.172  32.721  25.518  1.00  0.00     0.028 H 
BRANCH  56  59
ATOM     59  C   UNL A   1      32.716  33.122  26.876  1.00  0.00     0.018 C 
ATOM     60  H   UNL A   1      33.187  33.446  25.971  1.00  0.00     0.049 H 
ATOM     61  H   UNL A   1      33.319  32.414  27.405  1.00  0.00     0.049 H 
BRANCH  59  62
ATOM     62  N   UNL A   1      32.532  34.276  27.744  1.00  0.00    -0.352 N 
ATOM     63  C   UNL A   1      33.228  34.634  28.874  1.00  0.00     0.251 C 
ATOM     64  H   UNL A   1      31.806  34.888  27.484  1.00  0.00     0.163 HD
ATOM     65  O   UNL A   1      32.843  35.567  29.572  1.00  0.00    -0.269 OA
BRANCH  63  66
ATOM     66  C   UNL A   1      34.428  33.864  29.270  1.00  0.00     0.039 A 
ATOM     67  C   UNL A   1      34.303  32.661  29.967  1.00  0.00    -0.049 A 
ATOM     68  C   UNL A   1      35.695  34.368  28.964  1.00  0.00    -0.049 A 
ATOM     69  C   UNL A   1      35.434  32.060  30.509  1.00  0.00    -0.053 A 
ATOM     70  H   UNL A   1      33.377  32.221  30.081  1.00  0.00     0.063 H 
ATOM     71  C   UNL A   1      36.837  33.712  29.434  1.00  0.00    -0.053 A 
ATOM     72  H   UNL A   1      35.788  35.222  28.391  1.00  0.00     0.063 H 
ATOM     73  C   UNL A   1      36.714  32.583  30.259  1.00  0.00    -0.014 A 
ATOM     74  H   UNL A   1      35.331  31.222  31.101  1.00  0.00     0.063 H 
ATOM     75  H   UNL A   1      37.774  34.059  29.176  1.00  0.00     0.063 H 
BRANCH  73  76
ATOM     76  C   UNL A   1      37.896  31.936  30.888  1.00  0.00     0.031 A 
ATOM     77  C   UNL A   1      38.266  32.233  32.317  1.00  0.00     0.074 A 
ATOM     78  C   UNL A   1      38.592  31.017  30.190  1.00  0.00     0.049 A 
ATOM     79  N   UNL A   1      39.225  31.716  33.044  1.00  0.00    -0.248 NA
ATOM     80  C   UNL A   1      37.459  33.239  33.024  1.00  0.00    -0.034 C 
ATOM     81  C   UNL A   1      38.326  30.639  28.801  1.00  0.00    -0.036 A 
ATOM     82  N   UNL A   1      39.638  30.209  30.559  1.00  0.00    -0.354 N 
ATOM     83  C   UNL A   1      39.144  32.340  34.282  1.00  0.00     0.074 A 
ATOM     84  C   UNL A   1      38.066  33.300  34.202  1.00  0.00    -0.034 C 
ATOM     85  H   UNL A   1      36.634  33.762  32.692  1.00  0.00     0.065 H 
ATOM     86  C   UNL A   1      39.140  29.632  28.456  1.00  0.00    -0.036 A 
ATOM     87  H   UNL A   1      37.623  31.078  28.186  1.00  0.00     0.065 H 
ATOM     88  C   UNL A   1      40.027  29.332  29.575  1.00  0.00     0.049 A 
ATOM     89  H   UNL A   1      40.068  30.253  31.444  1.00  0.00     0.167 HD
ATOM     90  C   UNL A   1      39.890  32.117  35.391  1.00  0.00     0.037 A 
ATOM     91  H   UNL A   1      37.803  33.947  34.962  1.00  0.00     0.065 H 
ATOM     92  H   UNL A   1      39.139  29.146  27.546  1.00  0.00     0.065 H 
ATOM     93  C   UNL A   1      40.995  28.396  29.572  1.00  0.00     0.037 A 
ATOM     94  C   UNL A   1      40.944  31.141  35.480  1.00  0.00     0.049 A 
ATOM     95  C   UNL A   1      41.835  28.203  30.802  1.00  0.00     0.074 A 
ATOM     96  C   UNL A   1      41.734  30.825  36.572  1.00  0.00    -0.036 A 
ATOM     97  N   UNL A   1      41.353  30.322  34.440  1.00  0.00    -0.354 N 
ATOM     98  N   UNL A   1      41.734  28.788  31.970  1.00  0.00    -0.248 NA
ATOM     99  C   UNL A   1      42.932  27.230  30.711  1.00  0.00    -0.034 C 
ATOM    100  C   UNL A   1      42.650  29.845  36.181  1.00  0.00    -0.036 A 
ATOM    101  H   UNL A   1      41.661  31.243  37.513  1.00  0.00     0.065 H 
ATOM    102  C   UNL A   1      42.401  29.517  34.857  1.00  0.00     0.049 A 
ATOM    103  H   UNL A   1      40.957  30.312  33.538  1.00  0.00     0.167 HD
ATOM    104  C   UNL A   1      42.745  28.250  32.754  1.00  0.00     0.074 A 
ATOM    105  C   UNL A   1      43.433  27.273  31.937  1.00  0.00    -0.034 C 
ATOM    106  H   UNL A   1      43.233  26.661  29.903  1.00  0.00     0.065 H 
ATOM    107  H   UNL A   1      43.386  29.434  36.775  1.00  0.00     0.065 H 
ATOM    108  C   UNL A   1      43.076  28.548  34.033  1.00  0.00     0.037 A 
ATOM    109  H   UNL A   1      44.215  26.685  32.267  1.00  0.00     0.065 H 
BRANCH  90 110
ATOM    110  C   UNL A   1      39.598  32.937  36.614  1.00  0.00     0.064 A 
ATOM    111  C   UNL A   1      40.282  34.135  36.874  1.00  0.00     0.173 A 
ATOM    112  C   UNL A   1      38.565  32.568  37.489  1.00  0.00     0.173 A 
ATOM    113  F   UNL A   1      41.284  34.526  36.073  1.00  0.00    -0.203 F 
ATOM    114  C   UNL A   1      39.947  34.926  37.969  1.00  0.00     0.198 A 
ATOM    115  C   UNL A   1      38.216  33.376  38.568  1.00  0.00     0.198 A 
ATOM    116  F   UNL A   1      37.874  31.437  37.281  1.00  0.00    -0.203 F 
ATOM    117  F   UNL A   1      40.631  36.054  38.211  1.00  0.00    -0.200 F 
ATOM    118  C   UNL A   1      38.908  34.553  38.808  1.00  0.00     0.200 A 
ATOM    119  F   UNL A   1      37.202  33.021  39.369  1.00  0.00    -0.200 F 
ATOM    120  F   UNL A   1      38.575  35.327  39.850  1.00  0.00    -0.200 F 
ENDBRANCH  90 110
BRANCH  93 121
ATOM    121  C   UNL A   1      41.212  27.568  28.357  1.00  0.00     0.064 A 
ATOM    122  C   UNL A   1      42.125  27.961  27.370  1.00  0.00     0.173 A 
ATOM    123  C   UNL A   1      40.528  26.357  28.168  1.00  0.00     0.173 A 
ATOM    124  F   UNL A   1      42.787  29.122  27.496  1.00  0.00    -0.203 F 
ATOM    125  C   UNL A   1      42.341  27.180  26.238  1.00  0.00     0.198 A 
ATOM    126  C   UNL A   1      40.767  25.562  27.050  1.00  0.00     0.198 A 
ATOM    127  F   UNL A   1      39.644  25.935  29.085  1.00  0.00    -0.203 F 
ATOM    128  F   UNL A   1      43.196  27.595  25.292  1.00  0.00    -0.200 F 
ATOM    129  C   UNL A   1      41.670  25.976  26.083  1.00  0.00     0.200 A 
ATOM    130  F   UNL A   1      40.128  24.392  26.915  1.00  0.00    -0.200 F 
ATOM    131  F   UNL A   1      41.889  25.217  25.000  1.00  0.00    -0.200 F 
ENDBRANCH  93 121
BRANCH 108 132
ATOM    132  C   UNL A   1      44.235  27.813  34.639  1.00  0.00     0.064 A 
ATOM    133  C   UNL A   1      44.062  26.567  35.259  1.00  0.00     0.173 A 
ATOM    134  C   UNL A   1      45.538  28.320  34.527  1.00  0.00     0.173 A 
ATOM    135  F   UNL A   1      42.833  26.049  35.402  1.00  0.00    -0.203 F 
ATOM    136  C   UNL A   1      45.153  25.858  35.753  1.00  0.00     0.198 A 
ATOM    137  C   UNL A   1      46.629  27.596  34.999  1.00  0.00     0.198 A 
ATOM    138  F   UNL A   1      45.755  29.504  33.935  1.00  0.00    -0.203 F 
ATOM    139  F   UNL A   1      44.962  24.682  36.366  1.00  0.00    -0.200 F 
ATOM    140  C   UNL A   1      46.436  26.368  35.613  1.00  0.00     0.200 A 
ATOM    141  F   UNL A   1      47.869  28.081  34.849  1.00  0.00    -0.200 F 
ATOM    142  F   UNL A   1      47.486  25.674  36.072  1.00  0.00    -0.200 F 
ENDBRANCH 108 132
ENDBRANCH  73  76
ENDBRANCH  63  66
ENDBRANCH  59  62
ENDBRANCH  56  59
ENDBRANCH  53  56
ENDBRANCH  50  53
ENDBRANCH   1  50
TORSDOF 19
ENDMDL
MODEL 8
REMARK VINA RESULT:     -12.4      4.517      9.611
REMARK SMILES CC1=C(CC(=O)NCCCCCCNC(=O)c2ccc(-c3c4nc(c(-c5c(F)c(F)c(F)c(F)c5F)c5ccc([nH]5)c(-c5c(F)c(F)c(F)c(F)c5F)c5nc(c(-c6c(F)c(F)c(F)c(F)c6F)c6ccc3[nH]6)C=C5)C=C4)cc2)c2cc(F)ccc2/C1=C\c1ccc([S@@+](C)O)cc1
REMARK SMILES IDX 9 1 8 4 7 7 5 8 6 9 4 11 3 14 2 15 87 16 80 17 86 18 88 19
REMARK SMILES IDX 81 20 85 21 82 23 84 25 83 27 1 29 89 33 90 34 97 35 91 36
REMARK SMILES IDX 96 38 92 40 93 43 94 44 95 48 10 50 11 53 12 56 13 59 14 62
REMARK SMILES IDX 15 63 16 65 17 66 18 67 79 68 19 69 78 71 20 73 21 76 22 77
REMARK SMILES IDX 72 78 23 79 77 80 71 81 73 82 24 83 76 84 70 86 69 88 25 90
REMARK SMILES IDX 57 93 37 94 56 95 38 96 41 97 55 98 74 99 39 100 40 102
REMARK SMILES IDX 54 104 75 105 42 108 26 110 27 111 35 112 28 113 29 114
REMARK SMILES IDX 33 115 36 116 30 117 31 118 34 119 32 120 58 121 59 122
REMARK SMILES IDX 67 123 60 124 61 125 65 126 68 127 62 128 63 129 66 130
REMARK SMILES IDX 64 131 43 132 44 133 52 134 45 135 46 136 50 137 53 138
REMARK SMILES IDX 47 139 48 140 51 141 49 142
REMARK H PARENT 9 2 9 3 8 5 8 6 7 10 4 12 4 13 88 22 81 24 85 26 84 28 1 30
REMARK H PARENT 1 31 1 32 90 37 97 39 91 41 96 42 94 45 94 46 94 47 95 49
REMARK H PARENT 10 51 10 52 11 54 11 55 12 57 12 58 13 60 13 61 14 64 18 70
REMARK H PARENT 79 72 19 74 78 75 77 85 71 87 73 89 76 91 70 92 38 101 41 103
REMARK H PARENT 74 106 39 107 75 109
REMARK Flexibility Score: inf
ROOT
ATOM      1  C   UNL A   1      34.174  26.120  25.734  1.00  0.00    -0.036 C 
ATOM      2  H   UNL A   1      33.280  25.960  26.298  1.00  0.00     0.028 H 
ATOM      3  H   UNL A   1      34.918  26.657  26.285  1.00  0.00     0.028 H 
ENDROOT
BRANCH   1   4
ATOM      4  C   UNL A   1      33.826  26.974  24.514  1.00  0.00     0.017 C 
ATOM      5  H   UNL A   1      34.653  27.615  24.290  1.00  0.00     0.049 H 
ATOM      6  H   UNL A   1      33.621  26.320  23.692  1.00  0.00     0.049 H 
BRANCH   4   7
ATOM      7  N   UNL A   1      32.653  27.785  24.755  1.00  0.00    -0.356 N 
ATOM      8  C   UNL A   1      31.501  27.865  24.032  1.00  0.00     0.224 C 
ATOM      9  O   UNL A   1      30.657  28.698  24.371  1.00  0.00    -0.275 OA
ATOM     10  H   UNL A   1      32.692  28.360  25.555  1.00  0.00     0.163 HD
BRANCH   8  11
ATOM     11  C   UNL A   1      31.245  26.904  22.873  1.00  0.00     0.053 C 
ATOM     12  H   UNL A   1      30.219  26.996  22.584  1.00  0.00     0.042 H 
ATOM     13  H   UNL A   1      31.925  27.179  22.094  1.00  0.00     0.042 H 
BRANCH  11  14
ATOM     14  C   UNL A   1      31.515  25.468  23.186  1.00  0.00    -0.027 C 
ATOM     15  C   UNL A   1      32.339  24.594  22.559  1.00  0.00    -0.039 C 
ATOM     16  C   UNL A   1      32.262  23.280  23.219  1.00  0.00    -0.014 C 
ATOM     17  C   UNL A   1      30.918  24.774  24.340  1.00  0.00    -0.011 A 
ATOM     18  C   UNL A   1      31.404  23.455  24.408  1.00  0.00    -0.010 A 
ATOM     19  C   UNL A   1      32.840  22.157  22.745  1.00  0.00    -0.047 C 
ATOM     20  C   UNL A   1      30.031  25.252  25.297  1.00  0.00    -0.018 A 
ATOM     21  C   UNL A   1      31.057  22.633  25.472  1.00  0.00    -0.051 A 
ATOM     22  H   UNL A   1      33.385  22.236  21.872  1.00  0.00     0.064 H 
ATOM     23  C   UNL A   1      29.646  24.398  26.326  1.00  0.00     0.123 A 
ATOM     24  H   UNL A   1      29.667  26.218  25.247  1.00  0.00     0.066 H 
ATOM     25  C   UNL A   1      30.155  23.105  26.428  1.00  0.00    -0.026 A 
ATOM     26  H   UNL A   1      31.461  21.686  25.556  1.00  0.00     0.063 H 
ATOM     27  F   UNL A   1      28.778  24.830  27.251  1.00  0.00    -0.207 F 
ATOM     28  H   UNL A   1      29.867  22.496  27.210  1.00  0.00     0.065 H 
BRANCH  15  29
ATOM     29  C   UNL A   1      33.232  24.849  21.389  1.00  0.00    -0.039 C 
ATOM     30  H   UNL A   1      32.924  25.747  20.894  1.00  0.00     0.028 H 
ATOM     31  H   UNL A   1      33.169  24.027  20.706  1.00  0.00     0.028 H 
ATOM     32  H   UNL A   1      34.242  24.955  21.726  1.00  0.00     0.028 H 
ENDBRANCH  15  29
BRANCH  19  33
ATOM     33  C   UNL A   1      32.756  20.835  23.370  1.00  0.00    -0.025 A 
ATOM     34  C   UNL A   1      33.484  20.531  24.525  1.00  0.00    -0.050 A 
ATOM     35  C   UNL A   1      32.041  19.824  22.723  1.00  0.00    -0.050 A 
ATOM     36  C   UNL A   1      33.611  19.203  24.944  1.00  0.00    -0.003 A 
ATOM     37  H   UNL A   1      33.928  21.288  25.070  1.00  0.00     0.063 H 
ATOM     38  C   UNL A   1      32.153  18.500  23.155  1.00  0.00    -0.003 A 
ATOM     39  H   UNL A   1      31.429  20.057  21.926  1.00  0.00     0.063 H 
ATOM     40  C   UNL A   1      32.972  18.173  24.243  1.00  0.00     0.189 A 
ATOM     41  H   UNL A   1      34.180  18.979  25.775  1.00  0.00     0.068 H 
ATOM     42  H   UNL A   1      31.628  17.757  22.668  1.00  0.00     0.068 H 
BRANCH  40  43
ATOM     43  S   UNL A   1      33.406  16.446  24.587  1.00  0.00     0.178 S 
BRANCH  43  44
ATOM     44  C   UNL A   1      35.154  16.675  25.001  1.00  0.00     0.137 C 
ATOM     45  H   UNL A   1      35.410  16.044  25.826  1.00  0.00     0.085 H 
ATOM     46  H   UNL A   1      35.326  17.697  25.265  1.00  0.00     0.085 H 
ATOM     47  H   UNL A   1      35.757  16.418  24.155  1.00  0.00     0.085 H 
ENDBRANCH  43  44
BRANCH  43  48
ATOM     48  O   UNL A   1      32.936  16.478  26.126  1.00  0.00    -0.182 OA
ATOM     49  H   UNL A   1      33.278  15.694  26.584  1.00  0.00     0.283 HD
ENDBRANCH  43  48
ENDBRANCH  40  43
ENDBRANCH  19  33
ENDBRANCH  11  14
ENDBRANCH   8  11
ENDBRANCH   4   7
ENDBRANCH   1   4
BRANCH   1  50
ATOM     50  C   UNL A   1      34.777  24.753  25.386  1.00  0.00    -0.052 C 
ATOM     51  H   UNL A   1      35.842  24.858  25.359  1.00  0.00     0.027 H 
ATOM     52  H   UNL A   1      34.350  24.472  24.446  1.00  0.00     0.027 H 
BRANCH  50  53
ATOM     53  C   UNL A   1      34.439  23.617  26.360  1.00  0.00    -0.052 C 
ATOM     54  H   UNL A   1      33.520  23.172  26.040  1.00  0.00     0.027 H 
ATOM     55  H   UNL A   1      34.384  24.064  27.330  1.00  0.00     0.027 H 
BRANCH  53  56
ATOM     56  C   UNL A   1      35.489  22.510  26.461  1.00  0.00    -0.036 C 
ATOM     57  H   UNL A   1      34.985  21.567  26.432  1.00  0.00     0.028 H 
ATOM     58  H   UNL A   1      36.018  22.679  27.375  1.00  0.00     0.028 H 
BRANCH  56  59
ATOM     59  C   UNL A   1      36.535  22.522  25.351  1.00  0.00     0.018 C 
ATOM     60  H   UNL A   1      37.071  23.447  25.396  1.00  0.00     0.049 H 
ATOM     61  H   UNL A   1      36.019  22.408  24.421  1.00  0.00     0.049 H 
BRANCH  59  62
ATOM     62  N   UNL A   1      37.487  21.427  25.463  1.00  0.00    -0.352 N 
ATOM     63  C   UNL A   1      38.785  21.447  25.913  1.00  0.00     0.251 C 
ATOM     64  H   UNL A   1      37.153  20.547  25.174  1.00  0.00     0.163 HD
ATOM     65  O   UNL A   1      39.498  20.453  25.801  1.00  0.00    -0.269 OA
BRANCH  63  66
ATOM     66  C   UNL A   1      39.338  22.686  26.503  1.00  0.00     0.039 A 
ATOM     67  C   UNL A   1      38.878  23.937  26.090  1.00  0.00    -0.049 A 
ATOM     68  C   UNL A   1      40.350  22.593  27.463  1.00  0.00    -0.049 A 
ATOM     69  C   UNL A   1      39.547  25.085  26.499  1.00  0.00    -0.053 A 
ATOM     70  H   UNL A   1      38.047  24.009  25.483  1.00  0.00     0.063 H 
ATOM     71  C   UNL A   1      40.963  23.755  27.942  1.00  0.00    -0.053 A 
ATOM     72  H   UNL A   1      40.644  21.669  27.818  1.00  0.00     0.063 H 
ATOM     73  C   UNL A   1      40.604  25.009  27.422  1.00  0.00    -0.014 A 
ATOM     74  H   UNL A   1      39.265  26.002  26.121  1.00  0.00     0.063 H 
ATOM     75  H   UNL A   1      41.682  23.692  28.680  1.00  0.00     0.063 H 
BRANCH  73  76
ATOM     76  C   UNL A   1      41.322  26.253  27.806  1.00  0.00     0.031 A 
ATOM     77  C   UNL A   1      42.722  26.516  27.318  1.00  0.00     0.074 A 
ATOM     78  C   UNL A   1      40.677  27.187  28.533  1.00  0.00     0.049 A 
ATOM     79  N   UNL A   1      43.475  27.572  27.504  1.00  0.00    -0.248 NA
ATOM     80  C   UNL A   1      43.365  25.460  26.521  1.00  0.00    -0.034 C 
ATOM     81  C   UNL A   1      39.317  27.051  29.057  1.00  0.00    -0.036 A 
ATOM     82  N   UNL A   1      41.060  28.444  28.926  1.00  0.00    -0.354 N 
ATOM     83  C   UNL A   1      44.676  27.302  26.861  1.00  0.00     0.074 A 
ATOM     84  C   UNL A   1      44.570  25.970  26.308  1.00  0.00    -0.034 C 
ATOM     85  H   UNL A   1      42.978  24.556  26.208  1.00  0.00     0.065 H 
ATOM     86  C   UNL A   1      38.957  28.200  29.645  1.00  0.00    -0.036 A 
ATOM     87  H   UNL A   1      38.730  26.205  28.984  1.00  0.00     0.065 H 
ATOM     88  C   UNL A   1      40.078  29.133  29.597  1.00  0.00     0.049 A 
ATOM     89  H   UNL A   1      41.953  28.817  28.746  1.00  0.00     0.167 HD
ATOM     90  C   UNL A   1      45.761  28.102  26.727  1.00  0.00     0.037 A 
ATOM     91  H   UNL A   1      45.332  25.482  25.813  1.00  0.00     0.065 H 
ATOM     92  H   UNL A   1      38.034  28.394  30.066  1.00  0.00     0.065 H 
ATOM     93  C   UNL A   1      40.081  30.374  30.119  1.00  0.00     0.037 A 
ATOM     94  C   UNL A   1      45.856  29.439  27.252  1.00  0.00     0.049 A 
ATOM     95  C   UNL A   1      41.315  31.221  29.993  1.00  0.00     0.074 A 
ATOM     96  C   UNL A   1      46.905  30.335  27.140  1.00  0.00    -0.036 A 
ATOM     97  N   UNL A   1      44.864  30.073  27.984  1.00  0.00    -0.354 N 
ATOM     98  N   UNL A   1      42.435  30.958  29.366  1.00  0.00    -0.248 NA
ATOM     99  C   UNL A   1      41.291  32.531  30.658  1.00  0.00    -0.034 C 
ATOM    100  C   UNL A   1      46.566  31.496  27.840  1.00  0.00    -0.036 A 
ATOM    101  H   UNL A   1      47.787  30.174  26.628  1.00  0.00     0.065 H 
ATOM    102  C   UNL A   1      45.287  31.341  28.351  1.00  0.00     0.049 A 
ATOM    103  H   UNL A   1      43.989  29.682  28.209  1.00  0.00     0.167 HD
ATOM    104  C   UNL A   1      43.245  32.070  29.553  1.00  0.00     0.074 A 
ATOM    105  C   UNL A   1      42.479  33.020  30.331  1.00  0.00    -0.034 C 
ATOM    106  H   UNL A   1      40.545  32.958  31.230  1.00  0.00     0.065 H 
ATOM    107  H   UNL A   1      47.165  32.327  27.957  1.00  0.00     0.065 H 
ATOM    108  C   UNL A   1      44.513  32.277  29.124  1.00  0.00     0.037 A 
ATOM    109  H   UNL A   1      42.814  33.960  30.597  1.00  0.00     0.065 H 
BRANCH  90 110
ATOM    110  C   UNL A   1      46.945  27.566  25.977  1.00  0.00     0.064 A 
ATOM    111  C   UNL A   1      47.045  27.684  24.583  1.00  0.00     0.173 A 
ATOM    112  C   UNL A   1      48.032  27.006  26.667  1.00  0.00     0.173 A 
ATOM    113  F   UNL A   1      46.029  28.203  23.876  1.00  0.00    -0.203 F 
ATOM    114  C   UNL A   1      48.183  27.254  23.907  1.00  0.00     0.198 A 
ATOM    115  C   UNL A   1      49.180  26.600  25.990  1.00  0.00     0.198 A 
ATOM    116  F   UNL A   1      47.992  26.877  28.002  1.00  0.00    -0.203 F 
ATOM    117  F   UNL A   1      48.245  27.355  22.571  1.00  0.00    -0.200 F 
ATOM    118  C   UNL A   1      49.253  26.723  24.611  1.00  0.00     0.200 A 
ATOM    119  F   UNL A   1      50.218  26.102  26.674  1.00  0.00    -0.200 F 
ATOM    120  F   UNL A   1      50.357  26.328  23.960  1.00  0.00    -0.200 F 
ENDBRANCH  90 110
BRANCH  93 121
ATOM    121  C   UNL A   1      38.866  30.886  30.804  1.00  0.00     0.064 A 
ATOM    122  C   UNL A   1      37.828  31.486  30.078  1.00  0.00     0.173 A 
ATOM    123  C   UNL A   1      38.706  30.766  32.193  1.00  0.00     0.173 A 
ATOM    124  F   UNL A   1      37.945  31.644  28.751  1.00  0.00    -0.203 F 
ATOM    125  C   UNL A   1      36.682  31.954  30.715  1.00  0.00     0.198 A 
ATOM    126  C   UNL A   1      37.546  31.207  32.825  1.00  0.00     0.198 A 
ATOM    127  F   UNL A   1      39.669  30.196  32.933  1.00  0.00    -0.203 F 
ATOM    128  F   UNL A   1      35.719  32.555  30.002  1.00  0.00    -0.200 F 
ATOM    129  C   UNL A   1      36.537  31.805  32.087  1.00  0.00     0.200 A 
ATOM    130  F   UNL A   1      37.404  31.045  34.147  1.00  0.00    -0.200 F 
ATOM    131  F   UNL A   1      35.427  32.242  32.698  1.00  0.00    -0.200 F 
ENDBRANCH  93 121
BRANCH 108 132
ATOM    132  C   UNL A   1      45.162  33.581  29.482  1.00  0.00     0.064 A 
ATOM    133  C   UNL A   1      45.938  33.713  30.643  1.00  0.00     0.173 A 
ATOM    134  C   UNL A   1      45.075  34.683  28.618  1.00  0.00     0.173 A 
ATOM    135  F   UNL A   1      46.039  32.692  31.507  1.00  0.00    -0.203 F 
ATOM    136  C   UNL A   1      46.597  34.905  30.929  1.00  0.00     0.198 A 
ATOM    137  C   UNL A   1      45.756  35.864  28.894  1.00  0.00     0.198 A 
ATOM    138  F   UNL A   1      44.351  34.603  27.491  1.00  0.00    -0.203 F 
ATOM    139  F   UNL A   1      47.311  35.019  32.058  1.00  0.00    -0.200 F 
ATOM    140  C   UNL A   1      46.514  35.975  30.050  1.00  0.00     0.200 A 
ATOM    141  F   UNL A   1      45.688  36.891  28.037  1.00  0.00    -0.200 F 
ATOM    142  F   UNL A   1      47.165  37.115  30.318  1.00  0.00    -0.200 F 
ENDBRANCH 108 132
ENDBRANCH  73  76
ENDBRANCH  63  66
ENDBRANCH  59  62
ENDBRANCH  56  59
ENDBRANCH  53  56
ENDBRANCH  50  53
ENDBRANCH   1  50
TORSDOF 19
ENDMDL
MODEL 9
REMARK VINA RESULT:     -12.4      1.281      2.095
REMARK SMILES CC1=C(CC(=O)NCCCCCCNC(=O)c2ccc(-c3c4nc(c(-c5c(F)c(F)c(F)c(F)c5F)c5ccc([nH]5)c(-c5c(F)c(F)c(F)c(F)c5F)c5nc(c(-c6c(F)c(F)c(F)c(F)c6F)c6ccc3[nH]6)C=C5)C=C4)cc2)c2cc(F)ccc2/C1=C\c1ccc([S@@+](C)O)cc1
REMARK SMILES IDX 9 1 8 4 7 7 5 8 6 9 4 11 3 14 2 15 87 16 80 17 86 18 88 19
REMARK SMILES IDX 81 20 85 21 82 23 84 25 83 27 1 29 89 33 90 34 97 35 91 36
REMARK SMILES IDX 96 38 92 40 93 43 94 44 95 48 10 50 11 53 12 56 13 59 14 62
REMARK SMILES IDX 15 63 16 65 17 66 18 67 79 68 19 69 78 71 20 73 21 76 22 77
REMARK SMILES IDX 72 78 23 79 77 80 71 81 73 82 24 83 76 84 70 86 69 88 25 90
REMARK SMILES IDX 57 93 37 94 56 95 38 96 41 97 55 98 74 99 39 100 40 102
REMARK SMILES IDX 54 104 75 105 42 108 26 110 27 111 35 112 28 113 29 114
REMARK SMILES IDX 33 115 36 116 30 117 31 118 34 119 32 120 58 121 59 122
REMARK SMILES IDX 67 123 60 124 61 125 65 126 68 127 62 128 63 129 66 130
REMARK SMILES IDX 64 131 43 132 44 133 52 134 45 135 46 136 50 137 53 138
REMARK SMILES IDX 47 139 48 140 51 141 49 142
REMARK H PARENT 9 2 9 3 8 5 8 6 7 10 4 12 4 13 88 22 81 24 85 26 84 28 1 30
REMARK H PARENT 1 31 1 32 90 37 97 39 91 41 96 42 94 45 94 46 94 47 95 49
REMARK H PARENT 10 51 10 52 11 54 11 55 12 57 12 58 13 60 13 61 14 64 18 70
REMARK H PARENT 79 72 19 74 78 75 77 85 71 87 73 89 76 91 70 92 38 101 41 103
REMARK H PARENT 74 106 39 107 75 109
REMARK Flexibility Score: inf
ROOT
ATOM      1  C   UNL A   1      33.906  29.131  26.204  1.00  0.00    -0.036 C 
ATOM      2  H   UNL A   1      34.488  29.802  25.608  1.00  0.00     0.028 H 
ATOM      3  H   UNL A   1      34.508  28.422  26.733  1.00  0.00     0.028 H 
ENDROOT
BRANCH   1   4
ATOM      4  C   UNL A   1      32.994  28.329  25.274  1.00  0.00     0.017 C 
ATOM      5  H   UNL A   1      33.431  27.368  25.101  1.00  0.00     0.049 H 
ATOM      6  H   UNL A   1      32.037  28.231  25.742  1.00  0.00     0.049 H 
BRANCH   4   7
ATOM      7  N   UNL A   1      32.815  29.001  24.005  1.00  0.00    -0.356 N 
ATOM      8  C   UNL A   1      31.903  28.752  23.024  1.00  0.00     0.224 C 
ATOM      9  O   UNL A   1      31.987  29.393  21.973  1.00  0.00    -0.275 OA
ATOM     10  H   UNL A   1      33.440  29.741  23.825  1.00  0.00     0.163 HD
BRANCH   8  11
ATOM     11  C   UNL A   1      30.774  27.749  23.251  1.00  0.00     0.053 C 
ATOM     12  H   UNL A   1      30.258  28.023  24.147  1.00  0.00     0.042 H 
ATOM     13  H   UNL A   1      30.151  27.790  22.381  1.00  0.00     0.042 H 
BRANCH  11  14
ATOM     14  C   UNL A   1      31.224  26.330  23.385  1.00  0.00    -0.027 C 
ATOM     15  C   UNL A   1      32.137  25.647  22.654  1.00  0.00    -0.039 C 
ATOM     16  C   UNL A   1      32.234  24.264  23.148  1.00  0.00    -0.014 C 
ATOM     17  C   UNL A   1      30.735  25.432  24.446  1.00  0.00    -0.011 A 
ATOM     18  C   UNL A   1      31.381  24.185  24.351  1.00  0.00    -0.010 A 
ATOM     19  C   UNL A   1      32.937  23.287  22.538  1.00  0.00    -0.047 C 
ATOM     20  C   UNL A   1      29.814  25.677  25.456  1.00  0.00    -0.018 A 
ATOM     21  C   UNL A   1      31.156  23.203  25.307  1.00  0.00    -0.051 A 
ATOM     22  H   UNL A   1      33.453  23.538  21.681  1.00  0.00     0.064 H 
ATOM     23  C   UNL A   1      29.554  24.663  26.373  1.00  0.00     0.123 A 
ATOM     24  H   UNL A   1      29.333  26.589  25.526  1.00  0.00     0.066 H 
ATOM     25  C   UNL A   1      30.220  23.440  26.315  1.00  0.00    -0.026 A 
ATOM     26  H   UNL A   1      31.674  22.311  25.273  1.00  0.00     0.063 H 
ATOM     27  F   UNL A   1      28.656  24.869  27.346  1.00  0.00    -0.207 F 
ATOM     28  H   UNL A   1      30.022  22.710  27.017  1.00  0.00     0.065 H 
BRANCH  15  29
ATOM     29  C   UNL A   1      32.972  26.151  21.522  1.00  0.00    -0.039 C 
ATOM     30  H   UNL A   1      33.239  25.334  20.884  1.00  0.00     0.028 H 
ATOM     31  H   UNL A   1      33.860  26.607  21.907  1.00  0.00     0.028 H 
ATOM     32  H   UNL A   1      32.416  26.873  20.962  1.00  0.00     0.028 H 
ENDBRANCH  15  29
BRANCH  19  33
ATOM     33  C   UNL A   1      33.026  21.898  22.996  1.00  0.00    -0.025 A 
ATOM     34  C   UNL A   1      32.174  20.912  22.488  1.00  0.00    -0.050 A 
ATOM     35  C   UNL A   1      33.885  21.586  24.052  1.00  0.00    -0.050 A 
ATOM     36  C   UNL A   1      32.082  19.670  23.125  1.00  0.00    -0.003 A 
ATOM     37  H   UNL A   1      31.613  21.100  21.641  1.00  0.00     0.063 H 
ATOM     38  C   UNL A   1      33.805  20.338  24.675  1.00  0.00    -0.003 A 
ATOM     39  H   UNL A   1      34.580  22.279  24.372  1.00  0.00     0.063 H 
ATOM     40  C   UNL A   1      32.874  19.385  24.243  1.00  0.00     0.189 A 
ATOM     41  H   UNL A   1      31.424  18.959  22.769  1.00  0.00     0.068 H 
ATOM     42  H   UNL A   1      34.437  20.117  25.460  1.00  0.00     0.068 H 
BRANCH  40  43
ATOM     43  S   UNL A   1      32.514  17.922  25.252  1.00  0.00     0.178 S 
BRANCH  43  44
ATOM     44  C   UNL A   1      34.070  17.027  25.013  1.00  0.00     0.137 C 
ATOM     45  H   UNL A   1      34.087  16.165  25.645  1.00  0.00     0.085 H 
ATOM     46  H   UNL A   1      34.890  17.667  25.260  1.00  0.00     0.085 H 
ATOM     47  H   UNL A   1      34.151  16.721  23.991  1.00  0.00     0.085 H 
ENDBRANCH  43  44
BRANCH  43  48
ATOM     48  O   UNL A   1      32.991  18.577  26.642  1.00  0.00    -0.182 OA
ATOM     49  H   UNL A   1      32.434  18.245  27.364  1.00  0.00     0.283 HD
ENDBRANCH  43  48
ENDBRANCH  40  43
ENDBRANCH  19  33
ENDBRANCH  11  14
ENDBRANCH   8  11
ENDBRANCH   4   7
ENDBRANCH   1   4
BRANCH   1  50
ATOM     50  C   UNL A   1      33.154  29.951  27.260  1.00  0.00    -0.052 C 
ATOM     51  H   UNL A   1      33.746  30.810  27.496  1.00  0.00     0.027 H 
ATOM     52  H   UNL A   1      33.001  29.293  28.091  1.00  0.00     0.027 H 
BRANCH  50  53
ATOM     53  C   UNL A   1      31.760  30.437  26.846  1.00  0.00    -0.052 C 
ATOM     54  H   UNL A   1      31.055  30.065  27.559  1.00  0.00     0.027 H 
ATOM     55  H   UNL A   1      31.600  30.069  25.854  1.00  0.00     0.027 H 
BRANCH  53  56
ATOM     56  C   UNL A   1      31.595  31.955  26.768  1.00  0.00    -0.036 C 
ATOM     57  H   UNL A   1      30.751  32.231  27.364  1.00  0.00     0.028 H 
ATOM     58  H   UNL A   1      31.476  32.193  25.731  1.00  0.00     0.028 H 
BRANCH  56  59
ATOM     59  C   UNL A   1      32.800  32.751  27.256  1.00  0.00     0.018 C 
ATOM     60  H   UNL A   1      33.529  32.784  26.473  1.00  0.00     0.049 H 
ATOM     61  H   UNL A   1      33.177  32.262  28.129  1.00  0.00     0.049 H 
BRANCH  59  62
ATOM     62  N   UNL A   1      32.459  34.116  27.631  1.00  0.00    -0.352 N 
ATOM     63  C   UNL A   1      33.012  34.914  28.604  1.00  0.00     0.251 C 
ATOM     64  H   UNL A   1      31.728  34.525  27.114  1.00  0.00     0.163 HD
ATOM     65  O   UNL A   1      32.502  35.994  28.886  1.00  0.00    -0.269 OA
BRANCH  63  66
ATOM     66  C   UNL A   1      34.208  34.450  29.340  1.00  0.00     0.039 A 
ATOM     67  C   UNL A   1      35.489  34.699  28.846  1.00  0.00    -0.049 A 
ATOM     68  C   UNL A   1      34.043  33.731  30.528  1.00  0.00    -0.049 A 
ATOM     69  C   UNL A   1      36.587  34.081  29.437  1.00  0.00    -0.053 A 
ATOM     70  H   UNL A   1      35.622  35.337  28.046  1.00  0.00     0.063 H 
ATOM     71  C   UNL A   1      35.158  33.185  31.172  1.00  0.00    -0.053 A 
ATOM     72  H   UNL A   1      33.100  33.604  30.929  1.00  0.00     0.063 H 
ATOM     73  C   UNL A   1      36.434  33.309  30.601  1.00  0.00    -0.014 A 
ATOM     74  H   UNL A   1      37.522  34.192  29.016  1.00  0.00     0.063 H 
ATOM     75  H   UNL A   1      35.043  32.689  32.069  1.00  0.00     0.063 H 
BRANCH  73  76
ATOM     76  C   UNL A   1      37.624  32.631  31.181  1.00  0.00     0.031 A 
ATOM     77  C   UNL A   1      38.097  32.965  32.571  1.00  0.00     0.074 A 
ATOM     78  C   UNL A   1      38.231  31.653  30.481  1.00  0.00     0.049 A 
ATOM     79  N   UNL A   1      39.077  32.431  33.259  1.00  0.00    -0.248 NA
ATOM     80  C   UNL A   1      37.384  34.035  33.285  1.00  0.00    -0.034 C 
ATOM     81  C   UNL A   1      37.860  31.235  29.128  1.00  0.00    -0.036 A 
ATOM     82  N   UNL A   1      39.261  30.811  30.818  1.00  0.00    -0.354 N 
ATOM     83  C   UNL A   1      39.104  33.107  34.472  1.00  0.00     0.074 A 
ATOM     84  C   UNL A   1      38.067  34.113  34.419  1.00  0.00    -0.034 C 
ATOM     85  H   UNL A   1      36.564  34.583  32.983  1.00  0.00     0.065 H 
ATOM     86  C   UNL A   1      38.604  30.177  28.776  1.00  0.00    -0.036 A 
ATOM     87  H   UNL A   1      37.139  31.683  28.540  1.00  0.00     0.065 H 
ATOM     88  C   UNL A   1      39.547  29.880  29.849  1.00  0.00     0.049 A 
ATOM     89  H   UNL A   1      39.748  30.869  31.671  1.00  0.00     0.167 HD
ATOM     90  C   UNL A   1      39.908  32.891  35.540  1.00  0.00     0.037 A 
ATOM     91  H   UNL A   1      37.883  34.800  35.166  1.00  0.00     0.065 H 
ATOM     92  H   UNL A   1      38.523  29.657  27.888  1.00  0.00     0.065 H 
ATOM     93  C   UNL A   1      40.469  28.899  29.824  1.00  0.00     0.037 A 
ATOM     94  C   UNL A   1      40.921  31.870  35.605  1.00  0.00     0.049 A 
ATOM     95  C   UNL A   1      41.377  28.714  31.007  1.00  0.00     0.074 A 
ATOM     96  C   UNL A   1      41.764  31.560  36.657  1.00  0.00    -0.036 A 
ATOM     97  N   UNL A   1      41.225  30.993  34.576  1.00  0.00    -0.354 N 
ATOM     98  N   UNL A   1      41.377  29.348  32.153  1.00  0.00    -0.248 NA
ATOM     99  C   UNL A   1      42.421  27.687  30.888  1.00  0.00    -0.034 C 
ATOM    100  C   UNL A   1      42.608  30.522  36.251  1.00  0.00    -0.036 A 
ATOM    101  H   UNL A   1      41.770  32.016  37.583  1.00  0.00     0.065 H 
ATOM    102  C   UNL A   1      42.260  30.155  34.960  1.00  0.00     0.049 A 
ATOM    103  H   UNL A   1      40.772  30.967  33.702  1.00  0.00     0.167 HD
ATOM    104  C   UNL A   1      42.411  28.793  32.895  1.00  0.00     0.074 A 
ATOM    105  C   UNL A   1      43.001  27.754  32.078  1.00  0.00    -0.034 C 
ATOM    106  H   UNL A   1      42.643  27.073  30.088  1.00  0.00     0.065 H 
ATOM    107  H   UNL A   1      43.361  30.100  36.815  1.00  0.00     0.065 H 
ATOM    108  C   UNL A   1      42.836  29.124  34.137  1.00  0.00     0.037 A 
ATOM    109  H   UNL A   1      43.775  27.142  32.383  1.00  0.00     0.065 H 
BRANCH  90 110
ATOM    110  C   UNL A   1      39.733  33.771  36.744  1.00  0.00     0.064 A 
ATOM    111  C   UNL A   1      40.329  35.039  36.818  1.00  0.00     0.173 A 
ATOM    112  C   UNL A   1      38.889  33.380  37.795  1.00  0.00     0.173 A 
ATOM    113  F   UNL A   1      41.151  35.455  35.844  1.00  0.00    -0.203 F 
ATOM    114  C   UNL A   1      40.094  35.877  37.904  1.00  0.00     0.198 A 
ATOM    115  C   UNL A   1      38.636  34.231  38.868  1.00  0.00     0.198 A 
ATOM    116  F   UNL A   1      38.288  32.180  37.769  1.00  0.00    -0.203 F 
ATOM    117  F   UNL A   1      40.694  37.075  37.965  1.00  0.00    -0.200 F 
ATOM    118  C   UNL A   1      39.240  35.478  38.922  1.00  0.00     0.200 A 
ATOM    119  F   UNL A   1      37.799  33.850  39.842  1.00  0.00    -0.200 F 
ATOM    120  F   UNL A   1      38.999  36.296  39.957  1.00  0.00    -0.200 F 
ENDBRANCH  90 110
BRANCH  93 121
ATOM    121  C   UNL A   1      40.570  28.015  28.634  1.00  0.00     0.064 A 
ATOM    122  C   UNL A   1      39.887  26.793  28.584  1.00  0.00     0.173 A 
ATOM    123  C   UNL A   1      41.332  28.382  27.515  1.00  0.00     0.173 A 
ATOM    124  F   UNL A   1      39.163  26.387  29.639  1.00  0.00    -0.203 F 
ATOM    125  C   UNL A   1      39.968  25.969  27.464  1.00  0.00     0.198 A 
ATOM    126  C   UNL A   1      41.388  27.572  26.384  1.00  0.00     0.198 A 
ATOM    127  F   UNL A   1      42.004  29.544  27.512  1.00  0.00    -0.203 F 
ATOM    128  F   UNL A   1      39.332  24.789  27.455  1.00  0.00    -0.200 F 
ATOM    129  C   UNL A   1      40.711  26.363  26.361  1.00  0.00     0.200 A 
ATOM    130  F   UNL A   1      42.093  27.966  25.314  1.00  0.00    -0.200 F 
ATOM    131  F   UNL A   1      40.776  25.577  25.278  1.00  0.00    -0.200 F 
ENDBRANCH  93 121
BRANCH 108 132
ATOM    132  C   UNL A   1      43.997  28.359  34.700  1.00  0.00     0.064 A 
ATOM    133  C   UNL A   1      45.310  28.836  34.581  1.00  0.00     0.173 A 
ATOM    134  C   UNL A   1      43.787  27.182  35.434  1.00  0.00     0.173 A 
ATOM    135  F   UNL A   1      45.562  29.949  33.876  1.00  0.00    -0.203 F 
ATOM    136  C   UNL A   1      46.373  28.158  35.170  1.00  0.00     0.198 A 
ATOM    137  C   UNL A   1      44.849  26.520  36.043  1.00  0.00     0.198 A 
ATOM    138  F   UNL A   1      42.548  26.689  35.583  1.00  0.00    -0.203 F 
ATOM    139  F   UNL A   1      47.623  28.616  35.020  1.00  0.00    -0.200 F 
ATOM    140  C   UNL A   1      46.140  27.007  35.909  1.00  0.00     0.200 A 
ATOM    141  F   UNL A   1      44.621  25.418  36.770  1.00  0.00    -0.200 F 
ATOM    142  F   UNL A   1      47.163  26.366  36.491  1.00  0.00    -0.200 F 
ENDBRANCH 108 132
ENDBRANCH  73  76
ENDBRANCH  63  66
ENDBRANCH  59  62
ENDBRANCH  56  59
ENDBRANCH  53  56
ENDBRANCH  50  53
ENDBRANCH   1  50
TORSDOF 19
ENDMDL
MODEL 10
REMARK VINA RESULT:     -12.4      3.496      7.337
REMARK SMILES CC1=C(CC(=O)NCCCCCCNC(=O)c2ccc(-c3c4nc(c(-c5c(F)c(F)c(F)c(F)c5F)c5ccc([nH]5)c(-c5c(F)c(F)c(F)c(F)c5F)c5nc(c(-c6c(F)c(F)c(F)c(F)c6F)c6ccc3[nH]6)C=C5)C=C4)cc2)c2cc(F)ccc2/C1=C\c1ccc([S@@+](C)O)cc1
REMARK SMILES IDX 9 1 8 4 7 7 5 8 6 9 4 11 3 14 2 15 87 16 80 17 86 18 88 19
REMARK SMILES IDX 81 20 85 21 82 23 84 25 83 27 1 29 89 33 90 34 97 35 91 36
REMARK SMILES IDX 96 38 92 40 93 43 94 44 95 48 10 50 11 53 12 56 13 59 14 62
REMARK SMILES IDX 15 63 16 65 17 66 18 67 79 68 19 69 78 71 20 73 21 76 22 77
REMARK SMILES IDX 72 78 23 79 77 80 71 81 73 82 24 83 76 84 70 86 69 88 25 90
REMARK SMILES IDX 57 93 37 94 56 95 38 96 41 97 55 98 74 99 39 100 40 102
REMARK SMILES IDX 54 104 75 105 42 108 26 110 27 111 35 112 28 113 29 114
REMARK SMILES IDX 33 115 36 116 30 117 31 118 34 119 32 120 58 121 59 122
REMARK SMILES IDX 67 123 60 124 61 125 65 126 68 127 62 128 63 129 66 130
REMARK SMILES IDX 64 131 43 132 44 133 52 134 45 135 46 136 50 137 53 138
REMARK SMILES IDX 47 139 48 140 51 141 49 142
REMARK H PARENT 9 2 9 3 8 5 8 6 7 10 4 12 4 13 88 22 81 24 85 26 84 28 1 30
REMARK H PARENT 1 31 1 32 90 37 97 39 91 41 96 42 94 45 94 46 94 47 95 49
REMARK H PARENT 10 51 10 52 11 54 11 55 12 57 12 58 13 60 13 61 14 64 18 70
REMARK H PARENT 79 72 19 74 78 75 77 85 71 87 73 89 76 91 70 92 38 101 41 103
REMARK H PARENT 74 106 39 107 75 109
REMARK Flexibility Score: inf
ROOT
ATOM      1  C   UNL A   1      33.992  26.498  25.355  1.00  0.00    -0.036 C 
ATOM      2  H   UNL A   1      33.136  26.277  25.956  1.00  0.00     0.028 H 
ATOM      3  H   UNL A   1      34.702  27.117  25.862  1.00  0.00     0.028 H 
ENDROOT
BRANCH   1   4
ATOM      4  C   UNL A   1      33.527  27.277  24.124  1.00  0.00     0.017 C 
ATOM      5  H   UNL A   1      34.305  27.947  23.821  1.00  0.00     0.049 H 
ATOM      6  H   UNL A   1      33.307  26.577  23.345  1.00  0.00     0.049 H 
BRANCH   4   7
ATOM      7  N   UNL A   1      32.330  28.040  24.404  1.00  0.00    -0.356 N 
ATOM      8  C   UNL A   1      31.125  28.008  23.771  1.00  0.00     0.224 C 
ATOM      9  O   UNL A   1      30.261  28.816  24.119  1.00  0.00    -0.275 OA
ATOM     10  H   UNL A   1      32.396  28.671  25.158  1.00  0.00     0.163 HD
BRANCH   8  11
ATOM     11  C   UNL A   1      30.838  26.956  22.700  1.00  0.00     0.053 C 
ATOM     12  H   UNL A   1      29.784  26.944  22.518  1.00  0.00     0.042 H 
ATOM     13  H   UNL A   1      31.408  27.235  21.839  1.00  0.00     0.042 H 
BRANCH  11  14
ATOM     14  C   UNL A   1      31.266  25.571  23.062  1.00  0.00    -0.027 C 
ATOM     15  C   UNL A   1      32.143  24.752  22.433  1.00  0.00    -0.039 C 
ATOM     16  C   UNL A   1      32.230  23.471  23.153  1.00  0.00    -0.014 C 
ATOM     17  C   UNL A   1      30.797  24.879  24.276  1.00  0.00    -0.011 A 
ATOM     18  C   UNL A   1      31.416  23.619  24.376  1.00  0.00    -0.010 A 
ATOM     19  C   UNL A   1      32.894  22.388  22.699  1.00  0.00    -0.047 C 
ATOM     20  C   UNL A   1      29.913  25.314  25.255  1.00  0.00    -0.018 A 
ATOM     21  C   UNL A   1      31.205  22.820  25.492  1.00  0.00    -0.051 A 
ATOM     22  H   UNL A   1      33.387  22.477  21.797  1.00  0.00     0.064 H 
ATOM     23  C   UNL A   1      29.665  24.478  26.340  1.00  0.00     0.123 A 
ATOM     24  H   UNL A   1      29.453  26.236  25.182  1.00  0.00     0.066 H 
ATOM     25  C   UNL A   1      30.307  23.248  26.472  1.00  0.00    -0.026 A 
ATOM     26  H   UNL A   1      31.705  21.923  25.596  1.00  0.00     0.063 H 
ATOM     27  F   UNL A   1      28.804  24.868  27.289  1.00  0.00    -0.207 F 
ATOM     28  H   UNL A   1      30.119  22.653  27.294  1.00  0.00     0.065 H 
BRANCH  15  29
ATOM     29  C   UNL A   1      32.949  25.035  21.207  1.00  0.00    -0.039 C 
ATOM     30  H   UNL A   1      32.993  26.093  21.045  1.00  0.00     0.028 H 
ATOM     31  H   UNL A   1      32.490  24.565  20.361  1.00  0.00     0.028 H 
ATOM     32  H   UNL A   1      33.939  24.652  21.334  1.00  0.00     0.028 H 
ENDBRANCH  15  29
BRANCH  19  33
ATOM     33  C   UNL A   1      32.973  21.096  23.385  1.00  0.00    -0.025 A 
ATOM     34  C   UNL A   1      33.871  20.888  24.438  1.00  0.00    -0.050 A 
ATOM     35  C   UNL A   1      32.235  20.020  22.890  1.00  0.00    -0.050 A 
ATOM     36  C   UNL A   1      34.130  19.591  24.891  1.00  0.00    -0.003 A 
ATOM     37  H   UNL A   1      34.342  21.693  24.882  1.00  0.00     0.063 H 
ATOM     38  C   UNL A   1      32.482  18.726  23.357  1.00  0.00    -0.003 A 
ATOM     39  H   UNL A   1      31.506  20.180  22.177  1.00  0.00     0.063 H 
ATOM     40  C   UNL A   1      33.460  18.496  24.332  1.00  0.00     0.189 A 
ATOM     41  H   UNL A   1      34.821  19.439  25.643  1.00  0.00     0.068 H 
ATOM     42  H   UNL A   1      31.938  17.934  22.981  1.00  0.00     0.068 H 
BRANCH  40  43
ATOM     43  S   UNL A   1      34.036  16.813  24.684  1.00  0.00     0.178 S 
BRANCH  43  44
ATOM     44  C   UNL A   1      32.526  16.151  25.432  1.00  0.00     0.137 C 
ATOM     45  H   UNL A   1      31.823  15.911  24.662  1.00  0.00     0.085 H 
ATOM     46  H   UNL A   1      32.102  16.883  26.087  1.00  0.00     0.085 H 
ATOM     47  H   UNL A   1      32.761  15.268  25.988  1.00  0.00     0.085 H 
ENDBRANCH  43  44
BRANCH  43  48
ATOM     48  O   UNL A   1      33.688  16.228  23.226  1.00  0.00    -0.182 OA
ATOM     49  H   UNL A   1      34.119  16.772  22.548  1.00  0.00     0.283 HD
ENDBRANCH  43  48
ENDBRANCH  40  43
ENDBRANCH  19  33
ENDBRANCH  11  14
ENDBRANCH   8  11
ENDBRANCH   4   7
ENDBRANCH   1   4
BRANCH   1  50
ATOM     50  C   UNL A   1      34.705  25.180  25.026  1.00  0.00    -0.052 C 
ATOM     51  H   UNL A   1      35.735  25.400  24.833  1.00  0.00     0.027 H 
ATOM     52  H   UNL A   1      34.189  24.767  24.184  1.00  0.00     0.027 H 
BRANCH  50  53
ATOM     53  C   UNL A   1      34.648  24.109  26.122  1.00  0.00    -0.052 C 
ATOM     54  H   UNL A   1      33.773  23.516  25.959  1.00  0.00     0.027 H 
ATOM     55  H   UNL A   1      34.640  24.636  27.053  1.00  0.00     0.027 H 
BRANCH  53  56
ATOM     56  C   UNL A   1      35.852  23.168  26.177  1.00  0.00    -0.036 C 
ATOM     57  H   UNL A   1      35.581  22.251  25.696  1.00  0.00     0.028 H 
ATOM     58  H   UNL A   1      36.092  23.046  27.213  1.00  0.00     0.028 H 
BRANCH  56  59
ATOM     59  C   UNL A   1      37.109  23.703  25.503  1.00  0.00     0.018 C 
ATOM     60  H   UNL A   1      37.330  24.669  25.908  1.00  0.00     0.049 H 
ATOM     61  H   UNL A   1      36.917  23.749  24.452  1.00  0.00     0.049 H 
BRANCH  59  62
ATOM     62  N   UNL A   1      38.265  22.840  25.700  1.00  0.00    -0.352 N 
ATOM     63  C   UNL A   1      39.483  23.135  26.267  1.00  0.00     0.251 C 
ATOM     64  H   UNL A   1      38.160  21.915  25.383  1.00  0.00     0.163 HD
ATOM     65  O   UNL A   1      40.403  22.323  26.219  1.00  0.00    -0.269 OA
BRANCH  63  66
ATOM     66  C   UNL A   1      39.696  24.453  26.904  1.00  0.00     0.039 A 
ATOM     67  C   UNL A   1      40.336  25.482  26.213  1.00  0.00    -0.049 A 
ATOM     68  C   UNL A   1      39.272  24.651  28.221  1.00  0.00    -0.049 A 
ATOM     69  C   UNL A   1      40.711  26.637  26.891  1.00  0.00    -0.053 A 
ATOM     70  H   UNL A   1      40.533  25.386  25.204  1.00  0.00     0.063 H 
ATOM     71  C   UNL A   1      39.571  25.851  28.875  1.00  0.00    -0.053 A 
ATOM     72  H   UNL A   1      38.739  23.914  28.710  1.00  0.00     0.063 H 
ATOM     73  C   UNL A   1      40.342  26.832  28.233  1.00  0.00    -0.014 A 
ATOM     74  H   UNL A   1      41.265  27.357  26.403  1.00  0.00     0.063 H 
ATOM     75  H   UNL A   1      39.225  26.015  29.833  1.00  0.00     0.063 H 
BRANCH  73  76
ATOM     76  C   UNL A   1      40.794  28.061  28.937  1.00  0.00     0.031 A 
ATOM     77  C   UNL A   1      39.822  29.164  29.262  1.00  0.00     0.074 A 
ATOM     78  C   UNL A   1      42.072  28.147  29.356  1.00  0.00     0.049 A 
ATOM     79  N   UNL A   1      40.028  30.276  29.923  1.00  0.00    -0.248 NA
ATOM     80  C   UNL A   1      38.440  29.002  28.785  1.00  0.00    -0.034 C 
ATOM     81  C   UNL A   1      43.106  27.141  29.108  1.00  0.00    -0.036 A 
ATOM     82  N   UNL A   1      42.712  29.102  30.105  1.00  0.00    -0.354 N 
ATOM     83  C   UNL A   1      38.812  30.948  29.928  1.00  0.00     0.074 A 
ATOM     84  C   UNL A   1      37.879  30.138  29.177  1.00  0.00    -0.034 C 
ATOM     85  H   UNL A   1      38.016  28.211  28.277  1.00  0.00     0.065 H 
ATOM     86  C   UNL A   1      44.229  27.499  29.747  1.00  0.00    -0.036 A 
ATOM     87  H   UNL A   1      42.989  26.291  28.534  1.00  0.00     0.065 H 
ATOM     88  C   UNL A   1      44.017  28.787  30.397  1.00  0.00     0.049 A 
ATOM     89  H   UNL A   1      42.277  29.933  30.404  1.00  0.00     0.167 HD
ATOM     90  C   UNL A   1      38.499  32.123  30.524  1.00  0.00     0.037 A 
ATOM     91  H   UNL A   1      36.904  30.409  28.973  1.00  0.00     0.065 H 
ATOM     92  H   UNL A   1      45.103  26.951  29.773  1.00  0.00     0.065 H 
ATOM     93  C   UNL A   1      44.942  29.463  31.104  1.00  0.00     0.037 A 
ATOM     94  C   UNL A   1      39.420  32.914  31.298  1.00  0.00     0.049 A 
ATOM     95  C   UNL A   1      44.577  30.786  31.716  1.00  0.00     0.074 A 
ATOM     96  C   UNL A   1      39.183  34.105  31.963  1.00  0.00    -0.036 A 
ATOM     97  N   UNL A   1      40.751  32.594  31.511  1.00  0.00    -0.354 N 
ATOM     98  N   UNL A   1      43.419  31.397  31.728  1.00  0.00    -0.248 NA
ATOM     99  C   UNL A   1      45.651  31.519  32.401  1.00  0.00    -0.034 C 
ATOM    100  C   UNL A   1      40.382  34.527  32.544  1.00  0.00    -0.036 A 
ATOM    101  H   UNL A   1      38.278  34.597  32.020  1.00  0.00     0.065 H 
ATOM    102  C   UNL A   1      41.355  33.576  32.279  1.00  0.00     0.049 A 
ATOM    103  H   UNL A   1      41.201  31.787  31.170  1.00  0.00     0.167 HD
ATOM    104  C   UNL A   1      43.620  32.581  32.426  1.00  0.00     0.074 A 
ATOM    105  C   UNL A   1      45.006  32.589  32.844  1.00  0.00    -0.034 C 
ATOM    106  H   UNL A   1      46.646  31.266  32.509  1.00  0.00     0.065 H 
ATOM    107  H   UNL A   1      40.519  35.398  33.079  1.00  0.00     0.065 H 
ATOM    108  C   UNL A   1      42.736  33.572  32.688  1.00  0.00     0.037 A 
ATOM    109  H   UNL A   1      45.438  33.334  33.414  1.00  0.00     0.065 H 
BRANCH  90 110
ATOM    110  C   UNL A   1      37.096  32.637  30.377  1.00  0.00     0.064 A 
ATOM    111  C   UNL A   1      36.124  32.406  31.361  1.00  0.00     0.173 A 
ATOM    112  C   UNL A   1      36.744  33.444  29.284  1.00  0.00     0.173 A 
ATOM    113  F   UNL A   1      36.407  31.633  32.421  1.00  0.00    -0.203 F 
ATOM    114  C   UNL A   1      34.849  32.954  31.251  1.00  0.00     0.198 A 
ATOM    115  C   UNL A   1      35.476  34.012  29.190  1.00  0.00     0.198 A 
ATOM    116  F   UNL A   1      37.640  33.703  28.319  1.00  0.00    -0.203 F 
ATOM    117  F   UNL A   1      33.928  32.699  32.191  1.00  0.00    -0.200 F 
ATOM    118  C   UNL A   1      34.530  33.765  30.172  1.00  0.00     0.200 A 
ATOM    119  F   UNL A   1      35.175  34.808  28.154  1.00  0.00    -0.200 F 
ATOM    120  F   UNL A   1      33.308  34.310  30.079  1.00  0.00    -0.200 F 
ENDBRANCH  90 110
BRANCH  93 121
ATOM    121  C   UNL A   1      46.302  28.889  31.273  1.00  0.00     0.064 A 
ATOM    122  C   UNL A   1      47.306  29.124  30.324  1.00  0.00     0.173 A 
ATOM    123  C   UNL A   1      46.633  28.113  32.394  1.00  0.00     0.173 A 
ATOM    124  F   UNL A   1      47.032  29.841  29.224  1.00  0.00    -0.203 F 
ATOM    125  C   UNL A   1      48.586  28.599  30.487  1.00  0.00     0.198 A 
ATOM    126  C   UNL A   1      47.921  27.615  32.571  1.00  0.00     0.198 A 
ATOM    127  F   UNL A   1      45.708  27.861  33.333  1.00  0.00    -0.203 F 
ATOM    128  F   UNL A   1      49.519  28.811  29.548  1.00  0.00    -0.200 F 
ATOM    129  C   UNL A   1      48.895  27.853  31.614  1.00  0.00     0.200 A 
ATOM    130  F   UNL A   1      48.219  26.909  33.670  1.00  0.00    -0.200 F 
ATOM    131  F   UNL A   1      50.131  27.361  31.777  1.00  0.00    -0.200 F 
ENDBRANCH  93 121
BRANCH 108 132
ATOM    132  C   UNL A   1      43.231  34.757  33.463  1.00  0.00     0.064 A 
ATOM    133  C   UNL A   1      43.636  35.933  32.815  1.00  0.00     0.173 A 
ATOM    134  C   UNL A   1      43.223  34.745  34.866  1.00  0.00     0.173 A 
ATOM    135  F   UNL A   1      43.674  35.986  31.476  1.00  0.00    -0.203 F 
ATOM    136  C   UNL A   1      44.024  37.052  33.545  1.00  0.00     0.198 A 
ATOM    137  C   UNL A   1      43.587  35.875  35.592  1.00  0.00     0.198 A 
ATOM    138  F   UNL A   1      42.836  33.646  35.532  1.00  0.00    -0.203 F 
ATOM    139  F   UNL A   1      44.434  38.156  32.906  1.00  0.00    -0.200 F 
ATOM    140  C   UNL A   1      43.989  37.026  34.932  1.00  0.00     0.200 A 
ATOM    141  F   UNL A   1      43.537  35.854  36.931  1.00  0.00    -0.200 F 
ATOM    142  F   UNL A   1      44.345  38.112  35.632  1.00  0.00    -0.200 F 
ENDBRANCH 108 132
ENDBRANCH  73  76
ENDBRANCH  63  66
ENDBRANCH  59  62
ENDBRANCH  56  59
ENDBRANCH  53  56
ENDBRANCH  50  53
ENDBRANCH   1  50
TORSDOF 19
ENDMDL
