MODEL 1
REMARK VINA RESULT:     -13.9      0.000      0.000
REMARK SMILES Cc1c(CC(=O)NCCCCCCNC(=O)c2ccc(-c3c4nc(c(-c5c(F)c(F)c(F)c(F)c5F)c5ccc([nH]5)c(-c5c(F)c(F)c(F)c(F)c5F)c5nc(c(-c6c(F)c(F)c(F)c(F)c6F)c6ccc3[nH]6)C=C5)C=C4)cc2)cc(-c2ccccc2)cc1-c1ccccc1
REMARK SMILES IDX 10 1 9 4 8 7 7 10 5 11 6 12 4 14 3 17 2 18 89 19 80 20 88 21
REMARK SMILES IDX 81 22 1 25 90 29 91 30 95 31 92 32 94 34 93 36 82 40 83 41
REMARK SMILES IDX 87 42 84 43 86 45 85 47 11 51 12 54 13 57 14 60 15 61 16 63
REMARK SMILES IDX 17 64 18 65 79 66 19 67 78 69 20 71 21 74 22 75 72 76 23 77
REMARK SMILES IDX 77 78 71 79 73 80 24 81 76 82 70 84 69 86 25 88 57 91 37 92
REMARK SMILES IDX 56 93 38 94 41 95 55 96 74 97 39 98 40 100 54 102 75 103
REMARK SMILES IDX 42 106 26 108 27 109 35 110 28 111 29 112 33 113 36 114
REMARK SMILES IDX 30 115 31 116 34 117 32 118 58 119 59 120 67 121 60 122
REMARK SMILES IDX 61 123 65 124 68 125 62 126 63 127 66 128 64 129 43 130
REMARK SMILES IDX 44 131 52 132 45 133 46 134 50 135 53 136 47 137 48 138
REMARK SMILES IDX 51 139 49 140
REMARK H PARENT 10 2 10 3 9 5 9 6 8 8 8 9 7 13 4 15 4 16 80 23 88 24 1 26 1 27
REMARK H PARENT 1 28 91 33 95 35 92 37 94 38 93 39 83 44 87 46 84 48 86 49
REMARK H PARENT 85 50 11 52 11 53 12 55 12 56 13 58 13 59 14 62 18 68 79 70
REMARK H PARENT 19 72 78 73 77 83 71 85 73 87 76 89 70 90 38 99 41 101 74 104
REMARK H PARENT 39 105 75 107
REMARK Flexibility Score: inf
ROOT
ATOM      1  C   UNL A   1      33.770  27.306  25.891  1.00  0.00    -0.052 C 
ATOM      2  H   UNL A   1      34.664  27.428  26.467  1.00  0.00     0.027 H 
ATOM      3  H   UNL A   1      32.925  26.961  26.449  1.00  0.00     0.027 H 
ENDROOT
BRANCH   1   4
ATOM      4  C   UNL A   1      34.036  26.215  24.845  1.00  0.00    -0.036 C 
ATOM      5  H   UNL A   1      34.998  26.397  24.412  1.00  0.00     0.028 H 
ATOM      6  H   UNL A   1      33.973  25.281  25.362  1.00  0.00     0.028 H 
BRANCH   4   7
ATOM      7  C   UNL A   1      33.012  26.145  23.711  1.00  0.00     0.017 C 
ATOM      8  H   UNL A   1      32.634  27.129  23.529  1.00  0.00     0.049 H 
ATOM      9  H   UNL A   1      33.509  25.746  22.851  1.00  0.00     0.049 H 
BRANCH   7  10
ATOM     10  N   UNL A   1      31.900  25.271  24.017  1.00  0.00    -0.356 N 
ATOM     11  C   UNL A   1      31.693  23.978  23.625  1.00  0.00     0.224 C 
ATOM     12  O   UNL A   1      30.679  23.403  24.029  1.00  0.00    -0.275 OA
ATOM     13  H   UNL A   1      31.197  25.660  24.585  1.00  0.00     0.163 HD
BRANCH  11  14
ATOM     14  C   UNL A   1      32.712  23.260  22.747  1.00  0.00     0.052 C 
ATOM     15  H   UNL A   1      32.187  22.772  21.952  1.00  0.00     0.042 H 
ATOM     16  H   UNL A   1      33.395  24.005  22.395  1.00  0.00     0.042 H 
BRANCH  14  17
ATOM     17  C   UNL A   1      33.540  22.220  23.481  1.00  0.00    -0.035 A 
ATOM     18  C   UNL A   1      33.177  20.850  23.579  1.00  0.00    -0.040 A 
ATOM     19  C   UNL A   1      33.997  19.969  24.335  1.00  0.00    -0.015 A 
ATOM     20  C   UNL A   1      34.736  22.664  24.081  1.00  0.00    -0.050 A 
ATOM     21  C   UNL A   1      35.172  20.471  24.933  1.00  0.00    -0.046 A 
ATOM     22  C   UNL A   1      35.567  21.808  24.808  1.00  0.00    -0.017 A 
ATOM     23  H   UNL A   1      35.006  23.656  23.980  1.00  0.00     0.063 H 
ATOM     24  H   UNL A   1      35.763  19.828  25.484  1.00  0.00     0.064 H 
BRANCH  18  25
ATOM     25  C   UNL A   1      31.964  20.322  22.843  1.00  0.00    -0.039 C 
ATOM     26  H   UNL A   1      32.281  19.707  22.027  1.00  0.00     0.028 H 
ATOM     27  H   UNL A   1      31.389  21.143  22.469  1.00  0.00     0.028 H 
ATOM     28  H   UNL A   1      31.364  19.744  23.514  1.00  0.00     0.028 H 
ENDBRANCH  18  25
BRANCH  19  29
ATOM     29  C   UNL A   1      33.666  18.546  24.556  1.00  0.00    -0.018 A 
ATOM     30  C   UNL A   1      34.212  17.554  23.722  1.00  0.00    -0.054 A 
ATOM     31  C   UNL A   1      32.807  18.142  25.590  1.00  0.00    -0.054 A 
ATOM     32  C   UNL A   1      33.922  16.203  23.925  1.00  0.00    -0.062 A 
ATOM     33  H   UNL A   1      34.836  17.828  22.947  1.00  0.00     0.063 H 
ATOM     34  C   UNL A   1      32.528  16.790  25.802  1.00  0.00    -0.062 A 
ATOM     35  H   UNL A   1      32.375  18.854  26.200  1.00  0.00     0.063 H 
ATOM     36  C   UNL A   1      33.085  15.822  24.970  1.00  0.00    -0.062 A 
ATOM     37  H   UNL A   1      34.327  15.488  23.300  1.00  0.00     0.062 H 
ATOM     38  H   UNL A   1      31.907  16.508  26.577  1.00  0.00     0.062 H 
ATOM     39  H   UNL A   1      32.879  14.823  25.129  1.00  0.00     0.062 H 
ENDBRANCH  19  29
BRANCH  22  40
ATOM     40  C   UNL A   1      36.818  22.300  25.402  1.00  0.00    -0.018 A 
ATOM     41  C   UNL A   1      37.940  21.464  25.529  1.00  0.00    -0.054 A 
ATOM     42  C   UNL A   1      36.915  23.614  25.887  1.00  0.00    -0.054 A 
ATOM     43  C   UNL A   1      39.116  21.925  26.126  1.00  0.00    -0.062 A 
ATOM     44  H   UNL A   1      37.895  20.495  25.176  1.00  0.00     0.063 H 
ATOM     45  C   UNL A   1      38.089  24.076  26.486  1.00  0.00    -0.062 A 
ATOM     46  H   UNL A   1      36.106  24.250  25.799  1.00  0.00     0.063 H 
ATOM     47  C   UNL A   1      39.189  23.231  26.607  1.00  0.00    -0.062 A 
ATOM     48  H   UNL A   1      39.932  21.298  26.210  1.00  0.00     0.062 H 
ATOM     49  H   UNL A   1      38.141  25.044  26.840  1.00  0.00     0.062 H 
ATOM     50  H   UNL A   1      40.056  23.570  27.052  1.00  0.00     0.062 H 
ENDBRANCH  22  40
ENDBRANCH  14  17
ENDBRANCH  11  14
ENDBRANCH   7  10
ENDBRANCH   4   7
ENDBRANCH   1   4
BRANCH   1  51
ATOM     51  C   UNL A   1      33.366  28.690  25.354  1.00  0.00    -0.052 C 
ATOM     52  H   UNL A   1      32.346  28.629  25.035  1.00  0.00     0.027 H 
ATOM     53  H   UNL A   1      34.063  28.905  24.572  1.00  0.00     0.027 H 
BRANCH  51  54
ATOM     54  C   UNL A   1      33.479  29.862  26.334  1.00  0.00    -0.036 C 
ATOM     55  H   UNL A   1      32.491  30.214  26.551  1.00  0.00     0.028 H 
ATOM     56  H   UNL A   1      34.088  30.603  25.859  1.00  0.00     0.028 H 
BRANCH  54  57
ATOM     57  C   UNL A   1      34.160  29.511  27.649  1.00  0.00     0.018 C 
ATOM     58  H   UNL A   1      34.979  28.855  27.441  1.00  0.00     0.049 H 
ATOM     59  H   UNL A   1      33.419  29.057  28.273  1.00  0.00     0.049 H 
BRANCH  57  60
ATOM     60  N   UNL A   1      34.672  30.668  28.375  1.00  0.00    -0.352 N 
ATOM     61  C   UNL A   1      35.908  30.853  28.969  1.00  0.00     0.251 C 
ATOM     62  H   UNL A   1      34.050  31.426  28.453  1.00  0.00     0.163 HD
ATOM     63  O   UNL A   1      36.156  31.880  29.579  1.00  0.00    -0.269 OA
BRANCH  61  64
ATOM     64  C   UNL A   1      36.972  29.846  28.744  1.00  0.00     0.039 A 
ATOM     65  C   UNL A   1      37.253  28.951  29.783  1.00  0.00    -0.049 A 
ATOM     66  C   UNL A   1      37.801  29.912  27.627  1.00  0.00    -0.049 A 
ATOM     67  C   UNL A   1      38.487  28.307  29.812  1.00  0.00    -0.053 A 
ATOM     68  H   UNL A   1      36.553  28.771  30.520  1.00  0.00     0.063 H 
ATOM     69  C   UNL A   1      39.059  29.345  27.694  1.00  0.00    -0.053 A 
ATOM     70  H   UNL A   1      37.481  30.377  26.763  1.00  0.00     0.063 H 
ATOM     71  C   UNL A   1      39.424  28.601  28.819  1.00  0.00    -0.014 A 
ATOM     72  H   UNL A   1      38.706  27.624  30.554  1.00  0.00     0.063 H 
ATOM     73  H   UNL A   1      39.726  29.470  26.917  1.00  0.00     0.063 H 
BRANCH  71  74
ATOM     74  C   UNL A   1      40.837  28.274  28.954  1.00  0.00     0.031 A 
ATOM     75  C   UNL A   1      41.389  27.048  28.348  1.00  0.00     0.074 A 
ATOM     76  C   UNL A   1      41.648  29.134  29.609  1.00  0.00     0.049 A 
ATOM     77  N   UNL A   1      42.411  26.408  28.808  1.00  0.00    -0.248 NA
ATOM     78  C   UNL A   1      40.792  26.422  27.176  1.00  0.00    -0.034 C 
ATOM     79  C   UNL A   1      43.107  29.105  29.670  1.00  0.00    -0.036 A 
ATOM     80  N   UNL A   1      41.275  30.118  30.540  1.00  0.00    -0.354 N 
ATOM     81  C   UNL A   1      42.761  25.455  27.878  1.00  0.00     0.074 A 
ATOM     82  C   UNL A   1      41.687  25.466  26.910  1.00  0.00    -0.034 C 
ATOM     83  H   UNL A   1      39.915  26.654  26.684  1.00  0.00     0.065 H 
ATOM     84  C   UNL A   1      43.505  29.782  30.760  1.00  0.00    -0.036 A 
ATOM     85  H   UNL A   1      43.729  28.642  28.989  1.00  0.00     0.065 H 
ATOM     86  C   UNL A   1      42.309  30.140  31.503  1.00  0.00     0.049 A 
ATOM     87  H   UNL A   1      40.465  30.676  30.524  1.00  0.00     0.167 HD
ATOM     88  C   UNL A   1      43.987  24.859  27.955  1.00  0.00     0.037 A 
ATOM     89  H   UNL A   1      41.620  24.815  26.112  1.00  0.00     0.065 H 
ATOM     90  H   UNL A   1      44.478  30.005  31.020  1.00  0.00     0.065 H 
ATOM     91  C   UNL A   1      42.073  29.818  32.808  1.00  0.00     0.037 A 
ATOM     92  C   UNL A   1      44.740  25.342  29.109  1.00  0.00     0.049 A 
ATOM     93  C   UNL A   1      42.900  28.660  33.308  1.00  0.00     0.074 A 
ATOM     94  C   UNL A   1      45.695  26.339  29.235  1.00  0.00    -0.036 A 
ATOM     95  N   UNL A   1      44.327  25.023  30.398  1.00  0.00    -0.354 N 
ATOM     96  N   UNL A   1      43.452  27.773  32.529  1.00  0.00    -0.248 NA
ATOM     97  C   UNL A   1      43.124  28.383  34.724  1.00  0.00    -0.034 C 
ATOM     98  C   UNL A   1      45.818  26.659  30.607  1.00  0.00    -0.036 A 
ATOM     99  H   UNL A   1      46.223  26.773  28.463  1.00  0.00     0.065 H 
ATOM    100  C   UNL A   1      44.955  25.843  31.318  1.00  0.00     0.049 A 
ATOM    101  H   UNL A   1      43.681  24.316  30.624  1.00  0.00     0.167 HD
ATOM    102  C   UNL A   1      44.062  26.816  33.296  1.00  0.00     0.074 A 
ATOM    103  C   UNL A   1      43.846  27.251  34.663  1.00  0.00    -0.034 C 
ATOM    104  H   UNL A   1      42.810  28.915  35.552  1.00  0.00     0.065 H 
ATOM    105  H   UNL A   1      46.443  27.375  31.009  1.00  0.00     0.065 H 
ATOM    106  C   UNL A   1      44.682  25.735  32.741  1.00  0.00     0.037 A 
ATOM    107  H   UNL A   1      44.205  26.750  35.491  1.00  0.00     0.065 H 
BRANCH  88 108
ATOM    108  C   UNL A   1      44.619  24.098  26.808  1.00  0.00     0.064 A 
ATOM    109  C   UNL A   1      44.311  22.738  26.579  1.00  0.00     0.173 A 
ATOM    110  C   UNL A   1      45.585  24.634  25.938  1.00  0.00     0.173 A 
ATOM    111  F   UNL A   1      43.319  22.123  27.234  1.00  0.00    -0.203 F 
ATOM    112  C   UNL A   1      45.017  21.951  25.665  1.00  0.00     0.198 A 
ATOM    113  C   UNL A   1      46.331  23.836  25.064  1.00  0.00     0.198 A 
ATOM    114  F   UNL A   1      45.801  25.955  25.874  1.00  0.00    -0.203 F 
ATOM    115  F   UNL A   1      44.690  20.660  25.508  1.00  0.00    -0.200 F 
ATOM    116  C   UNL A   1      46.059  22.488  24.941  1.00  0.00     0.200 A 
ATOM    117  F   UNL A   1      47.321  24.383  24.343  1.00  0.00    -0.200 F 
ATOM    118  F   UNL A   1      46.776  21.722  24.109  1.00  0.00    -0.200 F 
ENDBRANCH  88 108
BRANCH  91 119
ATOM    119  C   UNL A   1      40.686  30.111  33.254  1.00  0.00     0.064 A 
ATOM    120  C   UNL A   1      40.299  31.456  33.411  1.00  0.00     0.173 A 
ATOM    121  C   UNL A   1      39.672  29.150  33.182  1.00  0.00     0.173 A 
ATOM    122  F   UNL A   1      41.234  32.418  33.485  1.00  0.00    -0.203 F 
ATOM    123  C   UNL A   1      38.958  31.832  33.383  1.00  0.00     0.198 A 
ATOM    124  C   UNL A   1      38.328  29.529  33.170  1.00  0.00     0.198 A 
ATOM    125  F   UNL A   1      39.975  27.854  33.017  1.00  0.00    -0.203 F 
ATOM    126  F   UNL A   1      38.628  33.131  33.426  1.00  0.00    -0.200 F 
ATOM    127  C   UNL A   1      37.975  30.870  33.236  1.00  0.00     0.200 A 
ATOM    128  F   UNL A   1      37.376  28.600  33.002  1.00  0.00    -0.200 F 
ATOM    129  F   UNL A   1      36.690  31.234  33.121  1.00  0.00    -0.200 F 
ENDBRANCH  91 119
BRANCH 106 130
ATOM    130  C   UNL A   1      45.184  24.535  33.499  1.00  0.00     0.064 A 
ATOM    131  C   UNL A   1      44.415  23.383  33.725  1.00  0.00     0.173 A 
ATOM    132  C   UNL A   1      46.537  24.461  33.905  1.00  0.00     0.173 A 
ATOM    133  F   UNL A   1      43.154  23.291  33.279  1.00  0.00    -0.203 F 
ATOM    134  C   UNL A   1      44.939  22.263  34.374  1.00  0.00     0.198 A 
ATOM    135  C   UNL A   1      47.071  23.321  34.503  1.00  0.00     0.198 A 
ATOM    136  F   UNL A   1      47.381  25.485  33.713  1.00  0.00    -0.203 F 
ATOM    137  F   UNL A   1      44.153  21.202  34.605  1.00  0.00    -0.200 F 
ATOM    138  C   UNL A   1      46.268  22.227  34.753  1.00  0.00     0.200 A 
ATOM    139  F   UNL A   1      48.374  23.283  34.820  1.00  0.00    -0.200 F 
ATOM    140  F   UNL A   1      46.776  21.135  35.339  1.00  0.00    -0.200 F 
ENDBRANCH 106 130
ENDBRANCH  71  74
ENDBRANCH  61  64
ENDBRANCH  57  60
ENDBRANCH  54  57
ENDBRANCH  51  54
ENDBRANCH   1  51
TORSDOF 17
ENDMDL
MODEL 2
REMARK VINA RESULT:     -13.5      0.867      2.965
REMARK SMILES Cc1c(CC(=O)NCCCCCCNC(=O)c2ccc(-c3c4nc(c(-c5c(F)c(F)c(F)c(F)c5F)c5ccc([nH]5)c(-c5c(F)c(F)c(F)c(F)c5F)c5nc(c(-c6c(F)c(F)c(F)c(F)c6F)c6ccc3[nH]6)C=C5)C=C4)cc2)cc(-c2ccccc2)cc1-c1ccccc1
REMARK SMILES IDX 10 1 9 4 8 7 7 10 5 11 6 12 4 14 3 17 2 18 89 19 80 20 88 21
REMARK SMILES IDX 81 22 1 25 90 29 91 30 95 31 92 32 94 34 93 36 82 40 83 41
REMARK SMILES IDX 87 42 84 43 86 45 85 47 11 51 12 54 13 57 14 60 15 61 16 63
REMARK SMILES IDX 17 64 18 65 79 66 19 67 78 69 20 71 21 74 22 75 72 76 23 77
REMARK SMILES IDX 77 78 71 79 73 80 24 81 76 82 70 84 69 86 25 88 57 91 37 92
REMARK SMILES IDX 56 93 38 94 41 95 55 96 74 97 39 98 40 100 54 102 75 103
REMARK SMILES IDX 42 106 26 108 27 109 35 110 28 111 29 112 33 113 36 114
REMARK SMILES IDX 30 115 31 116 34 117 32 118 58 119 59 120 67 121 60 122
REMARK SMILES IDX 61 123 65 124 68 125 62 126 63 127 66 128 64 129 43 130
REMARK SMILES IDX 44 131 52 132 45 133 46 134 50 135 53 136 47 137 48 138
REMARK SMILES IDX 51 139 49 140
REMARK H PARENT 10 2 10 3 9 5 9 6 8 8 8 9 7 13 4 15 4 16 80 23 88 24 1 26 1 27
REMARK H PARENT 1 28 91 33 95 35 92 37 94 38 93 39 83 44 87 46 84 48 86 49
REMARK H PARENT 85 50 11 52 11 53 12 55 12 56 13 58 13 59 14 62 18 68 79 70
REMARK H PARENT 19 72 78 73 77 83 71 85 73 87 76 89 70 90 38 99 41 101 74 104
REMARK H PARENT 39 105 75 107
REMARK Flexibility Score: inf
ROOT
ATOM      1  C   UNL A   1      31.450  27.403  26.501  1.00  0.00    -0.052 C 
ATOM      2  H   UNL A   1      31.263  26.636  27.224  1.00  0.00     0.027 H 
ATOM      3  H   UNL A   1      30.878  28.296  26.641  1.00  0.00     0.027 H 
ENDROOT
BRANCH   1   4
ATOM      4  C   UNL A   1      31.027  26.862  25.129  1.00  0.00    -0.036 C 
ATOM      5  H   UNL A   1      30.664  27.683  24.546  1.00  0.00     0.028 H 
ATOM      6  H   UNL A   1      31.893  26.395  24.710  1.00  0.00     0.028 H 
BRANCH   4   7
ATOM      7  C   UNL A   1      29.939  25.789  25.165  1.00  0.00     0.017 C 
ATOM      8  H   UNL A   1      28.990  26.266  25.297  1.00  0.00     0.049 H 
ATOM      9  H   UNL A   1      29.985  25.250  24.241  1.00  0.00     0.049 H 
BRANCH   7  10
ATOM     10  N   UNL A   1      30.130  24.835  26.237  1.00  0.00    -0.356 N 
ATOM     11  C   UNL A   1      30.722  23.605  26.193  1.00  0.00     0.224 C 
ATOM     12  O   UNL A   1      30.806  22.963  27.243  1.00  0.00    -0.275 OA
ATOM     13  H   UNL A   1      29.788  25.112  27.117  1.00  0.00     0.163 HD
BRANCH  11  14
ATOM     14  C   UNL A   1      31.297  23.065  24.888  1.00  0.00     0.052 C 
ATOM     15  H   UNL A   1      30.547  22.467  24.412  1.00  0.00     0.042 H 
ATOM     16  H   UNL A   1      31.582  23.914  24.302  1.00  0.00     0.042 H 
BRANCH  14  17
ATOM     17  C   UNL A   1      32.544  22.216  25.063  1.00  0.00    -0.035 A 
ATOM     18  C   UNL A   1      33.823  22.750  25.374  1.00  0.00    -0.040 A 
ATOM     19  C   UNL A   1      34.936  21.872  25.465  1.00  0.00    -0.015 A 
ATOM     20  C   UNL A   1      32.393  20.823  24.913  1.00  0.00    -0.050 A 
ATOM     21  C   UNL A   1      34.733  20.487  25.284  1.00  0.00    -0.046 A 
ATOM     22  C   UNL A   1      33.471  19.941  25.022  1.00  0.00    -0.017 A 
ATOM     23  H   UNL A   1      31.454  20.441  24.715  1.00  0.00     0.063 H 
ATOM     24  H   UNL A   1      35.545  19.852  25.347  1.00  0.00     0.064 H 
BRANCH  18  25
ATOM     25  C   UNL A   1      33.990  24.228  25.660  1.00  0.00    -0.039 C 
ATOM     26  H   UNL A   1      33.535  24.796  24.876  1.00  0.00     0.028 H 
ATOM     27  H   UNL A   1      35.031  24.464  25.717  1.00  0.00     0.028 H 
ATOM     28  H   UNL A   1      33.519  24.465  26.591  1.00  0.00     0.028 H 
ENDBRANCH  18  25
BRANCH  19  29
ATOM     29  C   UNL A   1      36.317  22.337  25.711  1.00  0.00    -0.018 A 
ATOM     30  C   UNL A   1      37.402  21.460  25.538  1.00  0.00    -0.054 A 
ATOM     31  C   UNL A   1      36.588  23.652  26.122  1.00  0.00    -0.054 A 
ATOM     32  C   UNL A   1      38.714  21.885  25.753  1.00  0.00    -0.062 A 
ATOM     33  H   UNL A   1      37.225  20.485  25.250  1.00  0.00     0.063 H 
ATOM     34  C   UNL A   1      37.902  24.083  26.322  1.00  0.00    -0.062 A 
ATOM     35  H   UNL A   1      35.807  24.308  26.278  1.00  0.00     0.063 H 
ATOM     36  C   UNL A   1      38.963  23.200  26.137  1.00  0.00    -0.062 A 
ATOM     37  H   UNL A   1      39.499  21.227  25.626  1.00  0.00     0.062 H 
ATOM     38  H   UNL A   1      38.086  25.058  26.608  1.00  0.00     0.062 H 
ATOM     39  H   UNL A   1      39.933  23.520  26.285  1.00  0.00     0.062 H 
ENDBRANCH  19  29
BRANCH  22  40
ATOM     40  C   UNL A   1      33.274  18.491  24.882  1.00  0.00    -0.018 A 
ATOM     41  C   UNL A   1      32.535  17.763  25.829  1.00  0.00    -0.054 A 
ATOM     42  C   UNL A   1      33.848  17.788  23.810  1.00  0.00    -0.054 A 
ATOM     43  C   UNL A   1      32.380  16.380  25.711  1.00  0.00    -0.062 A 
ATOM     44  H   UNL A   1      32.099  18.257  26.623  1.00  0.00     0.063 H 
ATOM     45  C   UNL A   1      33.697  16.405  23.692  1.00  0.00    -0.062 A 
ATOM     46  H   UNL A   1      34.391  18.303  23.097  1.00  0.00     0.063 H 
ATOM     47  C   UNL A   1      32.963  15.701  24.643  1.00  0.00    -0.062 A 
ATOM     48  H   UNL A   1      31.832  15.860  26.415  1.00  0.00     0.062 H 
ATOM     49  H   UNL A   1      34.128  15.904  22.899  1.00  0.00     0.062 H 
ATOM     50  H   UNL A   1      32.852  14.678  24.559  1.00  0.00     0.062 H 
ENDBRANCH  22  40
ENDBRANCH  14  17
ENDBRANCH  11  14
ENDBRANCH   7  10
ENDBRANCH   4   7
ENDBRANCH   1   4
BRANCH   1  51
ATOM     51  C   UNL A   1      32.919  27.835  26.647  1.00  0.00    -0.052 C 
ATOM     52  H   UNL A   1      33.273  28.115  25.676  1.00  0.00     0.027 H 
ATOM     53  H   UNL A   1      33.421  26.994  27.076  1.00  0.00     0.027 H 
BRANCH  51  54
ATOM     54  C   UNL A   1      33.196  29.003  27.599  1.00  0.00    -0.036 C 
ATOM     55  H   UNL A   1      33.394  28.603  28.572  1.00  0.00     0.028 H 
ATOM     56  H   UNL A   1      32.328  29.629  27.577  1.00  0.00     0.028 H 
BRANCH  54  57
ATOM     57  C   UNL A   1      34.376  29.874  27.191  1.00  0.00     0.018 C 
ATOM     58  H   UNL A   1      34.107  30.416  26.309  1.00  0.00     0.049 H 
ATOM     59  H   UNL A   1      35.207  29.219  27.033  1.00  0.00     0.049 H 
BRANCH  57  60
ATOM     60  N   UNL A   1      34.782  30.833  28.212  1.00  0.00    -0.352 N 
ATOM     61  C   UNL A   1      35.901  30.825  29.025  1.00  0.00     0.251 C 
ATOM     62  H   UNL A   1      34.173  31.595  28.341  1.00  0.00     0.163 HD
ATOM     63  O   UNL A   1      36.065  31.695  29.865  1.00  0.00    -0.269 OA
BRANCH  61  64
ATOM     64  C   UNL A   1      36.965  29.823  28.776  1.00  0.00     0.039 A 
ATOM     65  C   UNL A   1      37.244  28.902  29.793  1.00  0.00    -0.049 A 
ATOM     66  C   UNL A   1      37.795  29.916  27.663  1.00  0.00    -0.049 A 
ATOM     67  C   UNL A   1      38.476  28.256  29.808  1.00  0.00    -0.053 A 
ATOM     68  H   UNL A   1      36.542  28.704  30.524  1.00  0.00     0.063 H 
ATOM     69  C   UNL A   1      39.052  29.346  27.717  1.00  0.00    -0.053 A 
ATOM     70  H   UNL A   1      37.477  30.403  26.811  1.00  0.00     0.063 H 
ATOM     71  C   UNL A   1      39.415  28.574  28.824  1.00  0.00    -0.014 A 
ATOM     72  H   UNL A   1      38.693  27.554  30.532  1.00  0.00     0.063 H 
ATOM     73  H   UNL A   1      39.721  29.490  26.945  1.00  0.00     0.063 H 
BRANCH  71  74
ATOM     74  C   UNL A   1      40.828  28.242  28.952  1.00  0.00     0.031 A 
ATOM     75  C   UNL A   1      41.372  27.012  28.347  1.00  0.00     0.074 A 
ATOM     76  C   UNL A   1      41.645  29.100  29.600  1.00  0.00     0.049 A 
ATOM     77  N   UNL A   1      42.394  26.369  28.804  1.00  0.00    -0.248 NA
ATOM     78  C   UNL A   1      40.766  26.385  27.180  1.00  0.00    -0.034 C 
ATOM     79  C   UNL A   1      43.104  29.067  29.654  1.00  0.00    -0.036 A 
ATOM     80  N   UNL A   1      41.281  30.089  30.530  1.00  0.00    -0.354 N 
ATOM     81  C   UNL A   1      42.736  25.412  27.875  1.00  0.00     0.074 A 
ATOM     82  C   UNL A   1      41.656  25.424  26.912  1.00  0.00    -0.034 C 
ATOM     83  H   UNL A   1      39.887  26.619  26.692  1.00  0.00     0.065 H 
ATOM     84  C   UNL A   1      43.510  29.745  30.739  1.00  0.00    -0.036 A 
ATOM     85  H   UNL A   1      43.721  28.599  28.971  1.00  0.00     0.065 H 
ATOM     86  C   UNL A   1      42.320  30.110  31.488  1.00  0.00     0.049 A 
ATOM     87  H   UNL A   1      40.472  30.650  30.516  1.00  0.00     0.167 HD
ATOM     88  C   UNL A   1      43.960  24.812  27.947  1.00  0.00     0.037 A 
ATOM     89  H   UNL A   1      41.583  24.772  26.116  1.00  0.00     0.065 H 
ATOM     90  H   UNL A   1      44.485  29.965  30.994  1.00  0.00     0.065 H 
ATOM     91  C   UNL A   1      42.089  29.793  32.795  1.00  0.00     0.037 A 
ATOM     92  C   UNL A   1      44.720  25.296  29.095  1.00  0.00     0.049 A 
ATOM     93  C   UNL A   1      42.915  28.632  33.294  1.00  0.00     0.074 A 
ATOM     94  C   UNL A   1      45.679  26.289  29.214  1.00  0.00    -0.036 A 
ATOM     95  N   UNL A   1      44.313  24.982  30.387  1.00  0.00    -0.354 N 
ATOM     96  N   UNL A   1      43.459  27.742  32.514  1.00  0.00    -0.248 NA
ATOM     97  C   UNL A   1      43.145  28.359  34.710  1.00  0.00    -0.034 C 
ATOM     98  C   UNL A   1      45.811  26.613  30.584  1.00  0.00    -0.036 A 
ATOM     99  H   UNL A   1      46.205  26.719  28.437  1.00  0.00     0.065 H 
ATOM    100  C   UNL A   1      44.949  25.802  31.302  1.00  0.00     0.049 A 
ATOM    101  H   UNL A   1      43.665  24.278  30.618  1.00  0.00     0.167 HD
ATOM    102  C   UNL A   1      44.070  26.784  33.281  1.00  0.00     0.074 A 
ATOM    103  C   UNL A   1      43.862  27.224  34.648  1.00  0.00    -0.034 C 
ATOM    104  H   UNL A   1      42.838  28.894  35.538  1.00  0.00     0.065 H 
ATOM    105  H   UNL A   1      46.441  27.327  30.981  1.00  0.00     0.065 H 
ATOM    106  C   UNL A   1      44.682  25.699  32.726  1.00  0.00     0.037 A 
ATOM    107  H   UNL A   1      44.224  26.724  35.476  1.00  0.00     0.065 H 
BRANCH  88 108
ATOM    108  C   UNL A   1      44.583  24.045  26.799  1.00  0.00     0.064 A 
ATOM    109  C   UNL A   1      44.311  22.671  26.608  1.00  0.00     0.173 A 
ATOM    110  C   UNL A   1      45.507  24.591  25.890  1.00  0.00     0.173 A 
ATOM    111  F   UNL A   1      43.357  22.041  27.304  1.00  0.00    -0.203 F 
ATOM    112  C   UNL A   1      45.016  21.886  25.692  1.00  0.00     0.198 A 
ATOM    113  C   UNL A   1      46.253  23.797  25.012  1.00  0.00     0.198 A 
ATOM    114  F   UNL A   1      45.680  25.916  25.791  1.00  0.00    -0.203 F 
ATOM    115  F   UNL A   1      44.725  20.583  25.571  1.00  0.00    -0.200 F 
ATOM    116  C   UNL A   1      46.020  22.439  24.926  1.00  0.00     0.200 A 
ATOM    117  F   UNL A   1      47.204  24.358  24.251  1.00  0.00    -0.200 F 
ATOM    118  F   UNL A   1      46.737  21.676  24.091  1.00  0.00    -0.200 F 
ENDBRANCH  88 108
BRANCH  91 119
ATOM    119  C   UNL A   1      40.706  30.092  33.247  1.00  0.00     0.064 A 
ATOM    120  C   UNL A   1      40.328  31.439  33.411  1.00  0.00     0.173 A 
ATOM    121  C   UNL A   1      39.686  29.137  33.176  1.00  0.00     0.173 A 
ATOM    122  F   UNL A   1      41.268  32.394  33.484  1.00  0.00    -0.203 F 
ATOM    123  C   UNL A   1      38.989  31.823  33.389  1.00  0.00     0.198 A 
ATOM    124  C   UNL A   1      38.345  29.525  33.170  1.00  0.00     0.198 A 
ATOM    125  F   UNL A   1      39.980  27.840  33.005  1.00  0.00    -0.203 F 
ATOM    126  F   UNL A   1      38.666  33.123  33.438  1.00  0.00    -0.200 F 
ATOM    127  C   UNL A   1      37.999  30.867  33.243  1.00  0.00     0.200 A 
ATOM    128  F   UNL A   1      37.386  28.602  33.002  1.00  0.00    -0.200 F 
ATOM    129  F   UNL A   1      36.716  31.239  33.134  1.00  0.00    -0.200 F 
ENDBRANCH  91 119
BRANCH 106 130
ATOM    130  C   UNL A   1      45.184  24.500  33.485  1.00  0.00     0.064 A 
ATOM    131  C   UNL A   1      44.457  23.307  33.618  1.00  0.00     0.173 A 
ATOM    132  C   UNL A   1      46.505  24.475  33.991  1.00  0.00     0.173 A 
ATOM    133  F   UNL A   1      43.239  23.171  33.075  1.00  0.00    -0.203 F 
ATOM    134  C   UNL A   1      44.985  22.191  34.272  1.00  0.00     0.198 A 
ATOM    135  C   UNL A   1      47.047  23.342  34.595  1.00  0.00     0.198 A 
ATOM    136  F   UNL A   1      47.310  25.543  33.895  1.00  0.00    -0.203 F 
ATOM    137  F   UNL A   1      44.236  21.088  34.411  1.00  0.00    -0.200 F 
ATOM    138  C   UNL A   1      46.282  22.205  34.751  1.00  0.00     0.200 A 
ATOM    139  F   UNL A   1      48.323  23.354  35.009  1.00  0.00    -0.200 F 
ATOM    140  F   UNL A   1      46.798  21.119  35.341  1.00  0.00    -0.200 F 
ENDBRANCH 106 130
ENDBRANCH  71  74
ENDBRANCH  61  64
ENDBRANCH  57  60
ENDBRANCH  54  57
ENDBRANCH  51  54
ENDBRANCH   1  51
TORSDOF 17
ENDMDL
MODEL 3
REMARK VINA RESULT:     -13.5      4.104     10.592
REMARK SMILES Cc1c(CC(=O)NCCCCCCNC(=O)c2ccc(-c3c4nc(c(-c5c(F)c(F)c(F)c(F)c5F)c5ccc([nH]5)c(-c5c(F)c(F)c(F)c(F)c5F)c5nc(c(-c6c(F)c(F)c(F)c(F)c6F)c6ccc3[nH]6)C=C5)C=C4)cc2)cc(-c2ccccc2)cc1-c1ccccc1
REMARK SMILES IDX 10 1 9 4 8 7 7 10 5 11 6 12 4 14 3 17 2 18 89 19 80 20 88 21
REMARK SMILES IDX 81 22 1 25 90 29 91 30 95 31 92 32 94 34 93 36 82 40 83 41
REMARK SMILES IDX 87 42 84 43 86 45 85 47 11 51 12 54 13 57 14 60 15 61 16 63
REMARK SMILES IDX 17 64 18 65 79 66 19 67 78 69 20 71 21 74 22 75 72 76 23 77
REMARK SMILES IDX 77 78 71 79 73 80 24 81 76 82 70 84 69 86 25 88 57 91 37 92
REMARK SMILES IDX 56 93 38 94 41 95 55 96 74 97 39 98 40 100 54 102 75 103
REMARK SMILES IDX 42 106 26 108 27 109 35 110 28 111 29 112 33 113 36 114
REMARK SMILES IDX 30 115 31 116 34 117 32 118 58 119 59 120 67 121 60 122
REMARK SMILES IDX 61 123 65 124 68 125 62 126 63 127 66 128 64 129 43 130
REMARK SMILES IDX 44 131 52 132 45 133 46 134 50 135 53 136 47 137 48 138
REMARK SMILES IDX 51 139 49 140
REMARK H PARENT 10 2 10 3 9 5 9 6 8 8 8 9 7 13 4 15 4 16 80 23 88 24 1 26 1 27
REMARK H PARENT 1 28 91 33 95 35 92 37 94 38 93 39 83 44 87 46 84 48 86 49
REMARK H PARENT 85 50 11 52 11 53 12 55 12 56 13 58 13 59 14 62 18 68 79 70
REMARK H PARENT 19 72 78 73 77 83 71 85 73 87 76 89 70 90 38 99 41 101 74 104
REMARK H PARENT 39 105 75 107
REMARK Flexibility Score: inf
ROOT
ATOM      1  C   UNL A   1      34.827  23.231  25.774  1.00  0.00    -0.052 C 
ATOM      2  H   UNL A   1      34.497  22.726  24.891  1.00  0.00     0.027 H 
ATOM      3  H   UNL A   1      35.288  22.599  26.504  1.00  0.00     0.027 H 
ENDROOT
BRANCH   1   4
ATOM      4  C   UNL A   1      33.589  23.814  26.469  1.00  0.00    -0.036 C 
ATOM      5  H   UNL A   1      33.755  23.782  27.525  1.00  0.00     0.028 H 
ATOM      6  H   UNL A   1      33.470  24.806  26.087  1.00  0.00     0.028 H 
BRANCH   4   7
ATOM      7  C   UNL A   1      32.279  23.083  26.172  1.00  0.00     0.017 C 
ATOM      8  H   UNL A   1      32.194  22.947  25.114  1.00  0.00     0.049 H 
ATOM      9  H   UNL A   1      32.305  22.148  26.691  1.00  0.00     0.049 H 
BRANCH   7  10
ATOM     10  N   UNL A   1      31.117  23.809  26.639  1.00  0.00    -0.356 N 
ATOM     11  C   UNL A   1      30.500  24.891  26.078  1.00  0.00     0.224 C 
ATOM     12  O   UNL A   1      29.494  25.340  26.634  1.00  0.00    -0.275 OA
ATOM     13  H   UNL A   1      30.718  23.478  27.476  1.00  0.00     0.163 HD
BRANCH  11  14
ATOM     14  C   UNL A   1      31.020  25.494  24.777  1.00  0.00     0.052 C 
ATOM     15  H   UNL A   1      32.015  25.136  24.616  1.00  0.00     0.042 H 
ATOM     16  H   UNL A   1      30.342  25.194  24.006  1.00  0.00     0.042 H 
BRANCH  14  17
ATOM     17  C   UNL A   1      31.051  27.012  24.766  1.00  0.00    -0.035 A 
ATOM     18  C   UNL A   1      30.143  27.813  24.023  1.00  0.00    -0.040 A 
ATOM     19  C   UNL A   1      30.292  29.226  24.041  1.00  0.00    -0.015 A 
ATOM     20  C   UNL A   1      32.039  27.635  25.554  1.00  0.00    -0.050 A 
ATOM     21  C   UNL A   1      31.313  29.798  24.830  1.00  0.00    -0.046 A 
ATOM     22  C   UNL A   1      32.186  29.024  25.603  1.00  0.00    -0.017 A 
ATOM     23  H   UNL A   1      32.676  27.046  26.114  1.00  0.00     0.063 H 
ATOM     24  H   UNL A   1      31.420  30.825  24.837  1.00  0.00     0.064 H 
BRANCH  18  25
ATOM     25  C   UNL A   1      28.997  27.175  23.266  1.00  0.00    -0.039 C 
ATOM     26  H   UNL A   1      28.513  26.455  23.892  1.00  0.00     0.028 H 
ATOM     27  H   UNL A   1      29.374  26.691  22.390  1.00  0.00     0.028 H 
ATOM     28  H   UNL A   1      28.295  27.930  22.981  1.00  0.00     0.028 H 
ENDBRANCH  18  25
BRANCH  19  29
ATOM     29  C   UNL A   1      29.446  30.139  23.244  1.00  0.00    -0.018 A 
ATOM     30  C   UNL A   1      29.393  30.016  21.844  1.00  0.00    -0.054 A 
ATOM     31  C   UNL A   1      28.680  31.148  23.849  1.00  0.00    -0.054 A 
ATOM     32  C   UNL A   1      28.589  30.861  21.077  1.00  0.00    -0.062 A 
ATOM     33  H   UNL A   1      29.958  29.290  21.377  1.00  0.00     0.063 H 
ATOM     34  C   UNL A   1      27.864  31.985  23.083  1.00  0.00    -0.062 A 
ATOM     35  H   UNL A   1      28.721  31.274  24.873  1.00  0.00     0.063 H 
ATOM     36  C   UNL A   1      27.819  31.840  21.698  1.00  0.00    -0.062 A 
ATOM     37  H   UNL A   1      28.565  30.760  20.050  1.00  0.00     0.062 H 
ATOM     38  H   UNL A   1      27.294  32.711  23.544  1.00  0.00     0.062 H 
ATOM     39  H   UNL A   1      27.215  32.458  21.134  1.00  0.00     0.062 H 
ENDBRANCH  19  29
BRANCH  22  40
ATOM     40  C   UNL A   1      33.214  29.642  26.453  1.00  0.00    -0.018 A 
ATOM     41  C   UNL A   1      33.001  30.891  27.060  1.00  0.00    -0.054 A 
ATOM     42  C   UNL A   1      34.452  29.011  26.657  1.00  0.00    -0.054 A 
ATOM     43  C   UNL A   1      33.994  31.491  27.838  1.00  0.00    -0.062 A 
ATOM     44  H   UNL A   1      32.098  31.373  26.929  1.00  0.00     0.063 H 
ATOM     45  C   UNL A   1      35.447  29.610  27.433  1.00  0.00    -0.062 A 
ATOM     46  H   UNL A   1      34.630  28.089  26.227  1.00  0.00     0.063 H 
ATOM     47  C   UNL A   1      35.218  30.851  28.023  1.00  0.00    -0.062 A 
ATOM     48  H   UNL A   1      33.821  32.409  28.278  1.00  0.00     0.062 H 
ATOM     49  H   UNL A   1      36.352  29.133  27.570  1.00  0.00     0.062 H 
ATOM     50  H   UNL A   1      35.953  31.296  28.594  1.00  0.00     0.062 H 
ENDBRANCH  22  40
ENDBRANCH  14  17
ENDBRANCH  11  14
ENDBRANCH   7  10
ENDBRANCH   4   7
ENDBRANCH   1   4
BRANCH   1  51
ATOM     51  C   UNL A   1      35.918  24.234  25.360  1.00  0.00    -0.052 C 
ATOM     52  H   UNL A   1      35.997  24.967  26.135  1.00  0.00     0.027 H 
ATOM     53  H   UNL A   1      35.602  24.621  24.414  1.00  0.00     0.027 H 
BRANCH  51  54
ATOM     54  C   UNL A   1      37.317  23.658  25.117  1.00  0.00    -0.036 C 
ATOM     55  H   UNL A   1      37.915  24.415  24.650  1.00  0.00     0.028 H 
ATOM     56  H   UNL A   1      37.191  22.792  24.501  1.00  0.00     0.028 H 
BRANCH  54  57
ATOM     57  C   UNL A   1      38.030  23.199  26.380  1.00  0.00     0.018 C 
ATOM     58  H   UNL A   1      37.684  22.217  26.625  1.00  0.00     0.049 H 
ATOM     59  H   UNL A   1      37.806  23.916  27.143  1.00  0.00     0.049 H 
BRANCH  57  60
ATOM     60  N   UNL A   1      39.483  23.156  26.256  1.00  0.00    -0.352 N 
ATOM     61  C   UNL A   1      40.415  24.141  26.528  1.00  0.00     0.251 C 
ATOM     62  H   UNL A   1      39.853  22.303  25.932  1.00  0.00     0.163 HD
ATOM     63  O   UNL A   1      41.602  23.945  26.324  1.00  0.00    -0.269 OA
BRANCH  61  64
ATOM     64  C   UNL A   1      39.971  25.388  27.194  1.00  0.00     0.039 A 
ATOM     65  C   UNL A   1      40.227  26.601  26.544  1.00  0.00    -0.049 A 
ATOM     66  C   UNL A   1      39.501  25.377  28.505  1.00  0.00    -0.049 A 
ATOM     67  C   UNL A   1      40.246  27.780  27.284  1.00  0.00    -0.053 A 
ATOM     68  H   UNL A   1      40.401  26.621  25.526  1.00  0.00     0.063 H 
ATOM     69  C   UNL A   1      39.602  26.528  29.261  1.00  0.00    -0.053 A 
ATOM     70  H   UNL A   1      39.083  24.522  28.904  1.00  0.00     0.063 H 
ATOM     71  C   UNL A   1      40.042  27.712  28.664  1.00  0.00    -0.014 A 
ATOM     72  H   UNL A   1      40.407  28.688  26.822  1.00  0.00     0.063 H 
ATOM     73  H   UNL A   1      39.355  26.514  30.263  1.00  0.00     0.063 H 
BRANCH  71  74
ATOM     74  C   UNL A   1      40.394  28.803  29.563  1.00  0.00     0.031 A 
ATOM     75  C   UNL A   1      39.394  29.817  29.947  1.00  0.00     0.074 A 
ATOM     76  C   UNL A   1      41.643  28.852  30.075  1.00  0.00     0.049 A 
ATOM     77  N   UNL A   1      39.680  31.035  30.265  1.00  0.00    -0.248 NA
ATOM     78  C   UNL A   1      37.966  29.533  29.964  1.00  0.00    -0.034 C 
ATOM     79  C   UNL A   1      42.131  29.721  31.143  1.00  0.00    -0.036 A 
ATOM     80  N   UNL A   1      42.799  28.234  29.567  1.00  0.00    -0.354 N 
ATOM     81  C   UNL A   1      38.537  31.616  30.765  1.00  0.00     0.074 A 
ATOM     82  C   UNL A   1      37.485  30.659  30.500  1.00  0.00    -0.034 C 
ATOM     83  H   UNL A   1      37.461  28.691  29.648  1.00  0.00     0.065 H 
ATOM     84  C   UNL A   1      43.466  29.824  31.036  1.00  0.00    -0.036 A 
ATOM     85  H   UNL A   1      41.548  30.179  31.860  1.00  0.00     0.065 H 
ATOM     86  C   UNL A   1      43.854  29.142  29.814  1.00  0.00     0.049 A 
ATOM     87  H   UNL A   1      42.861  27.354  29.132  1.00  0.00     0.167 HD
ATOM     88  C   UNL A   1      38.628  32.782  31.471  1.00  0.00     0.037 A 
ATOM     89  H   UNL A   1      36.487  30.826  30.702  1.00  0.00     0.065 H 
ATOM     90  H   UNL A   1      44.098  30.301  31.698  1.00  0.00     0.065 H 
ATOM     91  C   UNL A   1      44.560  29.707  28.792  1.00  0.00     0.037 A 
ATOM     92  C   UNL A   1      40.009  33.253  31.538  1.00  0.00     0.049 A 
ATOM     93  C   UNL A   1      44.509  31.215  28.778  1.00  0.00     0.074 A 
ATOM     94  C   UNL A   1      40.991  33.095  32.503  1.00  0.00    -0.036 A 
ATOM     95  N   UNL A   1      40.649  33.711  30.392  1.00  0.00    -0.354 N 
ATOM     96  N   UNL A   1      43.580  31.914  29.367  1.00  0.00    -0.248 NA
ATOM     97  C   UNL A   1      45.469  32.046  28.057  1.00  0.00    -0.034 C 
ATOM     98  C   UNL A   1      42.239  33.409  31.916  1.00  0.00    -0.036 A 
ATOM     99  H   UNL A   1      40.839  32.799  33.479  1.00  0.00     0.065 H 
ATOM    100  C   UNL A   1      42.014  33.779  30.601  1.00  0.00     0.049 A 
ATOM    101  H   UNL A   1      40.196  33.951  29.551  1.00  0.00     0.167 HD
ATOM    102  C   UNL A   1      43.778  33.243  29.098  1.00  0.00     0.074 A 
ATOM    103  C   UNL A   1      44.983  33.277  28.291  1.00  0.00    -0.034 C 
ATOM    104  H   UNL A   1      46.300  31.763  27.513  1.00  0.00     0.065 H 
ATOM    105  H   UNL A   1      43.157  33.371  32.386  1.00  0.00     0.065 H 
ATOM    106  C   UNL A   1      42.923  34.205  29.551  1.00  0.00     0.037 A 
ATOM    107  H   UNL A   1      45.417  34.145  27.938  1.00  0.00     0.065 H 
BRANCH  88 108
ATOM    108  C   UNL A   1      37.525  33.303  32.368  1.00  0.00     0.064 A 
ATOM    109  C   UNL A   1      36.455  34.061  31.841  1.00  0.00     0.173 A 
ATOM    110  C   UNL A   1      37.500  33.146  33.766  1.00  0.00     0.173 A 
ATOM    111  F   UNL A   1      36.266  34.186  30.522  1.00  0.00    -0.203 F 
ATOM    112  C   UNL A   1      35.533  34.726  32.654  1.00  0.00     0.198 A 
ATOM    113  C   UNL A   1      36.613  33.857  34.583  1.00  0.00     0.198 A 
ATOM    114  F   UNL A   1      38.300  32.263  34.377  1.00  0.00    -0.203 F 
ATOM    115  F   UNL A   1      34.551  35.446  32.094  1.00  0.00    -0.200 F 
ATOM    116  C   UNL A   1      35.641  34.662  34.027  1.00  0.00     0.200 A 
ATOM    117  F   UNL A   1      36.712  33.757  35.916  1.00  0.00    -0.200 F 
ATOM    118  F   UNL A   1      34.795  35.347  34.808  1.00  0.00    -0.200 F 
ENDBRANCH  88 108
BRANCH  91 119
ATOM    119  C   UNL A   1      44.628  28.860  27.573  1.00  0.00     0.064 A 
ATOM    120  C   UNL A   1      45.440  27.710  27.596  1.00  0.00     0.173 A 
ATOM    121  C   UNL A   1      43.672  28.958  26.556  1.00  0.00     0.173 A 
ATOM    122  F   UNL A   1      46.372  27.567  28.552  1.00  0.00    -0.203 F 
ATOM    123  C   UNL A   1      45.227  26.655  26.712  1.00  0.00     0.198 A 
ATOM    124  C   UNL A   1      43.472  27.905  25.661  1.00  0.00     0.198 A 
ATOM    125  F   UNL A   1      42.858  30.021  26.488  1.00  0.00    -0.203 F 
ATOM    126  F   UNL A   1      45.945  25.529  26.830  1.00  0.00    -0.200 F 
ATOM    127  C   UNL A   1      44.226  26.743  25.761  1.00  0.00     0.200 A 
ATOM    128  F   UNL A   1      42.485  27.979  24.756  1.00  0.00    -0.200 F 
ATOM    129  F   UNL A   1      43.960  25.698  24.965  1.00  0.00    -0.200 F 
ENDBRANCH  91 119
BRANCH 106 130
ATOM    130  C   UNL A   1      42.937  35.650  29.130  1.00  0.00     0.064 A 
ATOM    131  C   UNL A   1      42.224  36.143  28.026  1.00  0.00     0.173 A 
ATOM    132  C   UNL A   1      43.575  36.623  29.934  1.00  0.00     0.173 A 
ATOM    133  F   UNL A   1      41.483  35.332  27.258  1.00  0.00    -0.203 F 
ATOM    134  C   UNL A   1      42.207  37.503  27.707  1.00  0.00     0.198 A 
ATOM    135  C   UNL A   1      43.511  37.985  29.644  1.00  0.00     0.198 A 
ATOM    136  F   UNL A   1      44.260  36.279  31.035  1.00  0.00    -0.203 F 
ATOM    137  F   UNL A   1      41.547  37.921  26.618  1.00  0.00    -0.200 F 
ATOM    138  C   UNL A   1      42.841  38.424  28.521  1.00  0.00     0.200 A 
ATOM    139  F   UNL A   1      44.088  38.869  30.470  1.00  0.00    -0.200 F 
ATOM    140  F   UNL A   1      42.788  39.731  28.234  1.00  0.00    -0.200 F 
ENDBRANCH 106 130
ENDBRANCH  71  74
ENDBRANCH  61  64
ENDBRANCH  57  60
ENDBRANCH  54  57
ENDBRANCH  51  54
ENDBRANCH   1  51
TORSDOF 17
ENDMDL
MODEL 4
REMARK VINA RESULT:     -13.3      1.817      2.650
REMARK SMILES Cc1c(CC(=O)NCCCCCCNC(=O)c2ccc(-c3c4nc(c(-c5c(F)c(F)c(F)c(F)c5F)c5ccc([nH]5)c(-c5c(F)c(F)c(F)c(F)c5F)c5nc(c(-c6c(F)c(F)c(F)c(F)c6F)c6ccc3[nH]6)C=C5)C=C4)cc2)cc(-c2ccccc2)cc1-c1ccccc1
REMARK SMILES IDX 10 1 9 4 8 7 7 10 5 11 6 12 4 14 3 17 2 18 89 19 80 20 88 21
REMARK SMILES IDX 81 22 1 25 90 29 91 30 95 31 92 32 94 34 93 36 82 40 83 41
REMARK SMILES IDX 87 42 84 43 86 45 85 47 11 51 12 54 13 57 14 60 15 61 16 63
REMARK SMILES IDX 17 64 18 65 79 66 19 67 78 69 20 71 21 74 22 75 72 76 23 77
REMARK SMILES IDX 77 78 71 79 73 80 24 81 76 82 70 84 69 86 25 88 57 91 37 92
REMARK SMILES IDX 56 93 38 94 41 95 55 96 74 97 39 98 40 100 54 102 75 103
REMARK SMILES IDX 42 106 26 108 27 109 35 110 28 111 29 112 33 113 36 114
REMARK SMILES IDX 30 115 31 116 34 117 32 118 58 119 59 120 67 121 60 122
REMARK SMILES IDX 61 123 65 124 68 125 62 126 63 127 66 128 64 129 43 130
REMARK SMILES IDX 44 131 52 132 45 133 46 134 50 135 53 136 47 137 48 138
REMARK SMILES IDX 51 139 49 140
REMARK H PARENT 10 2 10 3 9 5 9 6 8 8 8 9 7 13 4 15 4 16 80 23 88 24 1 26 1 27
REMARK H PARENT 1 28 91 33 95 35 92 37 94 38 93 39 83 44 87 46 84 48 86 49
REMARK H PARENT 85 50 11 52 11 53 12 55 12 56 13 58 13 59 14 62 18 68 79 70
REMARK H PARENT 19 72 78 73 77 83 71 85 73 87 76 89 70 90 38 99 41 101 74 104
REMARK H PARENT 39 105 75 107
REMARK Flexibility Score: inf
ROOT
ATOM      1  C   UNL A   1      33.434  27.392  26.330  1.00  0.00    -0.052 C 
ATOM      2  H   UNL A   1      33.412  27.066  27.349  1.00  0.00     0.027 H 
ATOM      3  H   UNL A   1      32.474  27.604  25.909  1.00  0.00     0.027 H 
ENDROOT
BRANCH   1   4
ATOM      4  C   UNL A   1      34.001  26.243  25.485  1.00  0.00    -0.036 C 
ATOM      5  H   UNL A   1      35.036  26.445  25.303  1.00  0.00     0.028 H 
ATOM      6  H   UNL A   1      33.836  25.348  26.047  1.00  0.00     0.028 H 
BRANCH   4   7
ATOM      7  C   UNL A   1      33.314  26.033  24.136  1.00  0.00     0.017 C 
ATOM      8  H   UNL A   1      33.060  26.989  23.727  1.00  0.00     0.049 H 
ATOM      9  H   UNL A   1      33.995  25.501  23.505  1.00  0.00     0.049 H 
BRANCH   7  10
ATOM     10  N   UNL A   1      32.108  25.240  24.241  1.00  0.00    -0.356 N 
ATOM     11  C   UNL A   1      31.827  24.027  23.678  1.00  0.00     0.224 C 
ATOM     12  O   UNL A   1      30.735  23.510  23.926  1.00  0.00    -0.275 OA
ATOM     13  H   UNL A   1      31.392  25.628  24.794  1.00  0.00     0.163 HD
BRANCH  11  14
ATOM     14  C   UNL A   1      32.857  23.320  22.803  1.00  0.00     0.052 C 
ATOM     15  H   UNL A   1      32.341  22.842  21.997  1.00  0.00     0.042 H 
ATOM     16  H   UNL A   1      33.543  24.070  22.468  1.00  0.00     0.042 H 
BRANCH  14  17
ATOM     17  C   UNL A   1      33.678  22.272  23.535  1.00  0.00    -0.035 A 
ATOM     18  C   UNL A   1      33.297  20.908  23.641  1.00  0.00    -0.040 A 
ATOM     19  C   UNL A   1      34.112  20.019  24.393  1.00  0.00    -0.015 A 
ATOM     20  C   UNL A   1      34.884  22.703  24.122  1.00  0.00    -0.050 A 
ATOM     21  C   UNL A   1      35.299  20.508  24.980  1.00  0.00    -0.046 A 
ATOM     22  C   UNL A   1      35.710  21.839  24.846  1.00  0.00    -0.017 A 
ATOM     23  H   UNL A   1      35.166  23.691  24.015  1.00  0.00     0.063 H 
ATOM     24  H   UNL A   1      35.886  19.860  25.529  1.00  0.00     0.064 H 
BRANCH  18  25
ATOM     25  C   UNL A   1      32.071  20.393  22.918  1.00  0.00    -0.039 C 
ATOM     26  H   UNL A   1      32.371  19.874  22.032  1.00  0.00     0.028 H 
ATOM     27  H   UNL A   1      31.441  21.216  22.653  1.00  0.00     0.028 H 
ATOM     28  H   UNL A   1      31.534  19.725  23.558  1.00  0.00     0.028 H 
ENDBRANCH  18  25
BRANCH  19  29
ATOM     29  C   UNL A   1      33.765  18.602  24.624  1.00  0.00    -0.018 A 
ATOM     30  C   UNL A   1      34.382  17.589  23.868  1.00  0.00    -0.054 A 
ATOM     31  C   UNL A   1      32.818  18.222  25.588  1.00  0.00    -0.054 A 
ATOM     32  C   UNL A   1      34.077  16.243  24.081  1.00  0.00    -0.062 A 
ATOM     33  H   UNL A   1      35.072  17.845  23.144  1.00  0.00     0.063 H 
ATOM     34  C   UNL A   1      32.523  16.875  25.812  1.00  0.00    -0.062 A 
ATOM     35  H   UNL A   1      32.333  18.949  26.138  1.00  0.00     0.063 H 
ATOM     36  C   UNL A   1      33.152  15.887  25.059  1.00  0.00    -0.062 A 
ATOM     37  H   UNL A   1      34.537  15.513  23.514  1.00  0.00     0.062 H 
ATOM     38  H   UNL A   1      31.836  16.612  26.536  1.00  0.00     0.062 H 
ATOM     39  H   UNL A   1      32.934  14.892  25.226  1.00  0.00     0.062 H 
ENDBRANCH  19  29
BRANCH  22  40
ATOM     40  C   UNL A   1      36.973  22.316  25.427  1.00  0.00    -0.018 A 
ATOM     41  C   UNL A   1      38.087  21.469  25.541  1.00  0.00    -0.054 A 
ATOM     42  C   UNL A   1      37.089  23.629  25.913  1.00  0.00    -0.054 A 
ATOM     43  C   UNL A   1      39.274  21.916  26.126  1.00  0.00    -0.062 A 
ATOM     44  H   UNL A   1      38.028  20.501  25.187  1.00  0.00     0.063 H 
ATOM     45  C   UNL A   1      38.274  24.078  26.500  1.00  0.00    -0.062 A 
ATOM     46  H   UNL A   1      36.285  24.273  25.834  1.00  0.00     0.063 H 
ATOM     47  C   UNL A   1      39.366  23.220  26.608  1.00  0.00    -0.062 A 
ATOM     48  H   UNL A   1      40.084  21.281  26.201  1.00  0.00     0.062 H 
ATOM     49  H   UNL A   1      38.341  25.045  26.854  1.00  0.00     0.062 H 
ATOM     50  H   UNL A   1      40.242  23.550  27.044  1.00  0.00     0.062 H 
ENDBRANCH  22  40
ENDBRANCH  14  17
ENDBRANCH  11  14
ENDBRANCH   7  10
ENDBRANCH   4   7
ENDBRANCH   1   4
BRANCH   1  51
ATOM     51  C   UNL A   1      34.201  28.725  26.281  1.00  0.00    -0.052 C 
ATOM     52  H   UNL A   1      33.575  29.442  25.792  1.00  0.00     0.027 H 
ATOM     53  H   UNL A   1      35.113  28.508  25.766  1.00  0.00     0.027 H 
BRANCH  51  54
ATOM     54  C   UNL A   1      34.626  29.317  27.629  1.00  0.00    -0.036 C 
ATOM     55  H   UNL A   1      35.361  28.671  28.063  1.00  0.00     0.028 H 
ATOM     56  H   UNL A   1      33.740  29.396  28.223  1.00  0.00     0.028 H 
BRANCH  54  57
ATOM     57  C   UNL A   1      35.217  30.717  27.536  1.00  0.00     0.018 C 
ATOM     58  H   UNL A   1      35.368  30.951  26.503  1.00  0.00     0.049 H 
ATOM     59  H   UNL A   1      36.132  30.706  28.092  1.00  0.00     0.049 H 
BRANCH  57  60
ATOM     60  N   UNL A   1      34.377  31.753  28.124  1.00  0.00    -0.352 N 
ATOM     61  C   UNL A   1      34.613  32.549  29.231  1.00  0.00     0.251 C 
ATOM     62  H   UNL A   1      33.518  31.909  27.668  1.00  0.00     0.163 HD
ATOM     63  O   UNL A   1      33.771  33.346  29.613  1.00  0.00    -0.269 OA
BRANCH  61  64
ATOM     64  C   UNL A   1      35.950  32.517  29.868  1.00  0.00     0.039 A 
ATOM     65  C   UNL A   1      36.960  33.304  29.302  1.00  0.00    -0.049 A 
ATOM     66  C   UNL A   1      36.253  31.591  30.862  1.00  0.00    -0.049 A 
ATOM     67  C   UNL A   1      38.292  32.991  29.558  1.00  0.00    -0.053 A 
ATOM     68  H   UNL A   1      36.719  34.109  28.701  1.00  0.00     0.063 H 
ATOM     69  C   UNL A   1      37.570  31.220  31.052  1.00  0.00    -0.053 A 
ATOM     70  H   UNL A   1      35.505  31.188  31.449  1.00  0.00     0.063 H 
ATOM     71  C   UNL A   1      38.582  31.876  30.345  1.00  0.00    -0.014 A 
ATOM     72  H   UNL A   1      39.052  33.573  29.173  1.00  0.00     0.063 H 
ATOM     73  H   UNL A   1      37.806  30.463  31.712  1.00  0.00     0.063 H 
BRANCH  71  74
ATOM     74  C   UNL A   1      39.901  31.258  30.375  1.00  0.00     0.031 A 
ATOM     75  C   UNL A   1      40.177  30.031  29.604  1.00  0.00     0.074 A 
ATOM     76  C   UNL A   1      40.885  31.848  31.089  1.00  0.00     0.049 A 
ATOM     77  N   UNL A   1      41.056  29.147  29.938  1.00  0.00    -0.248 NA
ATOM     78  C   UNL A   1      39.441  29.690  28.395  1.00  0.00    -0.034 C 
ATOM     79  C   UNL A   1      42.308  31.521  31.080  1.00  0.00    -0.036 A 
ATOM     80  N   UNL A   1      40.741  32.763  32.146  1.00  0.00    -0.354 N 
ATOM     81  C   UNL A   1      41.185  28.267  28.887  1.00  0.00     0.074 A 
ATOM     82  C   UNL A   1      40.115  28.614  27.977  1.00  0.00    -0.034 C 
ATOM     83  H   UNL A   1      38.620  30.153  27.975  1.00  0.00     0.065 H 
ATOM     84  C   UNL A   1      42.858  31.962  32.222  1.00  0.00    -0.036 A 
ATOM     85  H   UNL A   1      42.807  31.031  30.321  1.00  0.00     0.065 H 
ATOM     86  C   UNL A   1      41.777  32.457  33.057  1.00  0.00     0.049 A 
ATOM     87  H   UNL A   1      40.061  33.470  32.233  1.00  0.00     0.167 HD
ATOM     88  C   UNL A   1      42.264  27.432  28.836  1.00  0.00     0.037 A 
ATOM     89  H   UNL A   1      39.900  28.095  27.112  1.00  0.00     0.065 H 
ATOM     90  H   UNL A   1      43.862  31.951  32.462  1.00  0.00     0.065 H 
ATOM     91  C   UNL A   1      41.507  32.028  34.324  1.00  0.00     0.037 A 
ATOM     92  C   UNL A   1      43.124  27.607  30.003  1.00  0.00     0.049 A 
ATOM     93  C   UNL A   1      42.090  30.674  34.645  1.00  0.00     0.074 A 
ATOM     94  C   UNL A   1      44.264  28.368  30.202  1.00  0.00    -0.036 A 
ATOM     95  N   UNL A   1      42.682  27.218  31.263  1.00  0.00    -0.354 N 
ATOM     96  N   UNL A   1      42.433  29.800  33.742  1.00  0.00    -0.248 NA
ATOM     97  C   UNL A   1      42.282  30.183  36.007  1.00  0.00    -0.034 C 
ATOM     98  C   UNL A   1      44.480  28.482  31.595  1.00  0.00    -0.036 A 
ATOM     99  H   UNL A   1      44.854  28.780  29.463  1.00  0.00     0.065 H 
ATOM    100  C   UNL A   1      43.483  27.773  32.243  1.00  0.00     0.049 A 
ATOM    101  H   UNL A   1      41.909  26.632  31.433  1.00  0.00     0.167 HD
ATOM    102  C   UNL A   1      42.850  28.651  34.361  1.00  0.00     0.074 A 
ATOM    103  C   UNL A   1      42.756  28.946  35.778  1.00  0.00    -0.034 C 
ATOM    104  H   UNL A   1      42.102  30.659  36.905  1.00  0.00     0.065 H 
ATOM    105  H   UNL A   1      45.246  29.002  32.050  1.00  0.00     0.065 H 
ATOM    106  C   UNL A   1      43.223  27.546  33.655  1.00  0.00     0.037 A 
ATOM    107  H   UNL A   1      43.022  28.284  36.525  1.00  0.00     0.065 H 
BRANCH  88 108
ATOM    108  C   UNL A   1      42.703  26.710  27.579  1.00  0.00     0.064 A 
ATOM    109  C   UNL A   1      42.445  25.331  27.404  1.00  0.00     0.173 A 
ATOM    110  C   UNL A   1      43.438  27.305  26.538  1.00  0.00     0.173 A 
ATOM    111  F   UNL A   1      41.646  24.655  28.239  1.00  0.00    -0.203 F 
ATOM    112  C   UNL A   1      43.005  24.588  26.361  1.00  0.00     0.198 A 
ATOM    113  C   UNL A   1      44.045  26.553  25.526  1.00  0.00     0.198 A 
ATOM    114  F   UNL A   1      43.550  28.637  26.444  1.00  0.00    -0.203 F 
ATOM    115  F   UNL A   1      42.738  23.278  26.261  1.00  0.00    -0.200 F 
ATOM    116  C   UNL A   1      43.843  25.191  25.448  1.00  0.00     0.200 A 
ATOM    117  F   UNL A   1      44.833  27.162  24.627  1.00  0.00    -0.200 F 
ATOM    118  F   UNL A   1      44.429  24.469  24.483  1.00  0.00    -0.200 F 
ENDBRANCH  88 108
BRANCH  91 119
ATOM    119  C   UNL A   1      40.220  32.535  34.865  1.00  0.00     0.064 A 
ATOM    120  C   UNL A   1      40.177  33.842  35.388  1.00  0.00     0.173 A 
ATOM    121  C   UNL A   1      39.001  31.919  34.560  1.00  0.00     0.173 A 
ATOM    122  F   UNL A   1      41.319  34.478  35.696  1.00  0.00    -0.203 F 
ATOM    123  C   UNL A   1      38.977  34.541  35.493  1.00  0.00     0.198 A 
ATOM    124  C   UNL A   1      37.798  32.618  34.682  1.00  0.00     0.198 A 
ATOM    125  F   UNL A   1      38.975  30.682  34.045  1.00  0.00    -0.203 F 
ATOM    126  F   UNL A   1      38.982  35.821  35.892  1.00  0.00    -0.200 F 
ATOM    127  C   UNL A   1      37.791  33.937  35.116  1.00  0.00     0.200 A 
ATOM    128  F   UNL A   1      36.652  32.042  34.292  1.00  0.00    -0.200 F 
ATOM    129  F   UNL A   1      36.646  34.634  35.133  1.00  0.00    -0.200 F 
ENDBRANCH  91 119
BRANCH 106 130
ATOM    130  C   UNL A   1      43.485  26.185  34.242  1.00  0.00     0.064 A 
ATOM    131  C   UNL A   1      42.476  25.353  34.753  1.00  0.00     0.173 A 
ATOM    132  C   UNL A   1      44.776  25.612  34.173  1.00  0.00     0.173 A 
ATOM    133  F   UNL A   1      41.193  25.742  34.760  1.00  0.00    -0.203 F 
ATOM    134  C   UNL A   1      42.749  24.068  35.227  1.00  0.00     0.198 A 
ATOM    135  C   UNL A   1      45.035  24.309  34.596  1.00  0.00     0.198 A 
ATOM    136  F   UNL A   1      45.817  26.294  33.673  1.00  0.00    -0.203 F 
ATOM    137  F   UNL A   1      41.759  23.328  35.746  1.00  0.00    -0.200 F 
ATOM    138  C   UNL A   1      44.025  23.543  35.139  1.00  0.00     0.200 A 
ATOM    139  F   UNL A   1      46.267  23.797  34.459  1.00  0.00    -0.200 F 
ATOM    140  F   UNL A   1      44.274  22.296  35.558  1.00  0.00    -0.200 F 
ENDBRANCH 106 130
ENDBRANCH  71  74
ENDBRANCH  61  64
ENDBRANCH  57  60
ENDBRANCH  54  57
ENDBRANCH  51  54
ENDBRANCH   1  51
TORSDOF 17
ENDMDL
MODEL 5
REMARK VINA RESULT:     -13.3      1.953      3.033
REMARK SMILES Cc1c(CC(=O)NCCCCCCNC(=O)c2ccc(-c3c4nc(c(-c5c(F)c(F)c(F)c(F)c5F)c5ccc([nH]5)c(-c5c(F)c(F)c(F)c(F)c5F)c5nc(c(-c6c(F)c(F)c(F)c(F)c6F)c6ccc3[nH]6)C=C5)C=C4)cc2)cc(-c2ccccc2)cc1-c1ccccc1
REMARK SMILES IDX 10 1 9 4 8 7 7 10 5 11 6 12 4 14 3 17 2 18 89 19 80 20 88 21
REMARK SMILES IDX 81 22 1 25 90 29 91 30 95 31 92 32 94 34 93 36 82 40 83 41
REMARK SMILES IDX 87 42 84 43 86 45 85 47 11 51 12 54 13 57 14 60 15 61 16 63
REMARK SMILES IDX 17 64 18 65 79 66 19 67 78 69 20 71 21 74 22 75 72 76 23 77
REMARK SMILES IDX 77 78 71 79 73 80 24 81 76 82 70 84 69 86 25 88 57 91 37 92
REMARK SMILES IDX 56 93 38 94 41 95 55 96 74 97 39 98 40 100 54 102 75 103
REMARK SMILES IDX 42 106 26 108 27 109 35 110 28 111 29 112 33 113 36 114
REMARK SMILES IDX 30 115 31 116 34 117 32 118 58 119 59 120 67 121 60 122
REMARK SMILES IDX 61 123 65 124 68 125 62 126 63 127 66 128 64 129 43 130
REMARK SMILES IDX 44 131 52 132 45 133 46 134 50 135 53 136 47 137 48 138
REMARK SMILES IDX 51 139 49 140
REMARK H PARENT 10 2 10 3 9 5 9 6 8 8 8 9 7 13 4 15 4 16 80 23 88 24 1 26 1 27
REMARK H PARENT 1 28 91 33 95 35 92 37 94 38 93 39 83 44 87 46 84 48 86 49
REMARK H PARENT 85 50 11 52 11 53 12 55 12 56 13 58 13 59 14 62 18 68 79 70
REMARK H PARENT 19 72 78 73 77 83 71 85 73 87 76 89 70 90 38 99 41 101 74 104
REMARK H PARENT 39 105 75 107
REMARK Flexibility Score: inf
ROOT
ATOM      1  C   UNL A   1      33.387  27.404  26.375  1.00  0.00    -0.052 C 
ATOM      2  H   UNL A   1      33.407  27.065  27.390  1.00  0.00     0.027 H 
ATOM      3  H   UNL A   1      32.407  27.588  25.986  1.00  0.00     0.027 H 
ENDROOT
BRANCH   1   4
ATOM      4  C   UNL A   1      33.966  26.286  25.498  1.00  0.00    -0.036 C 
ATOM      5  H   UNL A   1      34.997  26.508  25.315  1.00  0.00     0.028 H 
ATOM      6  H   UNL A   1      33.817  25.374  26.038  1.00  0.00     0.028 H 
BRANCH   4   7
ATOM      7  C   UNL A   1      33.274  26.100  24.148  1.00  0.00     0.017 C 
ATOM      8  H   UNL A   1      33.025  27.063  23.754  1.00  0.00     0.049 H 
ATOM      9  H   UNL A   1      33.951  25.574  23.507  1.00  0.00     0.049 H 
BRANCH   7  10
ATOM     10  N   UNL A   1      32.064  25.312  24.244  1.00  0.00    -0.356 N 
ATOM     11  C   UNL A   1      31.780  24.104  23.673  1.00  0.00     0.224 C 
ATOM     12  O   UNL A   1      30.685  23.590  23.914  1.00  0.00    -0.275 OA
ATOM     13  H   UNL A   1      31.348  25.700  24.797  1.00  0.00     0.163 HD
BRANCH  11  14
ATOM     14  C   UNL A   1      32.810  23.397  22.799  1.00  0.00     0.052 C 
ATOM     15  H   UNL A   1      32.294  22.914  21.995  1.00  0.00     0.042 H 
ATOM     16  H   UNL A   1      33.494  24.147  22.459  1.00  0.00     0.042 H 
BRANCH  14  17
ATOM     17  C   UNL A   1      33.635  22.353  23.531  1.00  0.00    -0.035 A 
ATOM     18  C   UNL A   1      33.271  20.983  23.623  1.00  0.00    -0.040 A 
ATOM     19  C   UNL A   1      34.087  20.099  24.378  1.00  0.00    -0.015 A 
ATOM     20  C   UNL A   1      34.829  22.794  24.137  1.00  0.00    -0.050 A 
ATOM     21  C   UNL A   1      35.261  20.597  24.982  1.00  0.00    -0.046 A 
ATOM     22  C   UNL A   1      35.657  21.934  24.864  1.00  0.00    -0.017 A 
ATOM     23  H   UNL A   1      35.100  23.786  24.041  1.00  0.00     0.063 H 
ATOM     24  H   UNL A   1      35.850  19.952  25.533  1.00  0.00     0.064 H 
BRANCH  18  25
ATOM     25  C   UNL A   1      32.059  20.459  22.880  1.00  0.00    -0.039 C 
ATOM     26  H   UNL A   1      31.257  21.162  22.966  1.00  0.00     0.028 H 
ATOM     27  H   UNL A   1      31.761  19.523  23.301  1.00  0.00     0.028 H 
ATOM     28  H   UNL A   1      32.306  20.324  21.848  1.00  0.00     0.028 H 
ENDBRANCH  18  25
BRANCH  19  29
ATOM     29  C   UNL A   1      33.755  18.675  24.592  1.00  0.00    -0.018 A 
ATOM     30  C   UNL A   1      34.371  17.678  23.814  1.00  0.00    -0.054 A 
ATOM     31  C   UNL A   1      32.825  18.274  25.564  1.00  0.00    -0.054 A 
ATOM     32  C   UNL A   1      34.080  16.327  24.012  1.00  0.00    -0.062 A 
ATOM     33  H   UNL A   1      35.048  17.950  23.084  1.00  0.00     0.063 H 
ATOM     34  C   UNL A   1      32.544  16.922  25.773  1.00  0.00    -0.062 A 
ATOM     35  H   UNL A   1      32.342  18.988  26.132  1.00  0.00     0.063 H 
ATOM     36  C   UNL A   1      33.172  15.950  24.997  1.00  0.00    -0.062 A 
ATOM     37  H   UNL A   1      34.538  15.609  23.429  1.00  0.00     0.062 H 
ATOM     38  H   UNL A   1      31.870  16.642  26.503  1.00  0.00     0.062 H 
ATOM     39  H   UNL A   1      32.964  14.951  25.153  1.00  0.00     0.062 H 
ENDBRANCH  19  29
BRANCH  22  40
ATOM     40  C   UNL A   1      36.907  22.423  25.464  1.00  0.00    -0.018 A 
ATOM     41  C   UNL A   1      38.025  21.584  25.599  1.00  0.00    -0.054 A 
ATOM     42  C   UNL A   1      37.005  23.738  25.947  1.00  0.00    -0.054 A 
ATOM     43  C   UNL A   1      39.199  22.042  26.202  1.00  0.00    -0.062 A 
ATOM     44  H   UNL A   1      37.978  20.615  25.248  1.00  0.00     0.063 H 
ATOM     45  C   UNL A   1      38.177  24.198  26.552  1.00  0.00    -0.062 A 
ATOM     46  H   UNL A   1      36.198  24.376  25.853  1.00  0.00     0.063 H 
ATOM     47  C   UNL A   1      39.274  23.348  26.681  1.00  0.00    -0.062 A 
ATOM     48  H   UNL A   1      40.012  21.413  26.292  1.00  0.00     0.062 H 
ATOM     49  H   UNL A   1      38.231  25.166  26.904  1.00  0.00     0.062 H 
ATOM     50  H   UNL A   1      40.139  23.685  27.130  1.00  0.00     0.062 H 
ENDBRANCH  22  40
ENDBRANCH  14  17
ENDBRANCH  11  14
ENDBRANCH   7  10
ENDBRANCH   4   7
ENDBRANCH   1   4
BRANCH   1  51
ATOM     51  C   UNL A   1      34.106  28.763  26.321  1.00  0.00    -0.052 C 
ATOM     52  H   UNL A   1      33.457  29.455  25.826  1.00  0.00     0.027 H 
ATOM     53  H   UNL A   1      35.027  28.576  25.809  1.00  0.00     0.027 H 
BRANCH  51  54
ATOM     54  C   UNL A   1      34.506  29.378  27.666  1.00  0.00    -0.036 C 
ATOM     55  H   UNL A   1      35.209  28.723  28.139  1.00  0.00     0.028 H 
ATOM     56  H   UNL A   1      33.604  29.495  28.230  1.00  0.00     0.028 H 
BRANCH  54  57
ATOM     57  C   UNL A   1      35.138  30.758  27.557  1.00  0.00     0.018 C 
ATOM     58  H   UNL A   1      35.318  30.967  26.523  1.00  0.00     0.049 H 
ATOM     59  H   UNL A   1      36.039  30.735  28.134  1.00  0.00     0.049 H 
BRANCH  57  60
ATOM     60  N   UNL A   1      34.314  31.830  28.105  1.00  0.00    -0.352 N 
ATOM     61  C   UNL A   1      34.585  32.699  29.146  1.00  0.00     0.251 C 
ATOM     62  H   UNL A   1      33.439  31.953  27.670  1.00  0.00     0.163 HD
ATOM     63  O   UNL A   1      33.754  33.518  29.504  1.00  0.00    -0.269 OA
BRANCH  61  64
ATOM     64  C   UNL A   1      35.945  32.714  29.735  1.00  0.00     0.039 A 
ATOM     65  C   UNL A   1      36.940  33.431  29.060  1.00  0.00    -0.049 A 
ATOM     66  C   UNL A   1      36.276  31.885  30.803  1.00  0.00    -0.049 A 
ATOM     67  C   UNL A   1      38.278  33.129  29.298  1.00  0.00    -0.053 A 
ATOM     68  H   UNL A   1      36.684  34.177  28.393  1.00  0.00     0.063 H 
ATOM     69  C   UNL A   1      37.596  31.519  30.981  1.00  0.00    -0.053 A 
ATOM     70  H   UNL A   1      35.547  31.549  31.452  1.00  0.00     0.063 H 
ATOM     71  C   UNL A   1      38.587  32.091  30.179  1.00  0.00    -0.014 A 
ATOM     72  H   UNL A   1      39.028  33.662  28.831  1.00  0.00     0.063 H 
ATOM     73  H   UNL A   1      37.850  30.826  31.702  1.00  0.00     0.063 H 
BRANCH  71  74
ATOM     74  C   UNL A   1      39.902  31.464  30.221  1.00  0.00     0.031 A 
ATOM     75  C   UNL A   1      40.140  30.167  29.562  1.00  0.00     0.074 A 
ATOM     76  C   UNL A   1      40.915  32.108  30.841  1.00  0.00     0.049 A 
ATOM     77  N   UNL A   1      41.023  29.308  29.947  1.00  0.00    -0.248 NA
ATOM     78  C   UNL A   1      39.358  29.721  28.417  1.00  0.00    -0.034 C 
ATOM     79  C   UNL A   1      42.334  31.765  30.814  1.00  0.00    -0.036 A 
ATOM     80  N   UNL A   1      40.816  33.121  31.811  1.00  0.00    -0.354 N 
ATOM     81  C   UNL A   1      41.107  28.331  28.981  1.00  0.00     0.074 A 
ATOM     82  C   UNL A   1      40.009  28.603  28.080  1.00  0.00    -0.034 C 
ATOM     83  H   UNL A   1      38.526  30.151  27.983  1.00  0.00     0.065 H 
ATOM     84  C   UNL A   1      42.928  32.307  31.890  1.00  0.00    -0.036 A 
ATOM     85  H   UNL A   1      42.802  31.200  30.088  1.00  0.00     0.065 H 
ATOM     86  C   UNL A   1      41.881  32.891  32.710  1.00  0.00     0.049 A 
ATOM     87  H   UNL A   1      40.145  33.840  31.854  1.00  0.00     0.167 HD
ATOM     88  C   UNL A   1      42.177  27.483  28.972  1.00  0.00     0.037 A 
ATOM     89  H   UNL A   1      39.759  28.006  27.275  1.00  0.00     0.065 H 
ATOM     90  H   UNL A   1      43.939  32.307  32.095  1.00  0.00     0.065 H 
ATOM     91  C   UNL A   1      41.653  32.587  34.021  1.00  0.00     0.037 A 
ATOM     92  C   UNL A   1      43.079  27.758  30.087  1.00  0.00     0.049 A 
ATOM     93  C   UNL A   1      42.236  31.262  34.449  1.00  0.00     0.074 A 
ATOM     94  C   UNL A   1      44.233  28.521  30.173  1.00  0.00    -0.036 A 
ATOM     95  N   UNL A   1      42.679  27.496  31.393  1.00  0.00    -0.354 N 
ATOM     96  N   UNL A   1      42.539  30.303  33.622  1.00  0.00    -0.248 NA
ATOM     97  C   UNL A   1      42.472  30.900  35.844  1.00  0.00    -0.034 C 
ATOM     98  C   UNL A   1      44.498  28.765  31.541  1.00  0.00    -0.036 A 
ATOM     99  H   UNL A   1      44.799  28.855  29.378  1.00  0.00     0.065 H 
ATOM    100  C   UNL A   1      43.520  28.132  32.287  1.00  0.00     0.049 A 
ATOM    101  H   UNL A   1      41.908  26.937  31.644  1.00  0.00     0.167 HD
ATOM    102  C   UNL A   1      42.969  29.213  34.333  1.00  0.00     0.074 A 
ATOM    103  C   UNL A   1      42.928  29.642  35.718  1.00  0.00    -0.034 C 
ATOM    104  H   UNL A   1      42.328  31.462  36.698  1.00  0.00     0.065 H 
ATOM    105  H   UNL A   1      45.284  29.317  31.917  1.00  0.00     0.065 H 
ATOM    106  C   UNL A   1      43.308  28.042  33.722  1.00  0.00     0.037 A 
ATOM    107  H   UNL A   1      43.215  29.051  36.514  1.00  0.00     0.065 H 
BRANCH  88 108
ATOM    108  C   UNL A   1      42.565  26.640  27.775  1.00  0.00     0.064 A 
ATOM    109  C   UNL A   1      42.322  25.248  27.756  1.00  0.00     0.173 A 
ATOM    110  C   UNL A   1      43.238  27.133  26.643  1.00  0.00     0.173 A 
ATOM    111  F   UNL A   1      41.576  24.652  28.695  1.00  0.00    -0.203 F 
ATOM    112  C   UNL A   1      42.842  24.407  26.767  1.00  0.00     0.198 A 
ATOM    113  C   UNL A   1      43.807  26.288  25.683  1.00  0.00     0.198 A 
ATOM    114  F   UNL A   1      43.323  28.449  26.407  1.00  0.00    -0.203 F 
ATOM    115  F   UNL A   1      42.592  23.091  26.815  1.00  0.00    -0.200 F 
ATOM    116  C   UNL A   1      43.624  24.922  25.756  1.00  0.00     0.200 A 
ATOM    117  F   UNL A   1      44.539  26.809  24.688  1.00  0.00    -0.200 F 
ATOM    118  F   UNL A   1      44.173  24.111  24.841  1.00  0.00    -0.200 F 
ENDBRANCH  88 108
BRANCH  91 119
ATOM    119  C   UNL A   1      40.390  33.158  34.555  1.00  0.00     0.064 A 
ATOM    120  C   UNL A   1      39.237  32.349  34.568  1.00  0.00     0.173 A 
ATOM    121  C   UNL A   1      40.383  34.308  35.352  1.00  0.00     0.173 A 
ATOM    122  F   UNL A   1      39.194  31.234  33.822  1.00  0.00    -0.203 F 
ATOM    123  C   UNL A   1      38.173  32.618  35.425  1.00  0.00     0.198 A 
ATOM    124  C   UNL A   1      39.307  34.583  36.199  1.00  0.00     0.198 A 
ATOM    125  F   UNL A   1      41.456  35.111  35.396  1.00  0.00    -0.203 F 
ATOM    126  F   UNL A   1      37.138  31.769  35.492  1.00  0.00    -0.200 F 
ATOM    127  C   UNL A   1      38.220  33.721  36.259  1.00  0.00     0.200 A 
ATOM    128  F   UNL A   1      39.364  35.637  37.026  1.00  0.00    -0.200 F 
ATOM    129  F   UNL A   1      37.239  33.936  37.147  1.00  0.00    -0.200 F 
ENDBRANCH  91 119
BRANCH 106 130
ATOM    130  C   UNL A   1      43.580  26.740  34.426  1.00  0.00     0.064 A 
ATOM    131  C   UNL A   1      42.569  25.900  34.921  1.00  0.00     0.173 A 
ATOM    132  C   UNL A   1      44.895  26.225  34.497  1.00  0.00     0.173 A 
ATOM    133  F   UNL A   1      41.275  26.227  34.803  1.00  0.00    -0.203 F 
ATOM    134  C   UNL A   1      42.858  24.666  35.508  1.00  0.00     0.198 A 
ATOM    135  C   UNL A   1      45.175  24.970  35.034  1.00  0.00     0.198 A 
ATOM    136  F   UNL A   1      45.943  26.919  34.027  1.00  0.00    -0.203 F 
ATOM    137  F   UNL A   1      41.862  23.919  36.005  1.00  0.00    -0.200 F 
ATOM    138  C   UNL A   1      44.157  24.197  35.556  1.00  0.00     0.200 A 
ATOM    139  F   UNL A   1      46.433  24.507  35.027  1.00  0.00    -0.200 F 
ATOM    140  F   UNL A   1      44.425  22.995  36.083  1.00  0.00    -0.200 F 
ENDBRANCH 106 130
ENDBRANCH  71  74
ENDBRANCH  61  64
ENDBRANCH  57  60
ENDBRANCH  54  57
ENDBRANCH  51  54
ENDBRANCH   1  51
TORSDOF 17
ENDMDL
MODEL 6
REMARK VINA RESULT:     -13.1      3.963     10.734
REMARK SMILES Cc1c(CC(=O)NCCCCCCNC(=O)c2ccc(-c3c4nc(c(-c5c(F)c(F)c(F)c(F)c5F)c5ccc([nH]5)c(-c5c(F)c(F)c(F)c(F)c5F)c5nc(c(-c6c(F)c(F)c(F)c(F)c6F)c6ccc3[nH]6)C=C5)C=C4)cc2)cc(-c2ccccc2)cc1-c1ccccc1
REMARK SMILES IDX 10 1 9 4 8 7 7 10 5 11 6 12 4 14 3 17 2 18 89 19 80 20 88 21
REMARK SMILES IDX 81 22 1 25 90 29 91 30 95 31 92 32 94 34 93 36 82 40 83 41
REMARK SMILES IDX 87 42 84 43 86 45 85 47 11 51 12 54 13 57 14 60 15 61 16 63
REMARK SMILES IDX 17 64 18 65 79 66 19 67 78 69 20 71 21 74 22 75 72 76 23 77
REMARK SMILES IDX 77 78 71 79 73 80 24 81 76 82 70 84 69 86 25 88 57 91 37 92
REMARK SMILES IDX 56 93 38 94 41 95 55 96 74 97 39 98 40 100 54 102 75 103
REMARK SMILES IDX 42 106 26 108 27 109 35 110 28 111 29 112 33 113 36 114
REMARK SMILES IDX 30 115 31 116 34 117 32 118 58 119 59 120 67 121 60 122
REMARK SMILES IDX 61 123 65 124 68 125 62 126 63 127 66 128 64 129 43 130
REMARK SMILES IDX 44 131 52 132 45 133 46 134 50 135 53 136 47 137 48 138
REMARK SMILES IDX 51 139 49 140
REMARK H PARENT 10 2 10 3 9 5 9 6 8 8 8 9 7 13 4 15 4 16 80 23 88 24 1 26 1 27
REMARK H PARENT 1 28 91 33 95 35 92 37 94 38 93 39 83 44 87 46 84 48 86 49
REMARK H PARENT 85 50 11 52 11 53 12 55 12 56 13 58 13 59 14 62 18 68 79 70
REMARK H PARENT 19 72 78 73 77 83 71 85 73 87 76 89 70 90 38 99 41 101 74 104
REMARK H PARENT 39 105 75 107
REMARK Flexibility Score: inf
ROOT
ATOM      1  C   UNL A   1      34.623  22.624  23.999  1.00  0.00    -0.052 C 
ATOM      2  H   UNL A   1      34.349  23.649  24.139  1.00  0.00     0.027 H 
ATOM      3  H   UNL A   1      35.140  22.422  23.084  1.00  0.00     0.027 H 
ENDROOT
BRANCH   1   4
ATOM      4  C   UNL A   1      33.330  21.802  23.921  1.00  0.00    -0.036 C 
ATOM      5  H   UNL A   1      33.412  21.130  23.093  1.00  0.00     0.028 H 
ATOM      6  H   UNL A   1      33.234  21.305  24.864  1.00  0.00     0.028 H 
BRANCH   4   7
ATOM      7  C   UNL A   1      32.053  22.623  23.740  1.00  0.00     0.017 C 
ATOM      8  H   UNL A   1      31.256  21.963  23.467  1.00  0.00     0.049 H 
ATOM      9  H   UNL A   1      31.854  23.120  24.667  1.00  0.00     0.049 H 
BRANCH   7  10
ATOM     10  N   UNL A   1      32.183  23.640  22.719  1.00  0.00    -0.356 N 
ATOM     11  C   UNL A   1      31.684  24.911  22.706  1.00  0.00     0.224 C 
ATOM     12  O   UNL A   1      31.943  25.628  21.736  1.00  0.00    -0.275 OA
ATOM     13  H   UNL A   1      32.702  23.379  21.924  1.00  0.00     0.163 HD
BRANCH  11  14
ATOM     14  C   UNL A   1      30.866  25.436  23.882  1.00  0.00     0.052 C 
ATOM     15  H   UNL A   1      29.830  25.281  23.666  1.00  0.00     0.042 H 
ATOM     16  H   UNL A   1      31.193  24.900  24.748  1.00  0.00     0.042 H 
BRANCH  14  17
ATOM     17  C   UNL A   1      31.078  26.911  24.175  1.00  0.00    -0.035 A 
ATOM     18  C   UNL A   1      32.100  27.406  25.028  1.00  0.00    -0.040 A 
ATOM     19  C   UNL A   1      32.178  28.803  25.276  1.00  0.00    -0.015 A 
ATOM     20  C   UNL A   1      30.202  27.818  23.545  1.00  0.00    -0.050 A 
ATOM     21  C   UNL A   1      31.262  29.665  24.637  1.00  0.00    -0.046 A 
ATOM     22  C   UNL A   1      30.278  29.197  23.759  1.00  0.00    -0.017 A 
ATOM     23  H   UNL A   1      29.479  27.451  22.905  1.00  0.00     0.063 H 
ATOM     24  H   UNL A   1      31.319  30.679  24.823  1.00  0.00     0.064 H 
BRANCH  18  25
ATOM     25  C   UNL A   1      33.129  26.466  25.620  1.00  0.00    -0.039 C 
ATOM     26  H   UNL A   1      34.105  26.749  25.285  1.00  0.00     0.028 H 
ATOM     27  H   UNL A   1      32.919  25.465  25.307  1.00  0.00     0.028 H 
ATOM     28  H   UNL A   1      33.089  26.521  26.687  1.00  0.00     0.028 H 
ENDBRANCH  18  25
BRANCH  19  29
ATOM     29  C   UNL A   1      33.158  29.407  26.203  1.00  0.00    -0.018 A 
ATOM     30  C   UNL A   1      32.873  30.629  26.838  1.00  0.00    -0.054 A 
ATOM     31  C   UNL A   1      34.390  28.792  26.476  1.00  0.00    -0.054 A 
ATOM     32  C   UNL A   1      33.780  31.208  27.728  1.00  0.00    -0.062 A 
ATOM     33  H   UNL A   1      31.978  31.106  26.643  1.00  0.00     0.063 H 
ATOM     34  C   UNL A   1      35.292  29.363  27.376  1.00  0.00    -0.062 A 
ATOM     35  H   UNL A   1      34.632  27.907  26.003  1.00  0.00     0.063 H 
ATOM     36  C   UNL A   1      34.987  30.570  28.002  1.00  0.00    -0.062 A 
ATOM     37  H   UNL A   1      33.556  32.108  28.182  1.00  0.00     0.062 H 
ATOM     38  H   UNL A   1      36.187  28.890  27.579  1.00  0.00     0.062 H 
ATOM     39  H   UNL A   1      35.654  30.990  28.667  1.00  0.00     0.062 H 
ENDBRANCH  19  29
BRANCH  22  40
ATOM     40  C   UNL A   1      29.362  30.116  23.068  1.00  0.00    -0.018 A 
ATOM     41  C   UNL A   1      28.870  29.825  21.785  1.00  0.00    -0.054 A 
ATOM     42  C   UNL A   1      28.979  31.330  23.662  1.00  0.00    -0.054 A 
ATOM     43  C   UNL A   1      28.029  30.718  21.118  1.00  0.00    -0.062 A 
ATOM     44  H   UNL A   1      29.133  28.937  21.329  1.00  0.00     0.063 H 
ATOM     45  C   UNL A   1      28.140  32.226  22.996  1.00  0.00    -0.062 A 
ATOM     46  H   UNL A   1      29.323  31.564  24.608  1.00  0.00     0.063 H 
ATOM     47  C   UNL A   1      27.666  31.920  21.722  1.00  0.00    -0.062 A 
ATOM     48  H   UNL A   1      27.674  30.488  20.176  1.00  0.00     0.062 H 
ATOM     49  H   UNL A   1      27.872  33.114  23.446  1.00  0.00     0.062 H 
ATOM     50  H   UNL A   1      27.048  32.582  21.227  1.00  0.00     0.062 H 
ENDBRANCH  22  40
ENDBRANCH  14  17
ENDBRANCH  11  14
ENDBRANCH   7  10
ENDBRANCH   4   7
ENDBRANCH   1   4
BRANCH   1  51
ATOM     51  C   UNL A   1      35.612  22.246  25.115  1.00  0.00    -0.052 C 
ATOM     52  H   UNL A   1      35.487  21.204  25.321  1.00  0.00     0.027 H 
ATOM     53  H   UNL A   1      35.375  22.891  25.935  1.00  0.00     0.027 H 
BRANCH  51  54
ATOM     54  C   UNL A   1      37.097  22.489  24.824  1.00  0.00    -0.036 C 
ATOM     55  H   UNL A   1      37.184  22.874  23.828  1.00  0.00     0.028 H 
ATOM     56  H   UNL A   1      37.593  21.549  24.950  1.00  0.00     0.028 H 
BRANCH  54  57
ATOM     57  C   UNL A   1      37.766  23.470  25.775  1.00  0.00     0.018 C 
ATOM     58  H   UNL A   1      37.226  23.467  26.698  1.00  0.00     0.049 H 
ATOM     59  H   UNL A   1      37.755  24.427  25.295  1.00  0.00     0.049 H 
BRANCH  57  60
ATOM     60  N   UNL A   1      39.162  23.157  26.058  1.00  0.00    -0.352 N 
ATOM     61  C   UNL A   1      40.135  23.947  26.646  1.00  0.00     0.251 C 
ATOM     62  H   UNL A   1      39.454  22.255  25.795  1.00  0.00     0.163 HD
ATOM     63  O   UNL A   1      41.277  23.535  26.770  1.00  0.00    -0.269 OA
BRANCH  61  64
ATOM     64  C   UNL A   1      39.744  25.245  27.243  1.00  0.00     0.039 A 
ATOM     65  C   UNL A   1      40.142  26.413  26.582  1.00  0.00    -0.049 A 
ATOM     66  C   UNL A   1      39.181  25.313  28.515  1.00  0.00    -0.049 A 
ATOM     67  C   UNL A   1      40.201  27.611  27.289  1.00  0.00    -0.053 A 
ATOM     68  H   UNL A   1      40.390  26.386  25.579  1.00  0.00     0.063 H 
ATOM     69  C   UNL A   1      39.319  26.477  29.245  1.00  0.00    -0.053 A 
ATOM     70  H   UNL A   1      38.669  24.507  28.905  1.00  0.00     0.063 H 
ATOM     71  C   UNL A   1      39.894  27.604  28.651  1.00  0.00    -0.014 A 
ATOM     72  H   UNL A   1      40.466  28.488  26.815  1.00  0.00     0.063 H 
ATOM     73  H   UNL A   1      39.000  26.516  30.226  1.00  0.00     0.063 H 
BRANCH  71  74
ATOM     74  C   UNL A   1      40.265  28.693  29.544  1.00  0.00     0.031 A 
ATOM     75  C   UNL A   1      39.282  29.723  29.929  1.00  0.00     0.074 A 
ATOM     76  C   UNL A   1      41.518  28.727  30.050  1.00  0.00     0.049 A 
ATOM     77  N   UNL A   1      39.587  30.937  30.241  1.00  0.00    -0.248 NA
ATOM     78  C   UNL A   1      37.850  29.459  29.954  1.00  0.00    -0.034 C 
ATOM     79  C   UNL A   1      42.023  29.592  31.111  1.00  0.00    -0.036 A 
ATOM     80  N   UNL A   1      42.662  28.091  29.538  1.00  0.00    -0.354 N 
ATOM     81  C   UNL A   1      38.454  31.537  30.744  1.00  0.00     0.074 A 
ATOM     82  C   UNL A   1      37.388  30.594  30.488  1.00  0.00    -0.034 C 
ATOM     83  H   UNL A   1      37.331  28.622  29.644  1.00  0.00     0.065 H 
ATOM     84  C   UNL A   1      43.359  29.677  30.998  1.00  0.00    -0.036 A 
ATOM     85  H   UNL A   1      41.450  30.061  31.830  1.00  0.00     0.065 H 
ATOM     86  C   UNL A   1      43.731  28.984  29.776  1.00  0.00     0.049 A 
ATOM     87  H   UNL A   1      42.710  27.208  29.106  1.00  0.00     0.167 HD
ATOM     88  C   UNL A   1      38.565  32.704  31.445  1.00  0.00     0.037 A 
ATOM     89  H   UNL A   1      36.393  30.775  30.694  1.00  0.00     0.065 H 
ATOM     90  H   UNL A   1      44.001  30.147  31.655  1.00  0.00     0.065 H 
ATOM     91  C   UNL A   1      44.439  29.536  28.749  1.00  0.00     0.037 A 
ATOM     92  C   UNL A   1      39.952  33.156  31.503  1.00  0.00     0.049 A 
ATOM     93  C   UNL A   1      44.410  31.044  28.729  1.00  0.00     0.074 A 
ATOM     94  C   UNL A   1      40.937  32.988  32.464  1.00  0.00    -0.036 A 
ATOM     95  N   UNL A   1      40.594  33.600  30.352  1.00  0.00    -0.354 N 
ATOM     96  N   UNL A   1      43.494  31.759  29.320  1.00  0.00    -0.248 NA
ATOM     97  C   UNL A   1      45.378  31.859  28.000  1.00  0.00    -0.034 C 
ATOM     98  C   UNL A   1      42.186  33.282  31.869  1.00  0.00    -0.036 A 
ATOM     99  H   UNL A   1      40.786  32.697  33.442  1.00  0.00     0.065 H 
ATOM    100  C   UNL A   1      41.960  33.650  30.555  1.00  0.00     0.049 A 
ATOM    101  H   UNL A   1      40.140  33.844  29.513  1.00  0.00     0.167 HD
ATOM    102  C   UNL A   1      43.709  33.083  29.045  1.00  0.00     0.074 A 
ATOM    103  C   UNL A   1      44.910  33.098  28.232  1.00  0.00    -0.034 C 
ATOM    104  H   UNL A   1      46.202  31.562  27.453  1.00  0.00     0.065 H 
ATOM    105  H   UNL A   1      43.106  33.232  32.335  1.00  0.00     0.065 H 
ATOM    106  C   UNL A   1      42.869  34.059  29.498  1.00  0.00     0.037 A 
ATOM    107  H   UNL A   1      45.355  33.958  27.873  1.00  0.00     0.065 H 
BRANCH  88 108
ATOM    108  C   UNL A   1      37.474  33.244  32.346  1.00  0.00     0.064 A 
ATOM    109  C   UNL A   1      36.401  33.998  31.818  1.00  0.00     0.173 A 
ATOM    110  C   UNL A   1      37.463  33.109  33.745  1.00  0.00     0.173 A 
ATOM    111  F   UNL A   1      36.199  34.103  30.499  1.00  0.00    -0.203 F 
ATOM    112  C   UNL A   1      35.491  34.680  32.630  1.00  0.00     0.198 A 
ATOM    113  C   UNL A   1      36.588  33.836  34.561  1.00  0.00     0.198 A 
ATOM    114  F   UNL A   1      38.266  32.232  34.362  1.00  0.00    -0.203 F 
ATOM    115  F   UNL A   1      34.506  35.395  32.069  1.00  0.00    -0.200 F 
ATOM    116  C   UNL A   1      35.613  34.637  34.002  1.00  0.00     0.200 A 
ATOM    117  F   UNL A   1      36.701  33.757  35.895  1.00  0.00    -0.200 F 
ATOM    118  F   UNL A   1      34.779  35.338  34.781  1.00  0.00    -0.200 F 
ENDBRANCH  88 108
BRANCH  91 119
ATOM    119  C   UNL A   1      44.490  28.683  27.533  1.00  0.00     0.064 A 
ATOM    120  C   UNL A   1      45.279  27.517  27.559  1.00  0.00     0.173 A 
ATOM    121  C   UNL A   1      43.535  28.796  26.516  1.00  0.00     0.173 A 
ATOM    122  F   UNL A   1      46.210  27.361  28.515  1.00  0.00    -0.203 F 
ATOM    123  C   UNL A   1      45.045  26.464  26.679  1.00  0.00     0.198 A 
ATOM    124  C   UNL A   1      43.313  27.743  25.625  1.00  0.00     0.198 A 
ATOM    125  F   UNL A   1      42.741  29.874  26.446  1.00  0.00    -0.203 F 
ATOM    126  F   UNL A   1      45.741  25.324  26.801  1.00  0.00    -0.200 F 
ATOM    127  C   UNL A   1      44.044  26.568  25.729  1.00  0.00     0.200 A 
ATOM    128  F   UNL A   1      42.327  27.833  24.722  1.00  0.00    -0.200 F 
ATOM    129  F   UNL A   1      43.758  25.525  24.938  1.00  0.00    -0.200 F 
ENDBRANCH  91 119
BRANCH 106 130
ATOM    130  C   UNL A   1      42.902  35.502  29.071  1.00  0.00     0.064 A 
ATOM    131  C   UNL A   1      42.228  35.992  27.942  1.00  0.00     0.173 A 
ATOM    132  C   UNL A   1      43.515  36.477  29.892  1.00  0.00     0.173 A 
ATOM    133  F   UNL A   1      41.511  35.179  27.153  1.00  0.00    -0.203 F 
ATOM    134  C   UNL A   1      42.225  37.351  27.617  1.00  0.00     0.198 A 
ATOM    135  C   UNL A   1      43.465  37.838  29.594  1.00  0.00     0.198 A 
ATOM    136  F   UNL A   1      44.162  36.137  31.016  1.00  0.00    -0.203 F 
ATOM    137  F   UNL A   1      41.603  37.766  26.504  1.00  0.00    -0.200 F 
ATOM    138  C   UNL A   1      42.834  38.273  28.447  1.00  0.00     0.200 A 
ATOM    139  F   UNL A   1      44.017  38.725  30.434  1.00  0.00    -0.200 F 
ATOM    140  F   UNL A   1      42.795  39.579  28.152  1.00  0.00    -0.200 F 
ENDBRANCH 106 130
ENDBRANCH  71  74
ENDBRANCH  61  64
ENDBRANCH  57  60
ENDBRANCH  54  57
ENDBRANCH  51  54
ENDBRANCH   1  51
TORSDOF 17
ENDMDL
MODEL 7
REMARK VINA RESULT:     -13.0      3.476      6.451
REMARK SMILES Cc1c(CC(=O)NCCCCCCNC(=O)c2ccc(-c3c4nc(c(-c5c(F)c(F)c(F)c(F)c5F)c5ccc([nH]5)c(-c5c(F)c(F)c(F)c(F)c5F)c5nc(c(-c6c(F)c(F)c(F)c(F)c6F)c6ccc3[nH]6)C=C5)C=C4)cc2)cc(-c2ccccc2)cc1-c1ccccc1
REMARK SMILES IDX 10 1 9 4 8 7 7 10 5 11 6 12 4 14 3 17 2 18 89 19 80 20 88 21
REMARK SMILES IDX 81 22 1 25 90 29 91 30 95 31 92 32 94 34 93 36 82 40 83 41
REMARK SMILES IDX 87 42 84 43 86 45 85 47 11 51 12 54 13 57 14 60 15 61 16 63
REMARK SMILES IDX 17 64 18 65 79 66 19 67 78 69 20 71 21 74 22 75 72 76 23 77
REMARK SMILES IDX 77 78 71 79 73 80 24 81 76 82 70 84 69 86 25 88 57 91 37 92
REMARK SMILES IDX 56 93 38 94 41 95 55 96 74 97 39 98 40 100 54 102 75 103
REMARK SMILES IDX 42 106 26 108 27 109 35 110 28 111 29 112 33 113 36 114
REMARK SMILES IDX 30 115 31 116 34 117 32 118 58 119 59 120 67 121 60 122
REMARK SMILES IDX 61 123 65 124 68 125 62 126 63 127 66 128 64 129 43 130
REMARK SMILES IDX 44 131 52 132 45 133 46 134 50 135 53 136 47 137 48 138
REMARK SMILES IDX 51 139 49 140
REMARK H PARENT 10 2 10 3 9 5 9 6 8 8 8 9 7 13 4 15 4 16 80 23 88 24 1 26 1 27
REMARK H PARENT 1 28 91 33 95 35 92 37 94 38 93 39 83 44 87 46 84 48 86 49
REMARK H PARENT 85 50 11 52 11 53 12 55 12 56 13 58 13 59 14 62 18 68 79 70
REMARK H PARENT 19 72 78 73 77 83 71 85 73 87 76 89 70 90 38 99 41 101 74 104
REMARK H PARENT 39 105 75 107
REMARK Flexibility Score: inf
ROOT
ATOM      1  C   UNL A   1      32.969  34.522  28.435  1.00  0.00    -0.052 C 
ATOM      2  H   UNL A   1      32.249  34.217  29.165  1.00  0.00     0.027 H 
ATOM      3  H   UNL A   1      32.561  34.746  27.472  1.00  0.00     0.027 H 
ENDROOT
BRANCH   1   4
ATOM      4  C   UNL A   1      33.927  33.345  28.205  1.00  0.00    -0.036 C 
ATOM      5  H   UNL A   1      34.712  33.677  27.558  1.00  0.00     0.028 H 
ATOM      6  H   UNL A   1      34.272  33.045  29.172  1.00  0.00     0.028 H 
BRANCH   4   7
ATOM      7  C   UNL A   1      33.287  32.106  27.577  1.00  0.00     0.017 C 
ATOM      8  H   UNL A   1      32.581  31.697  28.268  1.00  0.00     0.049 H 
ATOM      9  H   UNL A   1      32.818  32.411  26.665  1.00  0.00     0.049 H 
BRANCH   7  10
ATOM     10  N   UNL A   1      34.258  31.084  27.247  1.00  0.00    -0.356 N 
ATOM     11  C   UNL A   1      34.067  29.740  27.090  1.00  0.00     0.224 C 
ATOM     12  O   UNL A   1      35.039  29.048  26.777  1.00  0.00    -0.275 OA
ATOM     13  H   UNL A   1      35.181  31.400  27.119  1.00  0.00     0.163 HD
BRANCH  11  14
ATOM     14  C   UNL A   1      32.680  29.128  27.258  1.00  0.00     0.052 C 
ATOM     15  H   UNL A   1      32.752  28.323  27.960  1.00  0.00     0.042 H 
ATOM     16  H   UNL A   1      32.035  29.913  27.593  1.00  0.00     0.042 H 
BRANCH  14  17
ATOM     17  C   UNL A   1      32.081  28.587  25.972  1.00  0.00    -0.035 A 
ATOM     18  C   UNL A   1      32.304  27.269  25.492  1.00  0.00    -0.040 A 
ATOM     19  C   UNL A   1      31.737  26.881  24.248  1.00  0.00    -0.015 A 
ATOM     20  C   UNL A   1      31.253  29.461  25.238  1.00  0.00    -0.050 A 
ATOM     21  C   UNL A   1      30.934  27.802  23.543  1.00  0.00    -0.046 A 
ATOM     22  C   UNL A   1      30.668  29.089  24.025  1.00  0.00    -0.017 A 
ATOM     23  H   UNL A   1      31.074  30.408  25.609  1.00  0.00     0.063 H 
ATOM     24  H   UNL A   1      30.527  27.517  22.638  1.00  0.00     0.064 H 
BRANCH  18  25
ATOM     25  C   UNL A   1      33.087  26.272  26.319  1.00  0.00    -0.039 C 
ATOM     26  H   UNL A   1      34.115  26.292  26.023  1.00  0.00     0.028 H 
ATOM     27  H   UNL A   1      32.690  25.292  26.166  1.00  0.00     0.028 H 
ATOM     28  H   UNL A   1      33.010  26.531  27.355  1.00  0.00     0.028 H 
ENDBRANCH  18  25
BRANCH  19  29
ATOM     29  C   UNL A   1      31.970  25.559  23.630  1.00  0.00    -0.018 A 
ATOM     30  C   UNL A   1      33.030  25.378  22.723  1.00  0.00    -0.054 A 
ATOM     31  C   UNL A   1      31.153  24.455  23.920  1.00  0.00    -0.054 A 
ATOM     32  C   UNL A   1      33.274  24.133  22.139  1.00  0.00    -0.062 A 
ATOM     33  H   UNL A   1      33.636  26.178  22.484  1.00  0.00     0.063 H 
ATOM     34  C   UNL A   1      31.405  23.206  23.348  1.00  0.00    -0.062 A 
ATOM     35  H   UNL A   1      30.354  24.569  24.564  1.00  0.00     0.063 H 
ATOM     36  C   UNL A   1      32.465  23.046  22.459  1.00  0.00    -0.062 A 
ATOM     37  H   UNL A   1      34.053  24.019  21.472  1.00  0.00     0.062 H 
ATOM     38  H   UNL A   1      30.805  22.401  23.585  1.00  0.00     0.062 H 
ATOM     39  H   UNL A   1      32.651  22.122  22.038  1.00  0.00     0.062 H 
ENDBRANCH  19  29
BRANCH  22  40
ATOM     40  C   UNL A   1      29.792  30.018  23.296  1.00  0.00    -0.018 A 
ATOM     41  C   UNL A   1      29.311  31.190  23.902  1.00  0.00    -0.054 A 
ATOM     42  C   UNL A   1      29.386  29.740  21.981  1.00  0.00    -0.054 A 
ATOM     43  C   UNL A   1      28.450  32.052  23.218  1.00  0.00    -0.062 A 
ATOM     44  H   UNL A   1      29.599  31.419  24.867  1.00  0.00     0.063 H 
ATOM     45  C   UNL A   1      28.523  30.599  21.296  1.00  0.00    -0.062 A 
ATOM     46  H   UNL A   1      29.732  28.887  21.511  1.00  0.00     0.063 H 
ATOM     47  C   UNL A   1      28.055  31.755  21.916  1.00  0.00    -0.062 A 
ATOM     48  H   UNL A   1      28.107  32.911  23.678  1.00  0.00     0.062 H 
ATOM     49  H   UNL A   1      28.233  30.378  20.331  1.00  0.00     0.062 H 
ATOM     50  H   UNL A   1      27.415  32.389  21.413  1.00  0.00     0.062 H 
ENDBRANCH  22  40
ENDBRANCH  14  17
ENDBRANCH  11  14
ENDBRANCH   7  10
ENDBRANCH   4   7
ENDBRANCH   1   4
BRANCH   1  51
ATOM     51  C   UNL A   1      33.601  35.837  28.923  1.00  0.00    -0.052 C 
ATOM     52  H   UNL A   1      33.510  36.554  28.134  1.00  0.00     0.027 H 
ATOM     53  H   UNL A   1      34.609  35.588  29.182  1.00  0.00     0.027 H 
BRANCH  51  54
ATOM     54  C   UNL A   1      32.998  36.456  30.188  1.00  0.00    -0.036 C 
ATOM     55  H   UNL A   1      32.055  36.893  29.931  1.00  0.00     0.028 H 
ATOM     56  H   UNL A   1      33.704  37.176  30.545  1.00  0.00     0.028 H 
BRANCH  54  57
ATOM     57  C   UNL A   1      32.771  35.465  31.320  1.00  0.00     0.018 C 
ATOM     58  H   UNL A   1      33.180  34.520  31.029  1.00  0.00     0.049 H 
ATOM     59  H   UNL A   1      31.715  35.420  31.490  1.00  0.00     0.049 H 
BRANCH  57  60
ATOM     60  N   UNL A   1      33.385  35.860  32.583  1.00  0.00    -0.352 N 
ATOM     61  C   UNL A   1      34.411  35.255  33.286  1.00  0.00     0.251 C 
ATOM     62  H   UNL A   1      33.017  36.676  32.994  1.00  0.00     0.163 HD
ATOM     63  O   UNL A   1      34.776  35.704  34.361  1.00  0.00    -0.269 OA
BRANCH  61  64
ATOM     64  C   UNL A   1      35.151  34.136  32.658  1.00  0.00     0.039 A 
ATOM     65  C   UNL A   1      35.451  33.024  33.454  1.00  0.00    -0.049 A 
ATOM     66  C   UNL A   1      35.708  34.263  31.388  1.00  0.00    -0.049 A 
ATOM     67  C   UNL A   1      36.487  32.175  33.077  1.00  0.00    -0.053 A 
ATOM     68  H   UNL A   1      34.908  32.836  34.312  1.00  0.00     0.063 H 
ATOM     69  C   UNL A   1      36.792  33.476  31.051  1.00  0.00    -0.053 A 
ATOM     70  H   UNL A   1      35.315  34.933  30.708  1.00  0.00     0.063 H 
ATOM     71  C   UNL A   1      37.223  32.479  31.930  1.00  0.00    -0.014 A 
ATOM     72  H   UNL A   1      36.708  31.335  33.634  1.00  0.00     0.063 H 
ATOM     73  H   UNL A   1      37.283  33.625  30.156  1.00  0.00     0.063 H 
BRANCH  71  74
ATOM     74  C   UNL A   1      38.524  31.884  31.653  1.00  0.00     0.031 A 
ATOM     75  C   UNL A   1      38.639  30.680  30.809  1.00  0.00     0.074 A 
ATOM     76  C   UNL A   1      39.633  32.476  32.147  1.00  0.00     0.049 A 
ATOM     77  N   UNL A   1      39.580  29.804  30.918  1.00  0.00    -0.248 NA
ATOM     78  C   UNL A   1      37.657  30.353  29.784  1.00  0.00    -0.034 C 
ATOM     79  C   UNL A   1      41.023  32.174  31.816  1.00  0.00    -0.036 A 
ATOM     80  N   UNL A   1      39.715  33.365  33.233  1.00  0.00    -0.354 N 
ATOM     81  C   UNL A   1      39.485  28.950  29.843  1.00  0.00     0.074 A 
ATOM     82  C   UNL A   1      38.237  29.298  29.200  1.00  0.00    -0.034 C 
ATOM     83  H   UNL A   1      36.758  30.810  29.567  1.00  0.00     0.065 H 
ATOM     84  C   UNL A   1      41.807  32.600  32.821  1.00  0.00    -0.036 A 
ATOM     85  H   UNL A   1      41.349  31.710  30.954  1.00  0.00     0.065 H 
ATOM     86  C   UNL A   1      40.930  33.057  33.885  1.00  0.00     0.049 A 
ATOM     87  H   UNL A   1      39.063  34.058  33.486  1.00  0.00     0.167 HD
ATOM     88  C   UNL A   1      40.537  28.136  29.534  1.00  0.00     0.037 A 
ATOM     89  H   UNL A   1      37.842  28.795  28.390  1.00  0.00     0.065 H 
ATOM     90  H   UNL A   1      42.838  32.602  32.833  1.00  0.00     0.065 H 
ATOM     91  C   UNL A   1      40.952  32.596  35.169  1.00  0.00     0.037 A 
ATOM     92  C   UNL A   1      41.630  28.300  30.487  1.00  0.00     0.049 A 
ATOM     93  C   UNL A   1      41.608  31.245  35.319  1.00  0.00     0.074 A 
ATOM     94  C   UNL A   1      42.777  29.077  30.450  1.00  0.00    -0.036 A 
ATOM     95  N   UNL A   1      41.482  27.876  31.803  1.00  0.00    -0.354 N 
ATOM     96  N   UNL A   1      41.754  30.397  34.341  1.00  0.00    -0.248 NA
ATOM     97  C   UNL A   1      42.102  30.728  36.593  1.00  0.00    -0.034 C 
ATOM     98  C   UNL A   1      43.293  29.164  31.764  1.00  0.00    -0.036 A 
ATOM     99  H   UNL A   1      43.184  29.516  29.610  1.00  0.00     0.065 H 
ATOM    100  C   UNL A   1      42.473  28.424  32.597  1.00  0.00     0.049 A 
ATOM    101  H   UNL A   1      40.773  27.273  32.124  1.00  0.00     0.167 HD
ATOM    102  C   UNL A   1      42.312  29.243  34.824  1.00  0.00     0.074 A 
ATOM    103  C   UNL A   1      42.529  29.505  36.234  1.00  0.00    -0.034 C 
ATOM    104  H   UNL A   1      42.118  31.181  37.520  1.00  0.00     0.065 H 
ATOM    105  H   UNL A   1      44.135  29.688  32.051  1.00  0.00     0.065 H 
ATOM    106  C   UNL A   1      42.534  28.160  34.024  1.00  0.00     0.037 A 
ATOM    107  H   UNL A   1      42.962  28.831  36.886  1.00  0.00     0.065 H 
BRANCH  88 108
ATOM    108  C   UNL A   1      40.696  27.450  28.193  1.00  0.00     0.064 A 
ATOM    109  C   UNL A   1      40.217  26.136  27.986  1.00  0.00     0.173 A 
ATOM    110  C   UNL A   1      41.369  28.008  27.092  1.00  0.00     0.173 A 
ATOM    111  F   UNL A   1      39.442  25.521  28.889  1.00  0.00    -0.203 F 
ATOM    112  C   UNL A   1      40.520  25.397  26.840  1.00  0.00     0.198 A 
ATOM    113  C   UNL A   1      41.722  27.252  25.968  1.00  0.00     0.198 A 
ATOM    114  F   UNL A   1      41.663  29.314  27.050  1.00  0.00    -0.203 F 
ATOM    115  F   UNL A   1      40.052  24.148  26.711  1.00  0.00    -0.200 F 
ATOM    116  C   UNL A   1      41.312  25.940  25.851  1.00  0.00     0.200 A 
ATOM    117  F   UNL A   1      42.466  27.806  25.000  1.00  0.00    -0.200 F 
ATOM    118  F   UNL A   1      41.654  25.213  24.778  1.00  0.00    -0.200 F 
ENDBRANCH  88 108
BRANCH  91 119
ATOM    119  C   UNL A   1      39.810  33.068  35.993  1.00  0.00     0.064 A 
ATOM    120  C   UNL A   1      38.785  32.155  36.310  1.00  0.00     0.173 A 
ATOM    121  C   UNL A   1      39.883  34.246  36.745  1.00  0.00     0.173 A 
ATOM    122  F   UNL A   1      38.671  31.010  35.619  1.00  0.00    -0.203 F 
ATOM    123  C   UNL A   1      37.945  32.361  37.402  1.00  0.00     0.198 A 
ATOM    124  C   UNL A   1      39.029  34.455  37.829  1.00  0.00     0.198 A 
ATOM    125  F   UNL A   1      40.846  35.147  36.503  1.00  0.00    -0.203 F 
ATOM    126  F   UNL A   1      37.050  31.421  37.742  1.00  0.00    -0.200 F 
ATOM    127  C   UNL A   1      38.084  33.499  38.176  1.00  0.00     0.200 A 
ATOM    128  F   UNL A   1      39.181  35.545  38.596  1.00  0.00    -0.200 F 
ATOM    129  F   UNL A   1      37.337  33.658  39.278  1.00  0.00    -0.200 F 
ENDBRANCH  91 119
BRANCH 106 130
ATOM    130  C   UNL A   1      42.936  26.791  34.505  1.00  0.00     0.064 A 
ATOM    131  C   UNL A   1      42.025  25.844  34.998  1.00  0.00     0.173 A 
ATOM    132  C   UNL A   1      44.266  26.339  34.344  1.00  0.00     0.173 A 
ATOM    133  F   UNL A   1      40.715  26.119  35.084  1.00  0.00    -0.203 F 
ATOM    134  C   UNL A   1      42.426  24.559  35.370  1.00  0.00     0.198 A 
ATOM    135  C   UNL A   1      44.653  25.039  34.665  1.00  0.00     0.198 A 
ATOM    136  F   UNL A   1      45.222  27.140  33.850  1.00  0.00    -0.203 F 
ATOM    137  F   UNL A   1      41.527  23.704  35.876  1.00  0.00    -0.200 F 
ATOM    138  C   UNL A   1      43.736  24.153  35.194  1.00  0.00     0.200 A 
ATOM    139  F   UNL A   1      45.915  24.645  34.442  1.00  0.00    -0.200 F 
ATOM    140  F   UNL A   1      44.108  22.908  35.515  1.00  0.00    -0.200 F 
ENDBRANCH 106 130
ENDBRANCH  71  74
ENDBRANCH  61  64
ENDBRANCH  57  60
ENDBRANCH  54  57
ENDBRANCH  51  54
ENDBRANCH   1  51
TORSDOF 17
ENDMDL
MODEL 8
REMARK VINA RESULT:     -12.8      1.947      3.948
REMARK SMILES Cc1c(CC(=O)NCCCCCCNC(=O)c2ccc(-c3c4nc(c(-c5c(F)c(F)c(F)c(F)c5F)c5ccc([nH]5)c(-c5c(F)c(F)c(F)c(F)c5F)c5nc(c(-c6c(F)c(F)c(F)c(F)c6F)c6ccc3[nH]6)C=C5)C=C4)cc2)cc(-c2ccccc2)cc1-c1ccccc1
REMARK SMILES IDX 10 1 9 4 8 7 7 10 5 11 6 12 4 14 3 17 2 18 89 19 80 20 88 21
REMARK SMILES IDX 81 22 1 25 90 29 91 30 95 31 92 32 94 34 93 36 82 40 83 41
REMARK SMILES IDX 87 42 84 43 86 45 85 47 11 51 12 54 13 57 14 60 15 61 16 63
REMARK SMILES IDX 17 64 18 65 79 66 19 67 78 69 20 71 21 74 22 75 72 76 23 77
REMARK SMILES IDX 77 78 71 79 73 80 24 81 76 82 70 84 69 86 25 88 57 91 37 92
REMARK SMILES IDX 56 93 38 94 41 95 55 96 74 97 39 98 40 100 54 102 75 103
REMARK SMILES IDX 42 106 26 108 27 109 35 110 28 111 29 112 33 113 36 114
REMARK SMILES IDX 30 115 31 116 34 117 32 118 58 119 59 120 67 121 60 122
REMARK SMILES IDX 61 123 65 124 68 125 62 126 63 127 66 128 64 129 43 130
REMARK SMILES IDX 44 131 52 132 45 133 46 134 50 135 53 136 47 137 48 138
REMARK SMILES IDX 51 139 49 140
REMARK H PARENT 10 2 10 3 9 5 9 6 8 8 8 9 7 13 4 15 4 16 80 23 88 24 1 26 1 27
REMARK H PARENT 1 28 91 33 95 35 92 37 94 38 93 39 83 44 87 46 84 48 86 49
REMARK H PARENT 85 50 11 52 11 53 12 55 12 56 13 58 13 59 14 62 18 68 79 70
REMARK H PARENT 19 72 78 73 77 83 71 85 73 87 76 89 70 90 38 99 41 101 74 104
REMARK H PARENT 39 105 75 107
REMARK Flexibility Score: inf
ROOT
ATOM      1  C   UNL A   1      31.681  28.219  27.187  1.00  0.00    -0.052 C 
ATOM      2  H   UNL A   1      31.501  27.870  28.183  1.00  0.00     0.027 H 
ATOM      3  H   UNL A   1      30.813  28.585  26.679  1.00  0.00     0.027 H 
ENDROOT
BRANCH   1   4
ATOM      4  C   UNL A   1      32.164  27.025  26.354  1.00  0.00    -0.036 C 
ATOM      5  H   UNL A   1      32.734  27.403  25.531  1.00  0.00     0.028 H 
ATOM      6  H   UNL A   1      32.734  26.408  27.017  1.00  0.00     0.028 H 
BRANCH   4   7
ATOM      7  C   UNL A   1      31.053  26.137  25.794  1.00  0.00     0.017 C 
ATOM      8  H   UNL A   1      30.159  26.718  25.709  1.00  0.00     0.049 H 
ATOM      9  H   UNL A   1      31.380  25.772  24.842  1.00  0.00     0.049 H 
BRANCH   7  10
ATOM     10  N   UNL A   1      30.781  24.989  26.631  1.00  0.00    -0.356 N 
ATOM     11  C   UNL A   1      30.988  23.665  26.365  1.00  0.00     0.224 C 
ATOM     12  O   UNL A   1      30.708  22.844  27.243  1.00  0.00    -0.275 OA
ATOM     13  H   UNL A   1      30.393  25.189  27.514  1.00  0.00     0.163 HD
BRANCH  11  14
ATOM     14  C   UNL A   1      31.588  23.225  25.034  1.00  0.00     0.052 C 
ATOM     15  H   UNL A   1      30.844  22.675  24.495  1.00  0.00     0.042 H 
ATOM     16  H   UNL A   1      31.893  24.116  24.524  1.00  0.00     0.042 H 
BRANCH  14  17
ATOM     17  C   UNL A   1      32.824  22.352  25.168  1.00  0.00    -0.035 A 
ATOM     18  C   UNL A   1      34.115  22.857  25.473  1.00  0.00    -0.040 A 
ATOM     19  C   UNL A   1      35.215  21.960  25.525  1.00  0.00    -0.015 A 
ATOM     20  C   UNL A   1      32.647  20.966  24.983  1.00  0.00    -0.050 A 
ATOM     21  C   UNL A   1      34.987  20.583  25.310  1.00  0.00    -0.046 A 
ATOM     22  C   UNL A   1      33.713  20.065  25.052  1.00  0.00    -0.017 A 
ATOM     23  H   UNL A   1      31.700  20.605  24.789  1.00  0.00     0.063 H 
ATOM     24  H   UNL A   1      35.790  19.935  25.344  1.00  0.00     0.064 H 
BRANCH  18  25
ATOM     25  C   UNL A   1      34.310  24.324  25.797  1.00  0.00    -0.039 C 
ATOM     26  H   UNL A   1      33.447  24.875  25.487  1.00  0.00     0.028 H 
ATOM     27  H   UNL A   1      35.172  24.691  25.282  1.00  0.00     0.028 H 
ATOM     28  H   UNL A   1      34.448  24.441  26.851  1.00  0.00     0.028 H 
ENDBRANCH  18  25
BRANCH  19  29
ATOM     29  C   UNL A   1      36.607  22.397  25.762  1.00  0.00    -0.018 A 
ATOM     30  C   UNL A   1      36.876  23.717  26.165  1.00  0.00    -0.054 A 
ATOM     31  C   UNL A   1      37.692  21.523  25.594  1.00  0.00    -0.054 A 
ATOM     32  C   UNL A   1      38.183  24.144  26.408  1.00  0.00    -0.062 A 
ATOM     33  H   UNL A   1      36.094  24.381  26.283  1.00  0.00     0.063 H 
ATOM     34  C   UNL A   1      38.999  21.945  25.850  1.00  0.00    -0.062 A 
ATOM     35  H   UNL A   1      37.522  20.556  25.275  1.00  0.00     0.063 H 
ATOM     36  C   UNL A   1      39.243  23.255  26.258  1.00  0.00    -0.062 A 
ATOM     37  H   UNL A   1      38.362  25.118  26.699  1.00  0.00     0.062 H 
ATOM     38  H   UNL A   1      39.785  21.286  25.738  1.00  0.00     0.062 H 
ATOM     39  H   UNL A   1      40.209  23.565  26.447  1.00  0.00     0.062 H 
ENDBRANCH  19  29
BRANCH  22  40
ATOM     40  C   UNL A   1      33.491  18.622  24.877  1.00  0.00    -0.018 A 
ATOM     41  C   UNL A   1      32.649  17.906  25.744  1.00  0.00    -0.054 A 
ATOM     42  C   UNL A   1      34.140  17.915  23.852  1.00  0.00    -0.054 A 
ATOM     43  C   UNL A   1      32.469  16.529  25.595  1.00  0.00    -0.062 A 
ATOM     44  H   UNL A   1      32.157  18.404  26.502  1.00  0.00     0.063 H 
ATOM     45  C   UNL A   1      33.963  16.537  23.702  1.00  0.00    -0.062 A 
ATOM     46  H   UNL A   1      34.759  18.421  23.198  1.00  0.00     0.063 H 
ATOM     47  C   UNL A   1      33.127  15.844  24.575  1.00  0.00    -0.062 A 
ATOM     48  H   UNL A   1      31.846  16.017  26.240  1.00  0.00     0.062 H 
ATOM     49  H   UNL A   1      34.450  16.033  22.946  1.00  0.00     0.062 H 
ATOM     50  H   UNL A   1      32.997  14.826  24.468  1.00  0.00     0.062 H 
ENDBRANCH  22  40
ENDBRANCH  14  17
ENDBRANCH  11  14
ENDBRANCH   7  10
ENDBRANCH   4   7
ENDBRANCH   1   4
BRANCH   1  51
ATOM     51  C   UNL A   1      32.634  29.424  27.280  1.00  0.00    -0.052 C 
ATOM     52  H   UNL A   1      32.366  29.984  28.151  1.00  0.00     0.027 H 
ATOM     53  H   UNL A   1      32.513  29.953  26.358  1.00  0.00     0.027 H 
BRANCH  51  54
ATOM     54  C   UNL A   1      34.130  29.106  27.372  1.00  0.00    -0.036 C 
ATOM     55  H   UNL A   1      34.446  28.703  26.432  1.00  0.00     0.028 H 
ATOM     56  H   UNL A   1      34.247  28.413  28.180  1.00  0.00     0.028 H 
BRANCH  54  57
ATOM     57  C   UNL A   1      35.005  30.308  27.695  1.00  0.00     0.018 C 
ATOM     58  H   UNL A   1      35.583  30.547  26.827  1.00  0.00     0.049 H 
ATOM     59  H   UNL A   1      35.613  30.036  28.532  1.00  0.00     0.049 H 
BRANCH  57  60
ATOM     60  N   UNL A   1      34.254  31.496  28.087  1.00  0.00    -0.352 N 
ATOM     61  C   UNL A   1      34.560  32.450  29.040  1.00  0.00     0.251 C 
ATOM     62  H   UNL A   1      33.409  31.640  27.603  1.00  0.00     0.163 HD
ATOM     63  O   UNL A   1      33.788  33.367  29.271  1.00  0.00    -0.269 OA
BRANCH  61  64
ATOM     64  C   UNL A   1      35.894  32.422  29.685  1.00  0.00     0.039 A 
ATOM     65  C   UNL A   1      36.901  33.225  29.135  1.00  0.00    -0.049 A 
ATOM     66  C   UNL A   1      36.199  31.486  30.669  1.00  0.00    -0.049 A 
ATOM     67  C   UNL A   1      38.234  32.919  29.395  1.00  0.00    -0.053 A 
ATOM     68  H   UNL A   1      36.657  34.035  28.543  1.00  0.00     0.063 H 
ATOM     69  C   UNL A   1      37.518  31.124  30.862  1.00  0.00    -0.053 A 
ATOM     70  H   UNL A   1      35.451  31.070  31.246  1.00  0.00     0.063 H 
ATOM     71  C   UNL A   1      38.529  31.796  30.170  1.00  0.00    -0.014 A 
ATOM     72  H   UNL A   1      38.991  33.512  29.022  1.00  0.00     0.063 H 
ATOM     73  H   UNL A   1      37.756  30.360  31.514  1.00  0.00     0.063 H 
BRANCH  71  74
ATOM     74  C   UNL A   1      39.853  31.189  30.200  1.00  0.00     0.031 A 
ATOM     75  C   UNL A   1      40.131  29.949  29.452  1.00  0.00     0.074 A 
ATOM     76  C   UNL A   1      40.838  31.801  30.892  1.00  0.00     0.049 A 
ATOM     77  N   UNL A   1      41.019  29.078  29.795  1.00  0.00    -0.248 NA
ATOM     78  C   UNL A   1      39.386  29.578  28.257  1.00  0.00    -0.034 C 
ATOM     79  C   UNL A   1      42.263  31.484  30.876  1.00  0.00    -0.036 A 
ATOM     80  N   UNL A   1      40.697  32.737  31.932  1.00  0.00    -0.354 N 
ATOM     81  C   UNL A   1      41.145  28.178  28.761  1.00  0.00     0.074 A 
ATOM     82  C   UNL A   1      40.064  28.498  27.855  1.00  0.00    -0.034 C 
ATOM     83  H   UNL A   1      38.557  30.025  27.835  1.00  0.00     0.065 H 
ATOM     84  C   UNL A   1      42.821  31.953  32.004  1.00  0.00    -0.036 A 
ATOM     85  H   UNL A   1      42.760  30.983  30.123  1.00  0.00     0.065 H 
ATOM     86  C   UNL A   1      41.744  32.457  32.839  1.00  0.00     0.049 A 
ATOM     87  H   UNL A   1      40.013  33.440  32.011  1.00  0.00     0.167 HD
ATOM     88  C   UNL A   1      42.230  27.350  28.717  1.00  0.00     0.037 A 
ATOM     89  H   UNL A   1      39.845  27.960  27.002  1.00  0.00     0.065 H 
ATOM     90  H   UNL A   1      43.827  31.955  32.235  1.00  0.00     0.065 H 
ATOM     91  C   UNL A   1      41.489  32.052  34.116  1.00  0.00     0.037 A 
ATOM     92  C   UNL A   1      43.099  27.555  29.872  1.00  0.00     0.049 A 
ATOM     93  C   UNL A   1      42.085  30.709  34.460  1.00  0.00     0.074 A 
ATOM     94  C   UNL A   1      44.236  28.329  30.045  1.00  0.00    -0.036 A 
ATOM     95  N   UNL A   1      42.672  27.189  31.144  1.00  0.00    -0.354 N 
ATOM     96  N   UNL A   1      42.426  29.819  33.572  1.00  0.00    -0.248 NA
ATOM     97  C   UNL A   1      42.293  30.247  35.830  1.00  0.00    -0.034 C 
ATOM     98  C   UNL A   1      44.463  28.473  31.434  1.00  0.00    -0.036 A 
ATOM     99  H   UNL A   1      44.815  28.730  29.292  1.00  0.00     0.065 H 
ATOM    100  C   UNL A   1      43.478  27.770  32.105  1.00  0.00     0.049 A 
ATOM    101  H   UNL A   1      41.905  26.601  31.333  1.00  0.00     0.167 HD
ATOM    102  C   UNL A   1      42.857  28.686  34.211  1.00  0.00     0.074 A 
ATOM    103  C   UNL A   1      42.774  29.010  35.622  1.00  0.00    -0.034 C 
ATOM    104  H   UNL A   1      42.118  30.740  36.720  1.00  0.00     0.065 H 
ATOM    105  H   UNL A   1      45.230  29.008  31.870  1.00  0.00     0.065 H 
ATOM    106  C   UNL A   1      43.233  27.570  33.523  1.00  0.00     0.037 A 
ATOM    107  H   UNL A   1      43.053  28.365  36.380  1.00  0.00     0.065 H 
BRANCH  88 108
ATOM    108  C   UNL A   1      42.663  26.606  27.471  1.00  0.00     0.064 A 
ATOM    109  C   UNL A   1      42.301  25.254  27.268  1.00  0.00     0.173 A 
ATOM    110  C   UNL A   1      43.489  27.148  26.470  1.00  0.00     0.173 A 
ATOM    111  F   UNL A   1      41.414  24.638  28.059  1.00  0.00    -0.203 F 
ATOM    112  C   UNL A   1      42.843  24.477  26.241  1.00  0.00     0.198 A 
ATOM    113  C   UNL A   1      44.076  26.358  25.475  1.00  0.00     0.198 A 
ATOM    114  F   UNL A   1      43.713  28.466  26.397  1.00  0.00    -0.203 F 
ATOM    115  F   UNL A   1      42.475  23.195  26.113  1.00  0.00    -0.200 F 
ATOM    116  C   UNL A   1      43.767  25.017  25.372  1.00  0.00     0.200 A 
ATOM    117  F   UNL A   1      44.949  26.908  24.618  1.00  0.00    -0.200 F 
ATOM    118  F   UNL A   1      44.333  24.259  24.424  1.00  0.00    -0.200 F 
ENDBRANCH  88 108
BRANCH  91 119
ATOM    119  C   UNL A   1      40.203  32.561  34.659  1.00  0.00     0.064 A 
ATOM    120  C   UNL A   1      40.166  33.861  35.198  1.00  0.00     0.173 A 
ATOM    121  C   UNL A   1      38.981  31.956  34.343  1.00  0.00     0.173 A 
ATOM    122  F   UNL A   1      41.311  34.486  35.518  1.00  0.00    -0.203 F 
ATOM    123  C   UNL A   1      38.970  34.566  35.308  1.00  0.00     0.198 A 
ATOM    124  C   UNL A   1      37.782  32.661  34.469  1.00  0.00     0.198 A 
ATOM    125  F   UNL A   1      38.949  30.725  33.812  1.00  0.00    -0.203 F 
ATOM    126  F   UNL A   1      38.982  35.841  35.723  1.00  0.00    -0.200 F 
ATOM    127  C   UNL A   1      37.781  33.974  34.919  1.00  0.00     0.200 A 
ATOM    128  F   UNL A   1      36.634  32.097  34.067  1.00  0.00    -0.200 F 
ATOM    129  F   UNL A   1      36.641  34.678  34.940  1.00  0.00    -0.200 F 
ENDBRANCH  91 119
BRANCH 106 130
ATOM    130  C   UNL A   1      43.510  26.223  34.136  1.00  0.00     0.064 A 
ATOM    131  C   UNL A   1      42.535  25.451  34.786  1.00  0.00     0.173 A 
ATOM    132  C   UNL A   1      44.767  25.600  33.954  1.00  0.00     0.173 A 
ATOM    133  F   UNL A   1      41.274  25.887  34.913  1.00  0.00    -0.203 F 
ATOM    134  C   UNL A   1      42.814  24.175  35.281  1.00  0.00     0.198 A 
ATOM    135  C   UNL A   1      45.026  24.305  34.401  1.00  0.00     0.198 A 
ATOM    136  F   UNL A   1      45.770  26.222  33.318  1.00  0.00    -0.203 F 
ATOM    137  F   UNL A   1      41.862  23.493  35.933  1.00  0.00    -0.200 F 
ATOM    138  C   UNL A   1      44.055  23.599  35.080  1.00  0.00     0.200 A 
ATOM    139  F   UNL A   1      46.217  23.741  34.155  1.00  0.00    -0.200 F 
ATOM    140  F   UNL A   1      44.306  22.360  35.522  1.00  0.00    -0.200 F 
ENDBRANCH 106 130
ENDBRANCH  71  74
ENDBRANCH  61  64
ENDBRANCH  57  60
ENDBRANCH  54  57
ENDBRANCH  51  54
ENDBRANCH   1  51
TORSDOF 17
ENDMDL
MODEL 9
REMARK VINA RESULT:     -12.8      2.768      5.245
REMARK SMILES Cc1c(CC(=O)NCCCCCCNC(=O)c2ccc(-c3c4nc(c(-c5c(F)c(F)c(F)c(F)c5F)c5ccc([nH]5)c(-c5c(F)c(F)c(F)c(F)c5F)c5nc(c(-c6c(F)c(F)c(F)c(F)c6F)c6ccc3[nH]6)C=C5)C=C4)cc2)cc(-c2ccccc2)cc1-c1ccccc1
REMARK SMILES IDX 10 1 9 4 8 7 7 10 5 11 6 12 4 14 3 17 2 18 89 19 80 20 88 21
REMARK SMILES IDX 81 22 1 25 90 29 91 30 95 31 92 32 94 34 93 36 82 40 83 41
REMARK SMILES IDX 87 42 84 43 86 45 85 47 11 51 12 54 13 57 14 60 15 61 16 63
REMARK SMILES IDX 17 64 18 65 79 66 19 67 78 69 20 71 21 74 22 75 72 76 23 77
REMARK SMILES IDX 77 78 71 79 73 80 24 81 76 82 70 84 69 86 25 88 57 91 37 92
REMARK SMILES IDX 56 93 38 94 41 95 55 96 74 97 39 98 40 100 54 102 75 103
REMARK SMILES IDX 42 106 26 108 27 109 35 110 28 111 29 112 33 113 36 114
REMARK SMILES IDX 30 115 31 116 34 117 32 118 58 119 59 120 67 121 60 122
REMARK SMILES IDX 61 123 65 124 68 125 62 126 63 127 66 128 64 129 43 130
REMARK SMILES IDX 44 131 52 132 45 133 46 134 50 135 53 136 47 137 48 138
REMARK SMILES IDX 51 139 49 140
REMARK H PARENT 10 2 10 3 9 5 9 6 8 8 8 9 7 13 4 15 4 16 80 23 88 24 1 26 1 27
REMARK H PARENT 1 28 91 33 95 35 92 37 94 38 93 39 83 44 87 46 84 48 86 49
REMARK H PARENT 85 50 11 52 11 53 12 55 12 56 13 58 13 59 14 62 18 68 79 70
REMARK H PARENT 19 72 78 73 77 83 71 85 73 87 76 89 70 90 38 99 41 101 74 104
REMARK H PARENT 39 105 75 107
REMARK Flexibility Score: inf
ROOT
ATOM      1  C   UNL A   1      34.650  32.350  28.116  1.00  0.00    -0.052 C 
ATOM      2  H   UNL A   1      34.375  32.315  29.150  1.00  0.00     0.027 H 
ATOM      3  H   UNL A   1      33.948  31.892  27.452  1.00  0.00     0.027 H 
ENDROOT
BRANCH   1   4
ATOM      4  C   UNL A   1      35.947  31.547  27.952  1.00  0.00    -0.036 C 
ATOM      5  H   UNL A   1      36.390  31.819  27.016  1.00  0.00     0.028 H 
ATOM      6  H   UNL A   1      36.558  31.789  28.796  1.00  0.00     0.028 H 
BRANCH   4   7
ATOM      7  C   UNL A   1      35.773  30.028  27.971  1.00  0.00     0.017 C 
ATOM      8  H   UNL A   1      36.131  29.631  27.044  1.00  0.00     0.049 H 
ATOM      9  H   UNL A   1      36.328  29.650  28.804  1.00  0.00     0.049 H 
BRANCH   7  10
ATOM     10  N   UNL A   1      34.394  29.627  28.145  1.00  0.00    -0.356 N 
ATOM     11  C   UNL A   1      33.553  29.038  27.244  1.00  0.00     0.224 C 
ATOM     12  O   UNL A   1      32.412  28.750  27.615  1.00  0.00    -0.275 OA
ATOM     13  H   UNL A   1      34.010  29.802  29.034  1.00  0.00     0.163 HD
BRANCH  11  14
ATOM     14  C   UNL A   1      34.031  28.711  25.833  1.00  0.00     0.052 C 
ATOM     15  H   UNL A   1      34.205  29.631  25.316  1.00  0.00     0.042 H 
ATOM     16  H   UNL A   1      34.918  28.121  25.938  1.00  0.00     0.042 H 
BRANCH  14  17
ATOM     17  C   UNL A   1      33.050  27.884  25.021  1.00  0.00    -0.035 A 
ATOM     18  C   UNL A   1      33.146  26.476  24.867  1.00  0.00    -0.040 A 
ATOM     19  C   UNL A   1      32.204  25.804  24.041  1.00  0.00    -0.015 A 
ATOM     20  C   UNL A   1      31.989  28.578  24.405  1.00  0.00    -0.050 A 
ATOM     21  C   UNL A   1      31.174  26.551  23.430  1.00  0.00    -0.046 A 
ATOM     22  C   UNL A   1      31.040  27.932  23.609  1.00  0.00    -0.017 A 
ATOM     23  H   UNL A   1      31.912  29.598  24.546  1.00  0.00     0.063 H 
ATOM     24  H   UNL A   1      30.493  26.060  22.828  1.00  0.00     0.064 H 
BRANCH  18  25
ATOM     25  C   UNL A   1      34.202  25.690  25.616  1.00  0.00    -0.039 C 
ATOM     26  H   UNL A   1      34.943  25.343  24.926  1.00  0.00     0.028 H 
ATOM     27  H   UNL A   1      33.746  24.855  26.103  1.00  0.00     0.028 H 
ATOM     28  H   UNL A   1      34.663  26.322  26.346  1.00  0.00     0.028 H 
ENDBRANCH  18  25
BRANCH  19  29
ATOM     29  C   UNL A   1      32.262  24.355  23.760  1.00  0.00    -0.018 A 
ATOM     30  C   UNL A   1      31.708  23.434  24.666  1.00  0.00    -0.054 A 
ATOM     31  C   UNL A   1      32.867  23.854  22.596  1.00  0.00    -0.054 A 
ATOM     32  C   UNL A   1      31.741  22.061  24.411  1.00  0.00    -0.062 A 
ATOM     33  H   UNL A   1      31.269  23.778  25.535  1.00  0.00     0.063 H 
ATOM     34  C   UNL A   1      32.888  22.483  22.332  1.00  0.00    -0.062 A 
ATOM     35  H   UNL A   1      33.303  24.509  21.927  1.00  0.00     0.063 H 
ATOM     36  C   UNL A   1      32.325  21.588  23.239  1.00  0.00    -0.062 A 
ATOM     37  H   UNL A   1      31.333  21.399  25.089  1.00  0.00     0.062 H 
ATOM     38  H   UNL A   1      33.322  22.132  21.464  1.00  0.00     0.062 H 
ATOM     39  H   UNL A   1      32.341  20.575  23.043  1.00  0.00     0.062 H 
ENDBRANCH  19  29
BRANCH  22  40
ATOM     40  C   UNL A   1      29.933  28.683  22.999  1.00  0.00    -0.018 A 
ATOM     41  C   UNL A   1      30.176  29.762  22.133  1.00  0.00    -0.054 A 
ATOM     42  C   UNL A   1      28.598  28.360  23.293  1.00  0.00    -0.054 A 
ATOM     43  C   UNL A   1      29.121  30.495  21.584  1.00  0.00    -0.062 A 
ATOM     44  H   UNL A   1      31.149  30.017  21.899  1.00  0.00     0.063 H 
ATOM     45  C   UNL A   1      27.542  29.093  22.747  1.00  0.00    -0.062 A 
ATOM     46  H   UNL A   1      28.394  27.566  23.922  1.00  0.00     0.063 H 
ATOM     47  C   UNL A   1      27.805  30.162  21.893  1.00  0.00    -0.062 A 
ATOM     48  H   UNL A   1      29.318  31.285  20.948  1.00  0.00     0.062 H 
ATOM     49  H   UNL A   1      26.567  28.843  22.976  1.00  0.00     0.062 H 
ATOM     50  H   UNL A   1      27.026  30.707  21.491  1.00  0.00     0.062 H 
ENDBRANCH  22  40
ENDBRANCH  14  17
ENDBRANCH  11  14
ENDBRANCH   7  10
ENDBRANCH   4   7
ENDBRANCH   1   4
BRANCH   1  51
ATOM     51  C   UNL A   1      34.699  33.830  27.696  1.00  0.00    -0.052 C 
ATOM     52  H   UNL A   1      34.089  33.940  26.824  1.00  0.00     0.027 H 
ATOM     53  H   UNL A   1      35.735  34.047  27.542  1.00  0.00     0.027 H 
BRANCH  51  54
ATOM     54  C   UNL A   1      34.220  34.851  28.733  1.00  0.00    -0.036 C 
ATOM     55  H   UNL A   1      33.342  35.330  28.350  1.00  0.00     0.028 H 
ATOM     56  H   UNL A   1      35.029  35.533  28.890  1.00  0.00     0.028 H 
BRANCH  54  57
ATOM     57  C   UNL A   1      33.882  34.249  30.089  1.00  0.00     0.018 C 
ATOM     58  H   UNL A   1      34.148  33.213  30.075  1.00  0.00     0.049 H 
ATOM     59  H   UNL A   1      32.835  34.402  30.247  1.00  0.00     0.049 H 
BRANCH  57  60
ATOM     60  N   UNL A   1      34.574  34.885  31.205  1.00  0.00    -0.352 N 
ATOM     61  C   UNL A   1      35.801  34.578  31.765  1.00  0.00     0.251 C 
ATOM     62  H   UNL A   1      34.100  35.643  31.618  1.00  0.00     0.163 HD
ATOM     63  O   UNL A   1      36.214  35.195  32.734  1.00  0.00    -0.269 OA
BRANCH  61  64
ATOM     64  C   UNL A   1      36.668  33.580  31.094  1.00  0.00     0.039 A 
ATOM     65  C   UNL A   1      36.687  32.280  31.613  1.00  0.00    -0.049 A 
ATOM     66  C   UNL A   1      37.583  33.962  30.117  1.00  0.00    -0.049 A 
ATOM     67  C   UNL A   1      37.767  31.449  31.331  1.00  0.00    -0.053 A 
ATOM     68  H   UNL A   1      35.906  31.941  32.198  1.00  0.00     0.063 H 
ATOM     69  C   UNL A   1      38.699  33.177  29.903  1.00  0.00    -0.053 A 
ATOM     70  H   UNL A   1      37.430  34.818  29.561  1.00  0.00     0.063 H 
ATOM     71  C   UNL A   1      38.822  31.952  30.566  1.00  0.00    -0.014 A 
ATOM     72  H   UNL A   1      37.790  30.479  31.681  1.00  0.00     0.063 H 
ATOM     73  H   UNL A   1      39.440  33.492  29.258  1.00  0.00     0.063 H 
BRANCH  71  74
ATOM     74  C   UNL A   1      40.131  31.315  30.519  1.00  0.00     0.031 A 
ATOM     75  C   UNL A   1      40.345  30.091  29.724  1.00  0.00     0.074 A 
ATOM     76  C   UNL A   1      41.160  31.884  31.184  1.00  0.00     0.049 A 
ATOM     77  N   UNL A   1      41.227  29.190  30.002  1.00  0.00    -0.248 NA
ATOM     78  C   UNL A   1      39.539  29.772  28.554  1.00  0.00    -0.034 C 
ATOM     79  C   UNL A   1      42.575  31.535  31.094  1.00  0.00    -0.036 A 
ATOM     80  N   UNL A   1      41.088  32.791  32.254  1.00  0.00    -0.354 N 
ATOM     81  C   UNL A   1      41.285  28.318  28.939  1.00  0.00     0.074 A 
ATOM     82  C   UNL A   1      40.173  28.690  28.091  1.00  0.00    -0.034 C 
ATOM     83  H   UNL A   1      38.704  30.251  28.183  1.00  0.00     0.065 H 
ATOM     84  C   UNL A   1      43.194  31.957  32.209  1.00  0.00    -0.036 A 
ATOM     85  H   UNL A   1      43.026  31.044  30.305  1.00  0.00     0.065 H 
ATOM     86  C   UNL A   1      42.167  32.461  33.105  1.00  0.00     0.049 A 
ATOM     87  H   UNL A   1      40.425  33.507  32.384  1.00  0.00     0.167 HD
ATOM     88  C   UNL A   1      42.347  27.468  28.822  1.00  0.00     0.037 A 
ATOM     89  H   UNL A   1      39.904  28.182  27.234  1.00  0.00     0.065 H 
ATOM     90  H   UNL A   1      44.208  31.929  32.394  1.00  0.00     0.065 H 
ATOM     91  C   UNL A   1      41.959  32.024  34.381  1.00  0.00     0.037 A 
ATOM     92  C   UNL A   1      43.271  27.619  29.943  1.00  0.00     0.049 A 
ATOM     93  C   UNL A   1      42.538  30.659  34.659  1.00  0.00     0.074 A 
ATOM     94  C   UNL A   1      44.432  28.361  30.086  1.00  0.00    -0.036 A 
ATOM     95  N   UNL A   1      42.891  27.226  31.222  1.00  0.00    -0.354 N 
ATOM     96  N   UNL A   1      42.817  29.788  33.731  1.00  0.00    -0.248 NA
ATOM     97  C   UNL A   1      42.795  30.152  36.004  1.00  0.00    -0.034 C 
ATOM     98  C   UNL A   1      44.724  28.459  31.467  1.00  0.00    -0.036 A 
ATOM     99  H   UNL A   1      44.988  28.771  29.320  1.00  0.00     0.065 H 
ATOM    100  C   UNL A   1      43.753  27.759  32.162  1.00  0.00     0.049 A 
ATOM    101  H   UNL A   1      42.120  26.650  31.428  1.00  0.00     0.167 HD
ATOM    102  C   UNL A   1      43.249  28.627  34.318  1.00  0.00     0.074 A 
ATOM    103  C   UNL A   1      43.236  28.910  35.741  1.00  0.00    -0.034 C 
ATOM    104  H   UNL A   1      42.671  30.623  36.915  1.00  0.00     0.065 H 
ATOM    105  H   UNL A   1      45.522  28.963  31.883  1.00  0.00     0.065 H 
ATOM    106  C   UNL A   1      43.566  27.523  33.583  1.00  0.00     0.037 A 
ATOM    107  H   UNL A   1      43.532  28.238  36.466  1.00  0.00     0.065 H 
BRANCH  88 108
ATOM    108  C   UNL A   1      42.706  26.750  27.538  1.00  0.00     0.064 A 
ATOM    109  C   UNL A   1      42.137  25.496  27.221  1.00  0.00     0.173 A 
ATOM    110  C   UNL A   1      43.652  27.216  26.608  1.00  0.00     0.173 A 
ATOM    111  F   UNL A   1      41.127  24.983  27.934  1.00  0.00    -0.203 F 
ATOM    112  C   UNL A   1      42.589  24.713  26.155  1.00  0.00     0.198 A 
ATOM    113  C   UNL A   1      44.145  26.411  25.575  1.00  0.00     0.198 A 
ATOM    114  F   UNL A   1      44.092  28.481  26.643  1.00  0.00    -0.203 F 
ATOM    115  F   UNL A   1      42.021  23.522  25.918  1.00  0.00    -0.200 F 
ATOM    116  C   UNL A   1      43.626  25.151  25.360  1.00  0.00     0.200 A 
ATOM    117  F   UNL A   1      45.133  26.866  24.790  1.00  0.00    -0.200 F 
ATOM    118  F   UNL A   1      44.101  24.377  24.375  1.00  0.00    -0.200 F 
ENDBRANCH  88 108
BRANCH  91 119
ATOM    119  C   UNL A   1      40.711  32.546  34.995  1.00  0.00     0.064 A 
ATOM    120  C   UNL A   1      40.687  33.881  35.442  1.00  0.00     0.173 A 
ATOM    121  C   UNL A   1      39.483  31.897  34.829  1.00  0.00     0.173 A 
ATOM    122  F   UNL A   1      41.838  34.550  35.617  1.00  0.00    -0.203 F 
ATOM    123  C   UNL A   1      39.487  34.569  35.604  1.00  0.00     0.198 A 
ATOM    124  C   UNL A   1      38.281  32.586  35.007  1.00  0.00     0.198 A 
ATOM    125  F   UNL A   1      39.437  30.630  34.390  1.00  0.00    -0.203 F 
ATOM    126  F   UNL A   1      39.501  35.871  35.926  1.00  0.00    -0.200 F 
ATOM    127  C   UNL A   1      38.285  33.928  35.362  1.00  0.00     0.200 A 
ATOM    128  F   UNL A   1      37.117  31.972  34.747  1.00  0.00    -0.200 F 
ATOM    129  F   UNL A   1      37.133  34.609  35.432  1.00  0.00    -0.200 F 
ENDBRANCH  91 119
BRANCH 106 130
ATOM    130  C   UNL A   1      43.838  26.153  34.144  1.00  0.00     0.064 A 
ATOM    131  C   UNL A   1      45.118  25.579  34.203  1.00  0.00     0.173 A 
ATOM    132  C   UNL A   1      42.807  25.423  34.780  1.00  0.00     0.173 A 
ATOM    133  F   UNL A   1      46.194  26.231  33.740  1.00  0.00    -0.203 F 
ATOM    134  C   UNL A   1      45.341  24.333  34.794  1.00  0.00     0.198 A 
ATOM    135  C   UNL A   1      43.043  24.205  35.416  1.00  0.00     0.198 A 
ATOM    136  F   UNL A   1      41.548  25.882  34.819  1.00  0.00    -0.203 F 
ATOM    137  F   UNL A   1      46.573  23.807  34.789  1.00  0.00    -0.200 F 
ATOM    138  C   UNL A   1      44.307  23.651  35.409  1.00  0.00     0.200 A 
ATOM    139  F   UNL A   1      42.040  23.580  36.051  1.00  0.00    -0.200 F 
ATOM    140  F   UNL A   1      44.532  22.476  36.009  1.00  0.00    -0.200 F 
ENDBRANCH 106 130
ENDBRANCH  71  74
ENDBRANCH  61  64
ENDBRANCH  57  60
ENDBRANCH  54  57
ENDBRANCH  51  54
ENDBRANCH   1  51
TORSDOF 17
ENDMDL
MODEL 10
REMARK VINA RESULT:     -12.8      3.479      6.418
REMARK SMILES Cc1c(CC(=O)NCCCCCCNC(=O)c2ccc(-c3c4nc(c(-c5c(F)c(F)c(F)c(F)c5F)c5ccc([nH]5)c(-c5c(F)c(F)c(F)c(F)c5F)c5nc(c(-c6c(F)c(F)c(F)c(F)c6F)c6ccc3[nH]6)C=C5)C=C4)cc2)cc(-c2ccccc2)cc1-c1ccccc1
REMARK SMILES IDX 10 1 9 4 8 7 7 10 5 11 6 12 4 14 3 17 2 18 89 19 80 20 88 21
REMARK SMILES IDX 81 22 1 25 90 29 91 30 95 31 92 32 94 34 93 36 82 40 83 41
REMARK SMILES IDX 87 42 84 43 86 45 85 47 11 51 12 54 13 57 14 60 15 61 16 63
REMARK SMILES IDX 17 64 18 65 79 66 19 67 78 69 20 71 21 74 22 75 72 76 23 77
REMARK SMILES IDX 77 78 71 79 73 80 24 81 76 82 70 84 69 86 25 88 57 91 37 92
REMARK SMILES IDX 56 93 38 94 41 95 55 96 74 97 39 98 40 100 54 102 75 103
REMARK SMILES IDX 42 106 26 108 27 109 35 110 28 111 29 112 33 113 36 114
REMARK SMILES IDX 30 115 31 116 34 117 32 118 58 119 59 120 67 121 60 122
REMARK SMILES IDX 61 123 65 124 68 125 62 126 63 127 66 128 64 129 43 130
REMARK SMILES IDX 44 131 52 132 45 133 46 134 50 135 53 136 47 137 48 138
REMARK SMILES IDX 51 139 49 140
REMARK H PARENT 10 2 10 3 9 5 9 6 8 8 8 9 7 13 4 15 4 16 80 23 88 24 1 26 1 27
REMARK H PARENT 1 28 91 33 95 35 92 37 94 38 93 39 83 44 87 46 84 48 86 49
REMARK H PARENT 85 50 11 52 11 53 12 55 12 56 13 58 13 59 14 62 18 68 79 70
REMARK H PARENT 19 72 78 73 77 83 71 85 73 87 76 89 70 90 38 99 41 101 74 104
REMARK H PARENT 39 105 75 107
REMARK Flexibility Score: inf
ROOT
ATOM      1  C   UNL A   1      34.943  34.318  28.206  1.00  0.00    -0.052 C 
ATOM      2  H   UNL A   1      35.004  34.231  27.141  1.00  0.00     0.027 H 
ATOM      3  H   UNL A   1      35.889  34.347  28.705  1.00  0.00     0.027 H 
ENDROOT
BRANCH   1   4
ATOM      4  C   UNL A   1      34.244  33.060  28.737  1.00  0.00    -0.036 C 
ATOM      5  H   UNL A   1      34.876  32.618  29.480  1.00  0.00     0.028 H 
ATOM      6  H   UNL A   1      33.299  33.381  29.121  1.00  0.00     0.028 H 
BRANCH   4   7
ATOM      7  C   UNL A   1      33.938  31.997  27.682  1.00  0.00     0.017 C 
ATOM      8  H   UNL A   1      33.083  31.436  27.998  1.00  0.00     0.049 H 
ATOM      9  H   UNL A   1      33.760  32.502  26.756  1.00  0.00     0.049 H 
BRANCH   7  10
ATOM     10  N   UNL A   1      35.040  31.082  27.475  1.00  0.00    -0.356 N 
ATOM     11  C   UNL A   1      35.023  29.716  27.432  1.00  0.00     0.224 C 
ATOM     12  O   UNL A   1      36.086  29.129  27.211  1.00  0.00    -0.275 OA
ATOM     13  H   UNL A   1      35.921  31.501  27.348  1.00  0.00     0.163 HD
BRANCH  11  14
ATOM     14  C   UNL A   1      33.718  28.949  27.609  1.00  0.00     0.052 C 
ATOM     15  H   UNL A   1      33.878  28.177  28.334  1.00  0.00     0.042 H 
ATOM     16  H   UNL A   1      32.982  29.661  27.920  1.00  0.00     0.042 H 
BRANCH  14  17
ATOM     17  C   UNL A   1      33.196  28.308  26.335  1.00  0.00    -0.035 A 
ATOM     18  C   UNL A   1      32.156  28.863  25.543  1.00  0.00    -0.040 A 
ATOM     19  C   UNL A   1      31.707  28.155  24.396  1.00  0.00    -0.015 A 
ATOM     20  C   UNL A   1      33.802  27.100  25.935  1.00  0.00    -0.050 A 
ATOM     21  C   UNL A   1      32.334  26.939  24.052  1.00  0.00    -0.046 A 
ATOM     22  C   UNL A   1      33.389  26.402  24.798  1.00  0.00    -0.017 A 
ATOM     23  H   UNL A   1      34.576  26.719  26.502  1.00  0.00     0.063 H 
ATOM     24  H   UNL A   1      32.002  26.425  23.220  1.00  0.00     0.064 H 
BRANCH  18  25
ATOM     25  C   UNL A   1      31.572  30.219  25.882  1.00  0.00    -0.039 C 
ATOM     26  H   UNL A   1      30.550  30.103  26.176  1.00  0.00     0.028 H 
ATOM     27  H   UNL A   1      31.628  30.855  25.025  1.00  0.00     0.028 H 
ATOM     28  H   UNL A   1      32.127  30.654  26.687  1.00  0.00     0.028 H 
ENDBRANCH  18  25
BRANCH  19  29
ATOM     29  C   UNL A   1      30.585  28.613  23.551  1.00  0.00    -0.018 A 
ATOM     30  C   UNL A   1      29.289  28.106  23.758  1.00  0.00    -0.054 A 
ATOM     31  C   UNL A   1      30.770  29.553  22.525  1.00  0.00    -0.054 A 
ATOM     32  C   UNL A   1      28.214  28.536  22.978  1.00  0.00    -0.062 A 
ATOM     33  H   UNL A   1      29.131  27.404  24.497  1.00  0.00     0.063 H 
ATOM     34  C   UNL A   1      29.693  29.995  21.754  1.00  0.00    -0.062 A 
ATOM     35  H   UNL A   1      31.716  29.922  22.338  1.00  0.00     0.063 H 
ATOM     36  C   UNL A   1      28.416  29.487  21.981  1.00  0.00    -0.062 A 
ATOM     37  H   UNL A   1      27.270  28.151  23.140  1.00  0.00     0.062 H 
ATOM     38  H   UNL A   1      29.843  30.700  21.015  1.00  0.00     0.062 H 
ATOM     39  H   UNL A   1      27.620  29.815  21.411  1.00  0.00     0.062 H 
ENDBRANCH  19  29
BRANCH  22  40
ATOM     40  C   UNL A   1      34.059  25.156  24.397  1.00  0.00    -0.018 A 
ATOM     41  C   UNL A   1      35.094  24.604  25.170  1.00  0.00    -0.054 A 
ATOM     42  C   UNL A   1      33.701  24.499  23.208  1.00  0.00    -0.054 A 
ATOM     43  C   UNL A   1      35.751  23.440  24.767  1.00  0.00    -0.062 A 
ATOM     44  H   UNL A   1      35.372  25.067  26.050  1.00  0.00     0.063 H 
ATOM     45  C   UNL A   1      34.358  23.335  22.801  1.00  0.00    -0.062 A 
ATOM     46  H   UNL A   1      32.938  24.881  22.625  1.00  0.00     0.063 H 
ATOM     47  C   UNL A   1      35.385  22.807  23.581  1.00  0.00    -0.062 A 
ATOM     48  H   UNL A   1      36.508  23.047  25.348  1.00  0.00     0.062 H 
ATOM     49  H   UNL A   1      34.084  22.867  21.924  1.00  0.00     0.062 H 
ATOM     50  H   UNL A   1      35.873  21.949  23.281  1.00  0.00     0.062 H 
ENDBRANCH  22  40
ENDBRANCH  14  17
ENDBRANCH  11  14
ENDBRANCH   7  10
ENDBRANCH   4   7
ENDBRANCH   1   4
BRANCH   1  51
ATOM     51  C   UNL A   1      34.273  35.665  28.528  1.00  0.00    -0.052 C 
ATOM     52  H   UNL A   1      33.861  36.048  27.618  1.00  0.00     0.027 H 
ATOM     53  H   UNL A   1      35.044  36.271  28.955  1.00  0.00     0.027 H 
BRANCH  51  54
ATOM     54  C   UNL A   1      33.152  35.637  29.573  1.00  0.00    -0.036 C 
ATOM     55  H   UNL A   1      32.622  34.713  29.471  1.00  0.00     0.028 H 
ATOM     56  H   UNL A   1      32.535  36.491  29.384  1.00  0.00     0.028 H 
BRANCH  54  57
ATOM     57  C   UNL A   1      33.637  35.754  31.010  1.00  0.00     0.018 C 
ATOM     58  H   UNL A   1      33.416  36.740  31.362  1.00  0.00     0.049 H 
ATOM     59  H   UNL A   1      34.687  35.546  31.003  1.00  0.00     0.049 H 
BRANCH  57  60
ATOM     60  N   UNL A   1      33.022  34.795  31.920  1.00  0.00    -0.352 N 
ATOM     61  C   UNL A   1      33.620  33.826  32.706  1.00  0.00     0.251 C 
ATOM     62  H   UNL A   1      32.041  34.844  31.986  1.00  0.00     0.163 HD
ATOM     63  O   UNL A   1      32.942  33.071  33.385  1.00  0.00    -0.269 OA
BRANCH  61  64
ATOM     64  C   UNL A   1      35.098  33.800  32.817  1.00  0.00     0.039 A 
ATOM     65  C   UNL A   1      35.838  34.414  31.800  1.00  0.00    -0.049 A 
ATOM     66  C   UNL A   1      35.734  33.024  33.781  1.00  0.00    -0.049 A 
ATOM     67  C   UNL A   1      37.169  34.051  31.612  1.00  0.00    -0.053 A 
ATOM     68  H   UNL A   1      35.402  35.129  31.195  1.00  0.00     0.063 H 
ATOM     69  C   UNL A   1      37.027  32.595  33.548  1.00  0.00    -0.053 A 
ATOM     70  H   UNL A   1      35.249  32.773  34.657  1.00  0.00     0.063 H 
ATOM     71  C   UNL A   1      37.717  33.056  32.424  1.00  0.00    -0.014 A 
ATOM     72  H   UNL A   1      37.741  34.509  30.886  1.00  0.00     0.063 H 
ATOM     73  H   UNL A   1      37.480  31.936  34.200  1.00  0.00     0.063 H 
BRANCH  71  74
ATOM     74  C   UNL A   1      38.950  32.358  32.086  1.00  0.00     0.031 A 
ATOM     75  C   UNL A   1      38.926  31.151  31.240  1.00  0.00     0.074 A 
ATOM     76  C   UNL A   1      40.126  32.857  32.527  1.00  0.00     0.049 A 
ATOM     77  N   UNL A   1      39.798  30.201  31.305  1.00  0.00    -0.248 NA
ATOM     78  C   UNL A   1      37.874  30.907  30.262  1.00  0.00    -0.034 C 
ATOM     79  C   UNL A   1      41.470  32.444  32.130  1.00  0.00    -0.036 A 
ATOM     80  N   UNL A   1      40.331  33.734  33.606  1.00  0.00    -0.354 N 
ATOM     81  C   UNL A   1      39.582  29.361  30.236  1.00  0.00     0.074 A 
ATOM     82  C   UNL A   1      38.337  29.811  29.654  1.00  0.00    -0.034 C 
ATOM     83  H   UNL A   1      37.006  31.436  30.088  1.00  0.00     0.065 H 
ATOM     84  C   UNL A   1      42.332  32.802  33.096  1.00  0.00    -0.036 A 
ATOM     85  H   UNL A   1      41.716  31.957  31.254  1.00  0.00     0.065 H 
ATOM     86  C   UNL A   1      41.547  33.326  34.200  1.00  0.00     0.049 A 
ATOM     87  H   UNL A   1      39.750  34.476  33.889  1.00  0.00     0.167 HD
ATOM     88  C   UNL A   1      40.549  28.464  29.879  1.00  0.00     0.037 A 
ATOM     89  H   UNL A   1      37.866  29.343  28.864  1.00  0.00     0.065 H 
ATOM     90  H   UNL A   1      43.360  32.720  33.059  1.00  0.00     0.065 H 
ATOM     91  C   UNL A   1      41.592  32.861  35.482  1.00  0.00     0.037 A 
ATOM     92  C   UNL A   1      41.696  28.537  30.779  1.00  0.00     0.049 A 
ATOM     93  C   UNL A   1      42.143  31.462  35.603  1.00  0.00     0.074 A 
ATOM     94  C   UNL A   1      42.899  29.218  30.686  1.00  0.00    -0.036 A 
ATOM     95  N   UNL A   1      41.576  28.123  32.102  1.00  0.00    -0.354 N 
ATOM     96  N   UNL A   1      42.172  30.607  34.620  1.00  0.00    -0.248 NA
ATOM     97  C   UNL A   1      42.653  30.903  36.852  1.00  0.00    -0.034 C 
ATOM     98  C   UNL A   1      43.482  29.260  31.974  1.00  0.00    -0.036 A 
ATOM     99  H   UNL A   1      43.300  29.625  29.827  1.00  0.00     0.065 H 
ATOM    100  C   UNL A   1      42.645  28.586  32.846  1.00  0.00     0.049 A 
ATOM    101  H   UNL A   1      40.837  27.579  32.457  1.00  0.00     0.167 HD
ATOM    102  C   UNL A   1      42.657  29.410  35.078  1.00  0.00     0.074 A 
ATOM    103  C   UNL A   1      42.961  29.650  36.475  1.00  0.00    -0.034 C 
ATOM    104  H   UNL A   1      42.750  31.350  37.777  1.00  0.00     0.065 H 
ATOM    105  H   UNL A   1      44.376  29.712  32.221  1.00  0.00     0.065 H 
ATOM    106  C   UNL A   1      42.752  28.315  34.270  1.00  0.00     0.037 A 
ATOM    107  H   UNL A   1      43.368  28.942  37.107  1.00  0.00     0.065 H 
BRANCH  88 108
ATOM    108  C   UNL A   1      40.588  27.771  28.534  1.00  0.00     0.064 A 
ATOM    109  C   UNL A   1      39.998  26.499  28.353  1.00  0.00     0.173 A 
ATOM    110  C   UNL A   1      41.248  28.277  27.400  1.00  0.00     0.173 A 
ATOM    111  F   UNL A   1      39.222  25.945  29.293  1.00  0.00    -0.203 F 
ATOM    112  C   UNL A   1      40.185  25.742  27.194  1.00  0.00     0.198 A 
ATOM    113  C   UNL A   1      41.485  27.498  26.261  1.00  0.00     0.198 A 
ATOM    114  F   UNL A   1      41.641  29.556  27.342  1.00  0.00    -0.203 F 
ATOM    115  F   UNL A   1      39.615  24.533  27.090  1.00  0.00    -0.200 F 
ATOM    116  C   UNL A   1      40.968  26.222  26.166  1.00  0.00     0.200 A 
ATOM    117  F   UNL A   1      42.222  27.994  25.257  1.00  0.00    -0.200 F 
ATOM    118  F   UNL A   1      41.199  25.473  25.079  1.00  0.00    -0.200 F 
ENDBRANCH  88 108
BRANCH  91 119
ATOM    119  C   UNL A   1      40.532  33.423  36.359  1.00  0.00     0.064 A 
ATOM    120  C   UNL A   1      39.387  32.644  36.615  1.00  0.00     0.173 A 
ATOM    121  C   UNL A   1      40.777  34.512  37.203  1.00  0.00     0.173 A 
ATOM    122  F   UNL A   1      39.107  31.588  35.835  1.00  0.00    -0.203 F 
ATOM    123  C   UNL A   1      38.589  32.877  37.732  1.00  0.00     0.198 A 
ATOM    124  C   UNL A   1      39.965  34.751  38.314  1.00  0.00     0.198 A 
ATOM    125  F   UNL A   1      41.859  35.282  37.022  1.00  0.00    -0.203 F 
ATOM    126  F   UNL A   1      37.569  32.050  38.008  1.00  0.00    -0.200 F 
ATOM    127  C   UNL A   1      38.894  33.914  38.595  1.00  0.00     0.200 A 
ATOM    128  F   UNL A   1      40.275  35.740  39.164  1.00  0.00    -0.200 F 
ATOM    129  F   UNL A   1      38.181  34.087  39.717  1.00  0.00    -0.200 F 
ENDBRANCH  91 119
BRANCH 106 130
ATOM    130  C   UNL A   1      43.064  26.917  34.732  1.00  0.00     0.064 A 
ATOM    131  C   UNL A   1      42.081  25.948  34.988  1.00  0.00     0.173 A 
ATOM    132  C   UNL A   1      44.403  26.466  34.795  1.00  0.00     0.173 A 
ATOM    133  F   UNL A   1      40.777  26.225  34.845  1.00  0.00    -0.203 F 
ATOM    134  C   UNL A   1      42.412  24.640  35.350  1.00  0.00     0.198 A 
ATOM    135  C   UNL A   1      44.729  25.146  35.103  1.00  0.00     0.198 A 
ATOM    136  F   UNL A   1      45.430  27.289  34.539  1.00  0.00    -0.203 F 
ATOM    137  F   UNL A   1      41.438  23.761  35.626  1.00  0.00    -0.200 F 
ATOM    138  C   UNL A   1      43.734  24.237  35.397  1.00  0.00     0.200 A 
ATOM    139  F   UNL A   1      46.012  24.758  35.096  1.00  0.00    -0.200 F 
ATOM    140  F   UNL A   1      44.045  22.971  35.705  1.00  0.00    -0.200 F 
ENDBRANCH 106 130
ENDBRANCH  71  74
ENDBRANCH  61  64
ENDBRANCH  57  60
ENDBRANCH  54  57
ENDBRANCH  51  54
ENDBRANCH   1  51
TORSDOF 17
ENDMDL
