MODEL 1
REMARK VINA RESULT:     -10.7      0.000      0.000
REMARK SMILES COc1ccc(/C=C/c2cc(OC)cc(OC)c2/C=C/C(=O)NCCCCCCNC(=O)c2ccc(-c3c4nc(c(-c5c(F)c(F)c(F)c(F)c5F)c5ccc([nH]5)c(-c5c(F)c(F)c(F)c(F)c5F)c5nc(c(-c6c(F)c(F)c(F)c(F)c6F)c6ccc3[nH]6)C=C5)C=C4)cc2)cc1
REMARK SMILES IDX 25 1 24 4 23 7 21 8 22 9 20 11 19 12 18 15 9 16 10 17 11 18
REMARK SMILES IDX 15 20 14 21 8 23 7 24 6 27 3 28 4 29 97 30 5 31 96 33 2 37
REMARK SMILES IDX 1 38 12 42 13 43 16 47 17 48 26 52 27 55 28 58 29 61 30 64
REMARK SMILES IDX 31 65 32 67 33 68 34 69 95 70 35 71 94 73 36 75 37 78 38 79
REMARK SMILES IDX 88 80 39 81 93 82 87 83 89 84 40 85 92 86 86 88 85 90 41 92
REMARK SMILES IDX 73 95 53 96 72 97 54 98 57 99 71 100 90 101 55 102 56 104
REMARK SMILES IDX 70 106 91 107 58 110 42 112 43 113 51 114 44 115 45 116
REMARK SMILES IDX 49 117 52 118 46 119 47 120 50 121 48 122 74 123 75 124
REMARK SMILES IDX 83 125 76 126 77 127 81 128 84 129 78 130 79 131 82 132
REMARK SMILES IDX 80 133 59 134 60 135 68 136 61 137 62 138 66 139 69 140
REMARK SMILES IDX 63 141 64 142 67 143 65 144
REMARK H PARENT 25 2 25 3 24 5 24 6 23 10 19 13 20 14 10 19 14 22 7 25 8 26
REMARK H PARENT 4 32 97 34 5 35 96 36 1 39 1 40 1 41 13 44 13 45 13 46 17 49
REMARK H PARENT 17 50 17 51 26 53 26 54 27 56 27 57 28 59 28 60 29 62 29 63
REMARK H PARENT 30 66 34 72 95 74 35 76 94 77 93 87 87 89 89 91 92 93 86 94
REMARK H PARENT 54 103 57 105 90 108 55 109 91 111
REMARK Flexibility Score: inf
ROOT
ATOM      1  C   UNL A   1      33.935  26.683  24.880  1.00  0.00    -0.036 C 
ATOM      2  H   UNL A   1      34.870  27.202  24.916  1.00  0.00     0.028 H 
ATOM      3  H   UNL A   1      33.342  26.967  24.037  1.00  0.00     0.028 H 
ENDROOT
BRANCH   1   4
ATOM      4  C   UNL A   1      33.137  27.042  26.127  1.00  0.00     0.018 C 
ATOM      5  H   UNL A   1      32.114  27.195  25.854  1.00  0.00     0.049 H 
ATOM      6  H   UNL A   1      33.227  26.238  26.828  1.00  0.00     0.049 H 
BRANCH   4   7
ATOM      7  N   UNL A   1      33.644  28.245  26.748  1.00  0.00    -0.353 N 
ATOM      8  C   UNL A   1      33.407  29.538  26.405  1.00  0.00     0.244 C 
ATOM      9  O   UNL A   1      33.861  30.462  27.069  1.00  0.00    -0.270 OA
ATOM     10  H   UNL A   1      34.238  28.110  27.522  1.00  0.00     0.163 HD
BRANCH   8  11
ATOM     11  C   UNL A   1      32.546  29.824  25.240  1.00  0.00     0.004 C 
ATOM     12  C   UNL A   1      31.235  30.054  25.398  1.00  0.00    -0.045 C 
ATOM     13  H   UNL A   1      30.861  30.161  26.354  1.00  0.00     0.063 H 
ATOM     14  H   UNL A   1      32.959  29.849  24.294  1.00  0.00     0.068 H 
BRANCH  12  15
ATOM     15  C   UNL A   1      30.310  30.159  24.260  1.00  0.00     0.024 A 
ATOM     16  C   UNL A   1      30.025  28.983  23.505  1.00  0.00    -0.011 A 
ATOM     17  C   UNL A   1      29.201  29.059  22.368  1.00  0.00    -0.012 A 
ATOM     18  C   UNL A   1      28.663  30.271  21.951  1.00  0.00     0.123 A 
ATOM     19  H   UNL A   1      28.992  28.201  21.835  1.00  0.00     0.067 H 
ATOM     20  C   UNL A   1      29.742  31.384  23.843  1.00  0.00     0.130 A 
ATOM     21  C   UNL A   1      28.918  31.412  22.702  1.00  0.00     0.023 A 
ATOM     22  H   UNL A   1      28.492  32.307  22.415  1.00  0.00     0.070 H 
BRANCH  16  23
ATOM     23  C   UNL A   1      30.587  27.644  23.787  1.00  0.00    -0.054 C 
ATOM     24  C   UNL A   1      29.831  26.597  24.158  1.00  0.00    -0.054 C 
ATOM     25  H   UNL A   1      28.817  26.763  24.247  1.00  0.00     0.063 H 
ATOM     26  H   UNL A   1      31.606  27.508  23.694  1.00  0.00     0.063 H 
BRANCH  24  27
ATOM     27  C   UNL A   1      30.312  25.230  24.452  1.00  0.00    -0.025 A 
ATOM     28  C   UNL A   1      31.242  22.650  25.178  1.00  0.00     0.118 A 
ATOM     29  C   UNL A   1      31.256  23.065  23.846  1.00  0.00    -0.019 A 
ATOM     30  C   UNL A   1      30.741  23.515  26.147  1.00  0.00    -0.019 A 
ATOM     31  C   UNL A   1      30.790  24.339  23.484  1.00  0.00    -0.051 A 
ATOM     32  H   UNL A   1      31.614  22.427  23.117  1.00  0.00     0.066 H 
ATOM     33  C   UNL A   1      30.285  24.791  25.785  1.00  0.00    -0.051 A 
ATOM     34  H   UNL A   1      30.705  23.217  27.133  1.00  0.00     0.066 H 
ATOM     35  H   UNL A   1      30.802  24.622  22.492  1.00  0.00     0.063 H 
ATOM     36  H   UNL A   1      29.923  25.422  26.516  1.00  0.00     0.063 H 
BRANCH  28  37
ATOM     37  O   UNL A   1      31.775  21.410  25.409  1.00  0.00    -0.497 OA
BRANCH  37  38
ATOM     38  C   UNL A   1      32.752  20.951  24.483  1.00  0.00     0.078 C 
ATOM     39  H   UNL A   1      33.201  21.791  23.993  1.00  0.00     0.067 H 
ATOM     40  H   UNL A   1      32.285  20.321  23.754  1.00  0.00     0.067 H 
ATOM     41  H   UNL A   1      33.505  20.398  25.003  1.00  0.00     0.067 H 
ENDBRANCH  37  38
ENDBRANCH  28  37
ENDBRANCH  24  27
ENDBRANCH  16  23
BRANCH  18  42
ATOM     42  O   UNL A   1      27.919  30.226  20.805  1.00  0.00    -0.497 OA
BRANCH  42  43
ATOM     43  C   UNL A   1      27.795  31.453  20.090  1.00  0.00     0.078 C 
ATOM     44  H   UNL A   1      28.689  32.030  20.215  1.00  0.00     0.067 H 
ATOM     45  H   UNL A   1      26.960  32.004  20.468  1.00  0.00     0.067 H 
ATOM     46  H   UNL A   1      27.646  31.248  19.051  1.00  0.00     0.067 H 
ENDBRANCH  42  43
ENDBRANCH  18  42
BRANCH  20  47
ATOM     47  O   UNL A   1      29.878  32.655  24.333  1.00  0.00    -0.496 OA
BRANCH  47  48
ATOM     48  C   UNL A   1      29.577  33.812  23.579  1.00  0.00     0.078 C 
ATOM     49  H   UNL A   1      28.980  34.476  24.167  1.00  0.00     0.067 H 
ATOM     50  H   UNL A   1      29.036  33.533  22.698  1.00  0.00     0.067 H 
ATOM     51  H   UNL A   1      30.485  34.303  23.299  1.00  0.00     0.067 H 
ENDBRANCH  47  48
ENDBRANCH  20  47
ENDBRANCH  12  15
ENDBRANCH   8  11
ENDBRANCH   4   7
ENDBRANCH   1   4
BRANCH   1  52
ATOM     52  C   UNL A   1      34.221  25.184  24.741  1.00  0.00    -0.052 C 
ATOM     53  H   UNL A   1      35.194  25.070  24.311  1.00  0.00     0.027 H 
ATOM     54  H   UNL A   1      33.437  24.785  24.132  1.00  0.00     0.027 H 
BRANCH  52  55
ATOM     55  C   UNL A   1      34.187  24.391  26.054  1.00  0.00    -0.052 C 
ATOM     56  H   UNL A   1      33.235  23.909  26.128  1.00  0.00     0.027 H 
ATOM     57  H   UNL A   1      34.362  25.099  26.838  1.00  0.00     0.027 H 
BRANCH  55  58
ATOM     58  C   UNL A   1      35.274  23.325  26.187  1.00  0.00    -0.036 C 
ATOM     59  H   UNL A   1      34.940  22.442  25.681  1.00  0.00     0.028 H 
ATOM     60  H   UNL A   1      35.426  23.173  27.235  1.00  0.00     0.028 H 
BRANCH  58  61
ATOM     61  C   UNL A   1      36.624  23.723  25.606  1.00  0.00     0.018 C 
ATOM     62  H   UNL A   1      36.933  24.649  26.044  1.00  0.00     0.049 H 
ATOM     63  H   UNL A   1      36.521  23.821  24.545  1.00  0.00     0.049 H 
BRANCH  61  64
ATOM     64  N   UNL A   1      37.632  22.713  25.877  1.00  0.00    -0.352 N 
ATOM     65  C   UNL A   1      38.919  22.871  26.326  1.00  0.00     0.251 C 
ATOM     66  H   UNL A   1      37.352  21.784  25.716  1.00  0.00     0.163 HD
ATOM     67  O   UNL A   1      39.715  21.941  26.241  1.00  0.00    -0.269 OA
BRANCH  65  68
ATOM     68  C   UNL A   1      39.356  24.160  26.909  1.00  0.00     0.039 A 
ATOM     69  C   UNL A   1      40.051  25.062  26.098  1.00  0.00    -0.049 A 
ATOM     70  C   UNL A   1      39.136  24.461  28.256  1.00  0.00    -0.049 A 
ATOM     71  C   UNL A   1      40.491  26.276  26.627  1.00  0.00    -0.053 A 
ATOM     72  H   UNL A   1      40.237  24.830  25.109  1.00  0.00     0.063 H 
ATOM     73  C   UNL A   1      39.509  25.704  28.764  1.00  0.00    -0.053 A 
ATOM     74  H   UNL A   1      38.698  23.762  28.876  1.00  0.00     0.063 H 
ATOM     75  C   UNL A   1      40.204  26.619  27.959  1.00  0.00    -0.014 A 
ATOM     76  H   UNL A   1      41.030  26.928  26.035  1.00  0.00     0.063 H 
ATOM     77  H   UNL A   1      39.272  25.953  29.736  1.00  0.00     0.063 H 
BRANCH  75  78
ATOM     78  C   UNL A   1      40.638  27.922  28.524  1.00  0.00     0.031 A 
ATOM     79  C   UNL A   1      42.073  28.140  28.913  1.00  0.00     0.074 A 
ATOM     80  C   UNL A   1      39.730  28.895  28.733  1.00  0.00     0.049 A 
ATOM     81  N   UNL A   1      42.631  29.191  29.459  1.00  0.00    -0.248 NA
ATOM     82  C   UNL A   1      43.000  27.022  28.683  1.00  0.00    -0.034 C 
ATOM     83  C   UNL A   1      38.304  28.782  28.443  1.00  0.00    -0.036 A 
ATOM     84  N   UNL A   1      39.862  30.160  29.247  1.00  0.00    -0.354 N 
ATOM     85  C   UNL A   1      43.964  28.858  29.644  1.00  0.00     0.074 A 
ATOM     86  C   UNL A   1      44.123  27.488  29.206  1.00  0.00    -0.034 C 
ATOM     87  H   UNL A   1      42.822  26.111  28.229  1.00  0.00     0.065 H 
ATOM     88  C   UNL A   1      37.690  29.929  28.764  1.00  0.00    -0.036 A 
ATOM     89  H   UNL A   1      37.840  27.948  28.049  1.00  0.00     0.065 H 
ATOM     90  C   UNL A   1      38.676  30.850  29.320  1.00  0.00     0.049 A 
ATOM     91  H   UNL A   1      40.724  30.538  29.536  1.00  0.00     0.167 HD
ATOM     92  C   UNL A   1      44.970  29.633  30.117  1.00  0.00     0.037 A 
ATOM     93  H   UNL A   1      44.998  26.947  29.290  1.00  0.00     0.065 H 
ATOM     94  H   UNL A   1      36.685  30.129  28.641  1.00  0.00     0.065 H 
ATOM     95  C   UNL A   1      38.410  32.083  29.790  1.00  0.00     0.037 A 
ATOM     96  C   UNL A   1      44.806  31.002  30.531  1.00  0.00     0.049 A 
ATOM     97  C   UNL A   1      39.543  32.920  30.315  1.00  0.00     0.074 A 
ATOM     98  C   UNL A   1      45.774  31.895  30.960  1.00  0.00    -0.036 A 
ATOM     99  N   UNL A   1      43.593  31.676  30.575  1.00  0.00    -0.354 N 
ATOM    100  N   UNL A   1      40.816  32.622  30.409  1.00  0.00    -0.248 NA
ATOM    101  C   UNL A   1      39.206  34.270  30.788  1.00  0.00    -0.034 C 
ATOM    102  C   UNL A   1      45.140  33.089  31.316  1.00  0.00    -0.036 A 
ATOM    103  H   UNL A   1      46.788  31.709  31.009  1.00  0.00     0.065 H 
ATOM    104  C   UNL A   1      43.785  32.964  31.052  1.00  0.00     0.049 A 
ATOM    105  H   UNL A   1      42.726  31.295  30.308  1.00  0.00     0.167 HD
ATOM    106  C   UNL A   1      41.435  33.751  30.926  1.00  0.00     0.074 A 
ATOM    107  C   UNL A   1      40.400  34.748  31.106  1.00  0.00    -0.034 C 
ATOM    108  H   UNL A   1      38.282  34.725  30.854  1.00  0.00     0.065 H 
ATOM    109  H   UNL A   1      45.602  33.924  31.708  1.00  0.00     0.065 H 
ATOM    110  C   UNL A   1      42.743  33.945  31.224  1.00  0.00     0.037 A 
ATOM    111  H   UNL A   1      40.571  35.710  31.439  1.00  0.00     0.065 H 
BRANCH  92 112
ATOM    112  C   UNL A   1      46.336  29.019  30.212  1.00  0.00     0.064 A 
ATOM    113  C   UNL A   1      47.245  29.071  29.143  1.00  0.00     0.173 A 
ATOM    114  C   UNL A   1      46.759  28.406  31.401  1.00  0.00     0.173 A 
ATOM    115  F   UNL A   1      46.888  29.636  27.980  1.00  0.00    -0.203 F 
ATOM    116  C   UNL A   1      48.513  28.505  29.252  1.00  0.00     0.198 A 
ATOM    117  C   UNL A   1      48.040  27.870  31.517  1.00  0.00     0.198 A 
ATOM    118  F   UNL A   1      45.933  28.333  32.456  1.00  0.00    -0.203 F 
ATOM    119  F   UNL A   1      49.344  28.523  28.201  1.00  0.00    -0.200 F 
ATOM    120  C   UNL A   1      48.912  27.913  30.441  1.00  0.00     0.200 A 
ATOM    121  F   UNL A   1      48.428  27.311  32.671  1.00  0.00    -0.200 F 
ATOM    122  F   UNL A   1      50.136  27.379  30.547  1.00  0.00    -0.200 F 
ENDBRANCH  92 112
BRANCH  95 123
ATOM    123  C   UNL A   1      37.017  32.604  29.768  1.00  0.00     0.064 A 
ATOM    124  C   UNL A   1      36.518  33.284  28.649  1.00  0.00     0.173 A 
ATOM    125  C   UNL A   1      36.158  32.435  30.864  1.00  0.00     0.173 A 
ATOM    126  F   UNL A   1      37.307  33.487  27.583  1.00  0.00    -0.203 F 
ATOM    127  C   UNL A   1      35.223  33.796  28.635  1.00  0.00     0.198 A 
ATOM    128  C   UNL A   1      34.851  32.919  30.836  1.00  0.00     0.198 A 
ATOM    129  F   UNL A   1      36.582  31.785  31.957  1.00  0.00    -0.203 F 
ATOM    130  F   UNL A   1      34.788  34.483  27.570  1.00  0.00    -0.200 F 
ATOM    131  C   UNL A   1      34.388  33.608  29.726  1.00  0.00     0.200 A 
ATOM    132  F   UNL A   1      34.043  32.720  31.886  1.00  0.00    -0.200 F 
ATOM    133  F   UNL A   1      33.141  34.096  29.710  1.00  0.00    -0.200 F 
ENDBRANCH  95 123
BRANCH 110 134
ATOM    134  C   UNL A   1      43.133  35.297  31.745  1.00  0.00     0.064 A 
ATOM    135  C   UNL A   1      43.017  35.625  33.104  1.00  0.00     0.173 A 
ATOM    136  C   UNL A   1      43.661  36.266  30.878  1.00  0.00     0.173 A 
ATOM    137  F   UNL A   1      42.504  34.740  33.971  1.00  0.00    -0.203 F 
ATOM    138  C   UNL A   1      43.387  36.884  33.570  1.00  0.00     0.198 A 
ATOM    139  C   UNL A   1      44.060  37.513  31.353  1.00  0.00     0.198 A 
ATOM    140  F   UNL A   1      43.798  36.002  29.570  1.00  0.00    -0.203 F 
ATOM    141  F   UNL A   1      43.216  37.194  34.863  1.00  0.00    -0.200 F 
ATOM    142  C   UNL A   1      43.915  37.823  32.696  1.00  0.00     0.200 A 
ATOM    143  F   UNL A   1      44.584  38.413  30.510  1.00  0.00    -0.200 F 
ATOM    144  F   UNL A   1      44.276  39.032  33.148  1.00  0.00    -0.200 F 
ENDBRANCH 110 134
ENDBRANCH  75  78
ENDBRANCH  65  68
ENDBRANCH  61  64
ENDBRANCH  58  61
ENDBRANCH  55  58
ENDBRANCH  52  55
ENDBRANCH   1  52
TORSDOF 22
ENDMDL
MODEL 2
REMARK VINA RESULT:     -10.6      3.898      9.189
REMARK SMILES COc1ccc(/C=C/c2cc(OC)cc(OC)c2/C=C/C(=O)NCCCCCCNC(=O)c2ccc(-c3c4nc(c(-c5c(F)c(F)c(F)c(F)c5F)c5ccc([nH]5)c(-c5c(F)c(F)c(F)c(F)c5F)c5nc(c(-c6c(F)c(F)c(F)c(F)c6F)c6ccc3[nH]6)C=C5)C=C4)cc2)cc1
REMARK SMILES IDX 25 1 24 4 23 7 21 8 22 9 20 11 19 12 18 15 9 16 10 17 11 18
REMARK SMILES IDX 15 20 14 21 8 23 7 24 6 27 3 28 4 29 97 30 5 31 96 33 2 37
REMARK SMILES IDX 1 38 12 42 13 43 16 47 17 48 26 52 27 55 28 58 29 61 30 64
REMARK SMILES IDX 31 65 32 67 33 68 34 69 95 70 35 71 94 73 36 75 37 78 38 79
REMARK SMILES IDX 88 80 39 81 93 82 87 83 89 84 40 85 92 86 86 88 85 90 41 92
REMARK SMILES IDX 73 95 53 96 72 97 54 98 57 99 71 100 90 101 55 102 56 104
REMARK SMILES IDX 70 106 91 107 58 110 42 112 43 113 51 114 44 115 45 116
REMARK SMILES IDX 49 117 52 118 46 119 47 120 50 121 48 122 74 123 75 124
REMARK SMILES IDX 83 125 76 126 77 127 81 128 84 129 78 130 79 131 82 132
REMARK SMILES IDX 80 133 59 134 60 135 68 136 61 137 62 138 66 139 69 140
REMARK SMILES IDX 63 141 64 142 67 143 65 144
REMARK H PARENT 25 2 25 3 24 5 24 6 23 10 19 13 20 14 10 19 14 22 7 25 8 26
REMARK H PARENT 4 32 97 34 5 35 96 36 1 39 1 40 1 41 13 44 13 45 13 46 17 49
REMARK H PARENT 17 50 17 51 26 53 26 54 27 56 27 57 28 59 28 60 29 62 29 63
REMARK H PARENT 30 66 34 72 95 74 35 76 94 77 93 87 87 89 89 91 92 93 86 94
REMARK H PARENT 54 103 57 105 90 108 55 109 91 111
REMARK Flexibility Score: inf
ROOT
ATOM      1  C   UNL A   1      35.322  30.601  27.609  1.00  0.00    -0.036 C 
ATOM      2  H   UNL A   1      35.651  31.155  26.755  1.00  0.00     0.028 H 
ATOM      3  H   UNL A   1      36.133  30.302  28.240  1.00  0.00     0.028 H 
ENDROOT
BRANCH   1   4
ATOM      4  C   UNL A   1      34.644  29.326  27.122  1.00  0.00     0.018 C 
ATOM      5  H   UNL A   1      34.514  29.383  26.062  1.00  0.00     0.049 H 
ATOM      6  H   UNL A   1      35.265  28.494  27.383  1.00  0.00     0.049 H 
BRANCH   4   7
ATOM      7  N   UNL A   1      33.353  29.145  27.746  1.00  0.00    -0.353 N 
ATOM      8  C   UNL A   1      32.393  28.229  27.453  1.00  0.00     0.244 C 
ATOM      9  O   UNL A   1      31.365  28.157  28.115  1.00  0.00    -0.270 OA
ATOM     10  H   UNL A   1      33.141  29.766  28.481  1.00  0.00     0.163 HD
BRANCH   8  11
ATOM     11  C   UNL A   1      32.624  27.278  26.347  1.00  0.00     0.004 C 
ATOM     12  C   UNL A   1      31.861  26.182  26.218  1.00  0.00    -0.045 C 
ATOM     13  H   UNL A   1      31.029  26.083  26.819  1.00  0.00     0.063 H 
ATOM     14  H   UNL A   1      33.378  27.460  25.666  1.00  0.00     0.068 H 
BRANCH  12  15
ATOM     15  C   UNL A   1      32.169  25.118  25.250  1.00  0.00     0.024 A 
ATOM     16  C   UNL A   1      31.874  25.346  23.874  1.00  0.00    -0.011 A 
ATOM     17  C   UNL A   1      32.089  24.326  22.930  1.00  0.00    -0.012 A 
ATOM     18  C   UNL A   1      32.576  23.083  23.316  1.00  0.00     0.123 A 
ATOM     19  H   UNL A   1      31.884  24.505  21.934  1.00  0.00     0.067 H 
ATOM     20  C   UNL A   1      32.683  23.859  25.632  1.00  0.00     0.130 A 
ATOM     21  C   UNL A   1      32.888  22.869  24.652  1.00  0.00     0.023 A 
ATOM     22  H   UNL A   1      33.282  21.959  24.936  1.00  0.00     0.070 H 
BRANCH  16  23
ATOM     23  C   UNL A   1      31.284  26.591  23.332  1.00  0.00    -0.054 C 
ATOM     24  C   UNL A   1      30.012  26.956  23.561  1.00  0.00    -0.054 C 
ATOM     25  H   UNL A   1      29.441  26.320  24.139  1.00  0.00     0.063 H 
ATOM     26  H   UNL A   1      31.877  27.205  22.753  1.00  0.00     0.063 H 
BRANCH  24  27
ATOM     27  C   UNL A   1      29.349  28.181  23.063  1.00  0.00    -0.025 A 
ATOM     28  C   UNL A   1      28.228  30.601  22.095  1.00  0.00     0.118 A 
ATOM     29  C   UNL A   1      27.428  29.643  22.719  1.00  0.00    -0.019 A 
ATOM     30  C   UNL A   1      29.587  30.340  21.933  1.00  0.00    -0.019 A 
ATOM     31  C   UNL A   1      27.980  28.442  23.193  1.00  0.00    -0.051 A 
ATOM     32  H   UNL A   1      26.418  29.820  22.834  1.00  0.00     0.066 H 
ATOM     33  C   UNL A   1      30.138  29.145  22.416  1.00  0.00    -0.051 A 
ATOM     34  H   UNL A   1      30.188  31.028  21.456  1.00  0.00     0.066 H 
ATOM     35  H   UNL A   1      27.368  27.744  23.644  1.00  0.00     0.063 H 
ATOM     36  H   UNL A   1      31.147  28.970  22.294  1.00  0.00     0.063 H 
BRANCH  28  37
ATOM     37  O   UNL A   1      27.584  31.751  21.729  1.00  0.00    -0.497 OA
BRANCH  37  38
ATOM     38  C   UNL A   1      27.974  32.337  20.492  1.00  0.00     0.078 C 
ATOM     39  H   UNL A   1      27.122  32.788  20.027  1.00  0.00     0.067 H 
ATOM     40  H   UNL A   1      28.372  31.580  19.849  1.00  0.00     0.067 H 
ATOM     41  H   UNL A   1      28.720  33.083  20.670  1.00  0.00     0.067 H 
ENDBRANCH  37  38
ENDBRANCH  28  37
ENDBRANCH  24  27
ENDBRANCH  16  23
BRANCH  18  42
ATOM     42  O   UNL A   1      32.696  22.158  22.315  1.00  0.00    -0.497 OA
BRANCH  42  43
ATOM     43  C   UNL A   1      32.097  20.888  22.562  1.00  0.00     0.078 C 
ATOM     44  H   UNL A   1      32.851  20.128  22.544  1.00  0.00     0.067 H 
ATOM     45  H   UNL A   1      31.367  20.685  21.807  1.00  0.00     0.067 H 
ATOM     46  H   UNL A   1      31.624  20.897  23.522  1.00  0.00     0.067 H 
ENDBRANCH  42  43
ENDBRANCH  18  42
BRANCH  20  47
ATOM     47  O   UNL A   1      33.003  23.350  26.862  1.00  0.00    -0.496 OA
BRANCH  47  48
ATOM     48  C   UNL A   1      34.263  22.784  27.161  1.00  0.00     0.078 C 
ATOM     49  H   UNL A   1      34.249  21.740  26.929  1.00  0.00     0.067 H 
ATOM     50  H   UNL A   1      34.475  22.915  28.202  1.00  0.00     0.067 H 
ATOM     51  H   UNL A   1      35.020  23.267  26.579  1.00  0.00     0.067 H 
ENDBRANCH  47  48
ENDBRANCH  20  47
ENDBRANCH  12  15
ENDBRANCH   8  11
ENDBRANCH   4   7
ENDBRANCH   1   4
BRANCH   1  52
ATOM     52  C   UNL A   1      34.412  31.503  28.448  1.00  0.00    -0.052 C 
ATOM     53  H   UNL A   1      34.593  31.289  29.481  1.00  0.00     0.027 H 
ATOM     54  H   UNL A   1      33.410  31.289  28.138  1.00  0.00     0.027 H 
BRANCH  52  55
ATOM     55  C   UNL A   1      34.614  33.009  28.233  1.00  0.00    -0.052 C 
ATOM     56  H   UNL A   1      35.040  33.152  27.263  1.00  0.00     0.027 H 
ATOM     57  H   UNL A   1      35.250  33.344  29.026  1.00  0.00     0.027 H 
BRANCH  55  58
ATOM     58  C   UNL A   1      33.337  33.845  28.322  1.00  0.00    -0.036 C 
ATOM     59  H   UNL A   1      32.718  33.429  29.090  1.00  0.00     0.028 H 
ATOM     60  H   UNL A   1      32.882  33.811  27.354  1.00  0.00     0.028 H 
BRANCH  58  61
ATOM     61  C   UNL A   1      33.567  35.316  28.640  1.00  0.00     0.018 C 
ATOM     62  H   UNL A   1      33.227  35.909  27.817  1.00  0.00     0.049 H 
ATOM     63  H   UNL A   1      34.613  35.467  28.810  1.00  0.00     0.049 H 
BRANCH  61  64
ATOM     64  N   UNL A   1      32.847  35.714  29.838  1.00  0.00    -0.352 N 
ATOM     65  C   UNL A   1      33.018  35.294  31.132  1.00  0.00     0.251 C 
ATOM     66  H   UNL A   1      32.135  36.380  29.700  1.00  0.00     0.163 HD
ATOM     67  O   UNL A   1      32.152  35.524  31.969  1.00  0.00    -0.269 OA
BRANCH  65  68
ATOM     68  C   UNL A   1      34.241  34.557  31.525  1.00  0.00     0.039 A 
ATOM     69  C   UNL A   1      34.106  33.283  32.083  1.00  0.00    -0.049 A 
ATOM     70  C   UNL A   1      35.509  35.133  31.399  1.00  0.00    -0.049 A 
ATOM     71  C   UNL A   1      35.241  32.574  32.480  1.00  0.00    -0.053 A 
ATOM     72  H   UNL A   1      33.169  32.867  32.201  1.00  0.00     0.063 H 
ATOM     73  C   UNL A   1      36.645  34.395  31.724  1.00  0.00    -0.053 A 
ATOM     74  H   UNL A   1      35.603  36.104  31.065  1.00  0.00     0.063 H 
ATOM     75  C   UNL A   1      36.523  33.114  32.283  1.00  0.00    -0.014 A 
ATOM     76  H   UNL A   1      35.138  31.646  32.920  1.00  0.00     0.063 H 
ATOM     77  H   UNL A   1      37.581  34.793  31.553  1.00  0.00     0.063 H 
BRANCH  75  78
ATOM     78  C   UNL A   1      37.741  32.356  32.670  1.00  0.00     0.031 A 
ATOM     79  C   UNL A   1      38.448  32.664  33.960  1.00  0.00     0.074 A 
ATOM     80  C   UNL A   1      38.239  31.422  31.838  1.00  0.00     0.049 A 
ATOM     81  N   UNL A   1      39.544  32.139  34.447  1.00  0.00    -0.248 NA
ATOM     82  C   UNL A   1      37.861  33.717  34.803  1.00  0.00    -0.034 C 
ATOM     83  C   UNL A   1      37.669  31.071  30.540  1.00  0.00    -0.036 A 
ATOM     84  N   UNL A   1      39.337  30.607  31.946  1.00  0.00    -0.354 N 
ATOM     85  C   UNL A   1      39.782  32.803  35.642  1.00  0.00     0.074 A 
ATOM     86  C   UNL A   1      38.749  33.806  35.781  1.00  0.00    -0.034 C 
ATOM     87  H   UNL A   1      36.986  34.246  34.667  1.00  0.00     0.065 H 
ATOM     88  C   UNL A   1      38.406  30.105  29.974  1.00  0.00    -0.036 A 
ATOM     89  H   UNL A   1      36.829  31.501  30.122  1.00  0.00     0.065 H 
ATOM     90  C   UNL A   1      39.525  29.790  30.857  1.00  0.00     0.049 A 
ATOM     91  H   UNL A   1      39.933  30.605  32.729  1.00  0.00     0.167 HD
ATOM     92  C   UNL A   1      40.761  32.578  36.550  1.00  0.00     0.037 A 
ATOM     93  H   UNL A   1      38.709  34.501  36.544  1.00  0.00     0.065 H 
ATOM     94  H   UNL A   1      38.214  29.656  29.065  1.00  0.00     0.065 H 
ATOM     95  C   UNL A   1      40.495  28.895  30.592  1.00  0.00     0.037 A 
ATOM     96  C   UNL A   1      41.772  31.563  36.413  1.00  0.00     0.049 A 
ATOM     97  C   UNL A   1      41.573  28.670  31.615  1.00  0.00     0.074 A 
ATOM     98  C   UNL A   1      42.766  31.210  37.309  1.00  0.00    -0.036 A 
ATOM     99  N   UNL A   1      41.923  30.742  35.304  1.00  0.00    -0.354 N 
ATOM    100  N   UNL A   1      41.740  29.247  32.780  1.00  0.00    -0.248 NA
ATOM    101  C   UNL A   1      42.591  27.660  31.294  1.00  0.00    -0.034 C 
ATOM    102  C   UNL A   1      43.551  30.214  36.720  1.00  0.00    -0.036 A 
ATOM    103  H   UNL A   1      42.904  31.612  38.249  1.00  0.00     0.065 H 
ATOM    104  C   UNL A   1      43.012  29.902  35.482  1.00  0.00     0.049 A 
ATOM    105  H   UNL A   1      41.342  30.754  34.510  1.00  0.00     0.167 HD
ATOM    106  C   UNL A   1      42.863  28.656  33.341  1.00  0.00     0.074 A 
ATOM    107  C   UNL A   1      43.325  27.659  32.397  1.00  0.00    -0.034 C 
ATOM    108  H   UNL A   1      42.704  27.099  30.435  1.00  0.00     0.065 H 
ATOM    109  H   UNL A   1      44.391  29.782  37.137  1.00  0.00     0.065 H 
ATOM    110  C   UNL A   1      43.458  28.914  34.532  1.00  0.00     0.037 A 
ATOM    111  H   UNL A   1      44.124  27.028  32.563  1.00  0.00     0.065 H 
BRANCH  92 112
ATOM    112  C   UNL A   1      40.786  33.447  37.775  1.00  0.00     0.064 A 
ATOM    113  C   UNL A   1      41.677  34.524  37.898  1.00  0.00     0.173 A 
ATOM    114  C   UNL A   1      39.880  33.225  38.823  1.00  0.00     0.173 A 
ATOM    115  F   UNL A   1      42.572  34.774  36.930  1.00  0.00    -0.203 F 
ATOM    116  C   UNL A   1      41.680  35.327  39.036  1.00  0.00     0.198 A 
ATOM    117  C   UNL A   1      39.864  34.050  39.946  1.00  0.00     0.198 A 
ATOM    118  F   UNL A   1      39.002  32.213  38.755  1.00  0.00    -0.203 F 
ATOM    119  F   UNL A   1      42.575  36.318  39.152  1.00  0.00    -0.200 F 
ATOM    120  C   UNL A   1      40.769  35.094  40.055  1.00  0.00     0.200 A 
ATOM    121  F   UNL A   1      38.972  33.832  40.922  1.00  0.00    -0.200 F 
ATOM    122  F   UNL A   1      40.766  35.874  41.144  1.00  0.00    -0.200 F 
ENDBRANCH  92 112
BRANCH  95 123
ATOM    123  C   UNL A   1      40.478  28.134  29.314  1.00  0.00     0.064 A 
ATOM    124  C   UNL A   1      39.738  26.951  29.188  1.00  0.00     0.173 A 
ATOM    125  C   UNL A   1      41.203  28.572  28.196  1.00  0.00     0.173 A 
ATOM    126  F   UNL A   1      39.043  26.482  30.235  1.00  0.00    -0.203 F 
ATOM    127  C   UNL A   1      39.741  26.223  28.001  1.00  0.00     0.198 A 
ATOM    128  C   UNL A   1      41.180  27.859  26.999  1.00  0.00     0.198 A 
ATOM    129  F   UNL A   1      41.923  29.702  28.261  1.00  0.00    -0.203 F 
ATOM    130  F   UNL A   1      39.063  25.070  27.922  1.00  0.00    -0.200 F 
ATOM    131  C   UNL A   1      40.457  26.680  26.905  1.00  0.00     0.200 A 
ATOM    132  F   UNL A   1      41.859  28.314  25.937  1.00  0.00    -0.200 F 
ATOM    133  F   UNL A   1      40.456  25.982  25.762  1.00  0.00    -0.200 F 
ENDBRANCH  95 123
BRANCH 110 134
ATOM    134  C   UNL A   1      44.654  28.084  34.894  1.00  0.00     0.064 A 
ATOM    135  C   UNL A   1      44.525  26.855  35.558  1.00  0.00     0.173 A 
ATOM    136  C   UNL A   1      45.944  28.509  34.542  1.00  0.00     0.173 A 
ATOM    137  F   UNL A   1      43.316  26.412  35.930  1.00  0.00    -0.203 F 
ATOM    138  C   UNL A   1      45.647  26.097  35.883  1.00  0.00     0.198 A 
ATOM    139  C   UNL A   1      47.061  27.733  34.840  1.00  0.00     0.198 A 
ATOM    140  F   UNL A   1      46.123  29.673  33.901  1.00  0.00    -0.203 F 
ATOM    141  F   UNL A   1      45.504  24.952  36.566  1.00  0.00    -0.200 F 
ATOM    142  C   UNL A   1      46.913  26.533  35.517  1.00  0.00     0.200 A 
ATOM    143  F   UNL A   1      48.281  28.147  34.472  1.00  0.00    -0.200 F 
ATOM    144  F   UNL A   1      47.990  25.798  35.825  1.00  0.00    -0.200 F 
ENDBRANCH 110 134
ENDBRANCH  75  78
ENDBRANCH  65  68
ENDBRANCH  61  64
ENDBRANCH  58  61
ENDBRANCH  55  58
ENDBRANCH  52  55
ENDBRANCH   1  52
TORSDOF 22
ENDMDL
MODEL 3
REMARK VINA RESULT:     -10.5      4.194      9.242
REMARK SMILES COc1ccc(/C=C/c2cc(OC)cc(OC)c2/C=C/C(=O)NCCCCCCNC(=O)c2ccc(-c3c4nc(c(-c5c(F)c(F)c(F)c(F)c5F)c5ccc([nH]5)c(-c5c(F)c(F)c(F)c(F)c5F)c5nc(c(-c6c(F)c(F)c(F)c(F)c6F)c6ccc3[nH]6)C=C5)C=C4)cc2)cc1
REMARK SMILES IDX 25 1 24 4 23 7 21 8 22 9 20 11 19 12 18 15 9 16 10 17 11 18
REMARK SMILES IDX 15 20 14 21 8 23 7 24 6 27 3 28 4 29 97 30 5 31 96 33 2 37
REMARK SMILES IDX 1 38 12 42 13 43 16 47 17 48 26 52 27 55 28 58 29 61 30 64
REMARK SMILES IDX 31 65 32 67 33 68 34 69 95 70 35 71 94 73 36 75 37 78 38 79
REMARK SMILES IDX 88 80 39 81 93 82 87 83 89 84 40 85 92 86 86 88 85 90 41 92
REMARK SMILES IDX 73 95 53 96 72 97 54 98 57 99 71 100 90 101 55 102 56 104
REMARK SMILES IDX 70 106 91 107 58 110 42 112 43 113 51 114 44 115 45 116
REMARK SMILES IDX 49 117 52 118 46 119 47 120 50 121 48 122 74 123 75 124
REMARK SMILES IDX 83 125 76 126 77 127 81 128 84 129 78 130 79 131 82 132
REMARK SMILES IDX 80 133 59 134 60 135 68 136 61 137 62 138 66 139 69 140
REMARK SMILES IDX 63 141 64 142 67 143 65 144
REMARK H PARENT 25 2 25 3 24 5 24 6 23 10 19 13 20 14 10 19 14 22 7 25 8 26
REMARK H PARENT 4 32 97 34 5 35 96 36 1 39 1 40 1 41 13 44 13 45 13 46 17 49
REMARK H PARENT 17 50 17 51 26 53 26 54 27 56 27 57 28 59 28 60 29 62 29 63
REMARK H PARENT 30 66 34 72 95 74 35 76 94 77 93 87 87 89 89 91 92 93 86 94
REMARK H PARENT 54 103 57 105 90 108 55 109 91 111
REMARK Flexibility Score: inf
ROOT
ATOM      1  C   UNL A   1      33.603  31.563  27.766  1.00  0.00    -0.036 C 
ATOM      2  H   UNL A   1      32.587  31.650  28.087  1.00  0.00     0.028 H 
ATOM      3  H   UNL A   1      33.785  32.073  26.843  1.00  0.00     0.028 H 
ENDROOT
BRANCH   1   4
ATOM      4  C   UNL A   1      33.908  30.090  27.528  1.00  0.00     0.018 C 
ATOM      5  H   UNL A   1      34.702  29.789  28.178  1.00  0.00     0.049 H 
ATOM      6  H   UNL A   1      33.020  29.526  27.728  1.00  0.00     0.049 H 
BRANCH   4   7
ATOM      7  N   UNL A   1      34.303  29.848  26.159  1.00  0.00    -0.353 N 
ATOM      8  C   UNL A   1      33.981  28.798  25.359  1.00  0.00     0.244 C 
ATOM      9  O   UNL A   1      34.344  28.761  24.190  1.00  0.00    -0.270 OA
ATOM     10  H   UNL A   1      34.882  30.533  25.753  1.00  0.00     0.163 HD
BRANCH   8  11
ATOM     11  C   UNL A   1      33.138  27.715  25.902  1.00  0.00     0.004 C 
ATOM     12  C   UNL A   1      33.191  26.480  25.381  1.00  0.00    -0.045 C 
ATOM     13  H   UNL A   1      33.924  26.265  24.687  1.00  0.00     0.063 H 
ATOM     14  H   UNL A   1      32.502  27.910  26.692  1.00  0.00     0.068 H 
BRANCH  12  15
ATOM     15  C   UNL A   1      32.243  25.422  25.763  1.00  0.00     0.024 A 
ATOM     16  C   UNL A   1      32.763  24.191  26.260  1.00  0.00    -0.011 A 
ATOM     17  C   UNL A   1      31.891  23.133  26.569  1.00  0.00    -0.012 A 
ATOM     18  C   UNL A   1      30.518  23.257  26.386  1.00  0.00     0.123 A 
ATOM     19  H   UNL A   1      32.276  22.249  26.939  1.00  0.00     0.067 H 
ATOM     20  C   UNL A   1      30.846  25.549  25.599  1.00  0.00     0.130 A 
ATOM     21  C   UNL A   1      30.009  24.465  25.927  1.00  0.00     0.023 A 
ATOM     22  H   UNL A   1      28.988  24.572  25.823  1.00  0.00     0.070 H 
BRANCH  16  23
ATOM     23  C   UNL A   1      34.202  23.893  26.434  1.00  0.00    -0.054 C 
ATOM     24  C   UNL A   1      34.899  23.131  25.576  1.00  0.00    -0.054 C 
ATOM     25  H   UNL A   1      34.384  22.745  24.770  1.00  0.00     0.063 H 
ATOM     26  H   UNL A   1      34.691  24.288  27.252  1.00  0.00     0.063 H 
BRANCH  24  27
ATOM     27  C   UNL A   1      36.335  22.790  25.674  1.00  0.00    -0.025 A 
ATOM     28  C   UNL A   1      39.048  21.975  25.846  1.00  0.00     0.118 A 
ATOM     29  C   UNL A   1      38.662  23.258  26.235  1.00  0.00    -0.019 A 
ATOM     30  C   UNL A   1      38.081  21.105  25.347  1.00  0.00    -0.019 A 
ATOM     31  C   UNL A   1      37.321  23.665  26.145  1.00  0.00    -0.051 A 
ATOM     32  H   UNL A   1      39.371  23.916  26.595  1.00  0.00     0.066 H 
ATOM     33  C   UNL A   1      36.741  21.510  25.267  1.00  0.00    -0.051 A 
ATOM     34  H   UNL A   1      38.353  20.160  25.035  1.00  0.00     0.066 H 
ATOM     35  H   UNL A   1      37.059  24.621  26.431  1.00  0.00     0.063 H 
ATOM     36  H   UNL A   1      36.037  20.850  24.901  1.00  0.00     0.063 H 
BRANCH  28  37
ATOM     37  O   UNL A   1      40.371  21.681  26.034  1.00  0.00    -0.497 OA
BRANCH  37  38
ATOM     38  C   UNL A   1      40.676  20.362  26.472  1.00  0.00     0.078 C 
ATOM     39  H   UNL A   1      39.925  19.686  26.117  1.00  0.00     0.067 H 
ATOM     40  H   UNL A   1      40.702  20.338  27.541  1.00  0.00     0.067 H 
ATOM     41  H   UNL A   1      41.629  20.069  26.084  1.00  0.00     0.067 H 
ENDBRANCH  37  38
ENDBRANCH  28  37
ENDBRANCH  24  27
ENDBRANCH  16  23
BRANCH  18  42
ATOM     42  O   UNL A   1      29.780  22.143  26.674  1.00  0.00    -0.497 OA
BRANCH  42  43
ATOM     43  C   UNL A   1      28.678  22.334  27.559  1.00  0.00     0.078 C 
ATOM     44  H   UNL A   1      28.273  21.383  27.835  1.00  0.00     0.067 H 
ATOM     45  H   UNL A   1      27.925  22.915  27.070  1.00  0.00     0.067 H 
ATOM     46  H   UNL A   1      29.011  22.848  28.437  1.00  0.00     0.067 H 
ENDBRANCH  42  43
ENDBRANCH  18  42
BRANCH  20  47
ATOM     47  O   UNL A   1      30.083  26.574  25.104  1.00  0.00    -0.496 OA
BRANCH  47  48
ATOM     48  C   UNL A   1      29.392  26.500  23.874  1.00  0.00     0.078 C 
ATOM     49  H   UNL A   1      30.060  26.159  23.110  1.00  0.00     0.067 H 
ATOM     50  H   UNL A   1      29.019  27.469  23.615  1.00  0.00     0.067 H 
ATOM     51  H   UNL A   1      28.575  25.815  23.963  1.00  0.00     0.067 H 
ENDBRANCH  47  48
ENDBRANCH  20  47
ENDBRANCH  12  15
ENDBRANCH   8  11
ENDBRANCH   4   7
ENDBRANCH   1   4
BRANCH   1  52
ATOM     52  C   UNL A   1      34.501  32.218  28.821  1.00  0.00    -0.052 C 
ATOM     53  H   UNL A   1      35.491  31.833  28.700  1.00  0.00     0.027 H 
ATOM     54  H   UNL A   1      34.066  31.984  29.770  1.00  0.00     0.027 H 
BRANCH  52  55
ATOM     55  C   UNL A   1      34.574  33.749  28.751  1.00  0.00    -0.052 C 
ATOM     56  H   UNL A   1      34.970  34.020  27.795  1.00  0.00     0.027 H 
ATOM     57  H   UNL A   1      35.194  34.059  29.567  1.00  0.00     0.027 H 
BRANCH  55  58
ATOM     58  C   UNL A   1      33.235  34.463  28.932  1.00  0.00    -0.036 C 
ATOM     59  H   UNL A   1      32.673  33.937  29.677  1.00  0.00     0.028 H 
ATOM     60  H   UNL A   1      32.758  34.465  27.974  1.00  0.00     0.028 H 
BRANCH  58  61
ATOM     61  C   UNL A   1      33.348  35.919  29.362  1.00  0.00     0.018 C 
ATOM     62  H   UNL A   1      32.996  36.546  28.570  1.00  0.00     0.049 H 
ATOM     63  H   UNL A   1      34.375  36.128  29.582  1.00  0.00     0.049 H 
BRANCH  61  64
ATOM     64  N   UNL A   1      32.561  36.179  30.555  1.00  0.00    -0.352 N 
ATOM     65  C   UNL A   1      32.696  35.651  31.814  1.00  0.00     0.251 C 
ATOM     66  H   UNL A   1      31.828  36.825  30.445  1.00  0.00     0.163 HD
ATOM     67  O   UNL A   1      31.785  35.770  32.627  1.00  0.00    -0.269 OA
BRANCH  65  68
ATOM     68  C   UNL A   1      33.932  34.931  32.196  1.00  0.00     0.039 A 
ATOM     69  C   UNL A   1      33.832  33.601  32.615  1.00  0.00    -0.049 A 
ATOM     70  C   UNL A   1      35.175  35.571  32.197  1.00  0.00    -0.049 A 
ATOM     71  C   UNL A   1      34.979  32.904  32.999  1.00  0.00    -0.053 A 
ATOM     72  H   UNL A   1      32.911  33.136  32.640  1.00  0.00     0.063 H 
ATOM     73  C   UNL A   1      36.329  34.853  32.509  1.00  0.00    -0.053 A 
ATOM     74  H   UNL A   1      35.239  36.575  31.969  1.00  0.00     0.063 H 
ATOM     75  C   UNL A   1      36.241  33.517  32.927  1.00  0.00    -0.014 A 
ATOM     76  H   UNL A   1      34.899  31.933  33.338  1.00  0.00     0.063 H 
ATOM     77  H   UNL A   1      37.252  35.306  32.429  1.00  0.00     0.063 H 
BRANCH  75  78
ATOM     78  C   UNL A   1      37.473  32.776  33.302  1.00  0.00     0.031 A 
ATOM     79  C   UNL A   1      38.193  33.099  34.581  1.00  0.00     0.074 A 
ATOM     80  C   UNL A   1      37.973  31.845  32.467  1.00  0.00     0.049 A 
ATOM     81  N   UNL A   1      39.302  32.590  35.056  1.00  0.00    -0.248 NA
ATOM     82  C   UNL A   1      37.604  34.147  35.428  1.00  0.00    -0.034 C 
ATOM     83  C   UNL A   1      37.391  31.483  31.177  1.00  0.00    -0.036 A 
ATOM     84  N   UNL A   1      39.083  31.045  32.564  1.00  0.00    -0.354 N 
ATOM     85  C   UNL A   1      39.546  33.261  36.245  1.00  0.00     0.074 A 
ATOM     86  C   UNL A   1      38.502  34.252  36.395  1.00  0.00    -0.034 C 
ATOM     87  H   UNL A   1      36.719  34.665  35.302  1.00  0.00     0.065 H 
ATOM     88  C   UNL A   1      38.133  30.523  30.606  1.00  0.00    -0.036 A 
ATOM     89  H   UNL A   1      36.540  31.900  30.769  1.00  0.00     0.065 H 
ATOM     90  C   UNL A   1      39.267  30.226  31.475  1.00  0.00     0.049 A 
ATOM     91  H   UNL A   1      39.689  31.054  33.339  1.00  0.00     0.167 HD
ATOM     92  C   UNL A   1      40.540  33.053  37.142  1.00  0.00     0.037 A 
ATOM     93  H   UNL A   1      38.464  34.948  37.156  1.00  0.00     0.065 H 
ATOM     94  H   UNL A   1      37.935  30.069  29.701  1.00  0.00     0.065 H 
ATOM     95  C   UNL A   1      40.245  29.343  31.202  1.00  0.00     0.037 A 
ATOM     96  C   UNL A   1      41.562  32.050  36.996  1.00  0.00     0.049 A 
ATOM     97  C   UNL A   1      41.339  29.136  32.212  1.00  0.00     0.074 A 
ATOM     98  C   UNL A   1      42.573  31.713  37.880  1.00  0.00    -0.036 A 
ATOM     99  N   UNL A   1      41.709  31.226  35.888  1.00  0.00    -0.354 N 
ATOM    100  N   UNL A   1      41.514  29.720  33.372  1.00  0.00    -0.248 NA
ATOM    101  C   UNL A   1      42.366  28.138  31.881  1.00  0.00    -0.034 C 
ATOM    102  C   UNL A   1      43.363  30.725  37.285  1.00  0.00    -0.036 A 
ATOM    103  H   UNL A   1      42.717  32.121  38.817  1.00  0.00     0.065 H 
ATOM    104  C   UNL A   1      42.811  30.402  36.055  1.00  0.00     0.049 A 
ATOM    105  H   UNL A   1      41.118  31.228  35.101  1.00  0.00     0.167 HD
ATOM    106  C   UNL A   1      42.651  29.145  33.921  1.00  0.00     0.074 A 
ATOM    107  C   UNL A   1      43.114  28.151  32.975  1.00  0.00    -0.034 C 
ATOM    108  H   UNL A   1      42.475  27.576  31.023  1.00  0.00     0.065 H 
ATOM    109  H   UNL A   1      44.213  30.306  37.693  1.00  0.00     0.065 H 
ATOM    110  C   UNL A   1      43.258  29.416  35.103  1.00  0.00     0.037 A 
ATOM    111  H   UNL A   1      43.924  27.531  33.133  1.00  0.00     0.065 H 
BRANCH  92 112
ATOM    112  C   UNL A   1      40.570  33.927  38.363  1.00  0.00     0.064 A 
ATOM    113  C   UNL A   1      41.328  35.106  38.409  1.00  0.00     0.173 A 
ATOM    114  C   UNL A   1      39.797  33.602  39.489  1.00  0.00     0.173 A 
ATOM    115  F   UNL A   1      42.093  35.458  37.364  1.00  0.00    -0.203 F 
ATOM    116  C   UNL A   1      41.336  35.911  39.545  1.00  0.00     0.198 A 
ATOM    117  C   UNL A   1      39.782  34.426  40.612  1.00  0.00     0.198 A 
ATOM    118  F   UNL A   1      39.049  32.489  39.497  1.00  0.00    -0.203 F 
ATOM    119  F   UNL A   1      42.109  37.006  39.583  1.00  0.00    -0.200 F 
ATOM    120  C   UNL A   1      40.558  35.575  40.642  1.00  0.00     0.200 A 
ATOM    121  F   UNL A   1      39.018  34.106  41.665  1.00  0.00    -0.200 F 
ATOM    122  F   UNL A   1      40.558  36.356  41.730  1.00  0.00    -0.200 F 
ENDBRANCH  92 112
BRANCH  95 123
ATOM    123  C   UNL A   1      40.222  28.577  29.927  1.00  0.00     0.064 A 
ATOM    124  C   UNL A   1      40.881  29.054  28.786  1.00  0.00     0.173 A 
ATOM    125  C   UNL A   1      39.540  27.356  29.824  1.00  0.00     0.173 A 
ATOM    126  F   UNL A   1      41.532  30.225  28.830  1.00  0.00    -0.203 F 
ATOM    127  C   UNL A   1      40.840  28.352  27.584  1.00  0.00     0.198 A 
ATOM    128  C   UNL A   1      39.526  26.638  28.629  1.00  0.00     0.198 A 
ATOM    129  F   UNL A   1      38.899  26.850  30.887  1.00  0.00    -0.203 F 
ATOM    130  F   UNL A   1      41.438  28.854  26.496  1.00  0.00    -0.200 F 
ATOM    131  C   UNL A   1      40.167  27.141  27.508  1.00  0.00     0.200 A 
ATOM    132  F   UNL A   1      38.890  25.460  28.564  1.00  0.00    -0.200 F 
ATOM    133  F   UNL A   1      40.132  26.463  26.353  1.00  0.00    -0.200 F 
ENDBRANCH  95 123
BRANCH 110 134
ATOM    134  C   UNL A   1      44.470  28.603  35.453  1.00  0.00     0.064 A 
ATOM    135  C   UNL A   1      44.367  27.385  36.142  1.00  0.00     0.173 A 
ATOM    136  C   UNL A   1      45.748  29.032  35.064  1.00  0.00     0.173 A 
ATOM    137  F   UNL A   1      43.170  26.938  36.549  1.00  0.00    -0.203 F 
ATOM    138  C   UNL A   1      45.502  26.643  36.455  1.00  0.00     0.198 A 
ATOM    139  C   UNL A   1      46.878  28.271  35.350  1.00  0.00     0.198 A 
ATOM    140  F   UNL A   1      45.901  30.186  34.398  1.00  0.00    -0.203 F 
ATOM    141  F   UNL A   1      45.385  25.510  37.161  1.00  0.00    -0.200 F 
ATOM    142  C   UNL A   1      46.755  27.082  36.052  1.00  0.00     0.200 A 
ATOM    143  F   UNL A   1      48.085  28.689  34.947  1.00  0.00    -0.200 F 
ATOM    144  F   UNL A   1      47.846  26.362  36.349  1.00  0.00    -0.200 F 
ENDBRANCH 110 134
ENDBRANCH  75  78
ENDBRANCH  65  68
ENDBRANCH  61  64
ENDBRANCH  58  61
ENDBRANCH  55  58
ENDBRANCH  52  55
ENDBRANCH   1  52
TORSDOF 22
ENDMDL
MODEL 4
REMARK VINA RESULT:     -10.4      3.327      5.541
REMARK SMILES COc1ccc(/C=C/c2cc(OC)cc(OC)c2/C=C/C(=O)NCCCCCCNC(=O)c2ccc(-c3c4nc(c(-c5c(F)c(F)c(F)c(F)c5F)c5ccc([nH]5)c(-c5c(F)c(F)c(F)c(F)c5F)c5nc(c(-c6c(F)c(F)c(F)c(F)c6F)c6ccc3[nH]6)C=C5)C=C4)cc2)cc1
REMARK SMILES IDX 25 1 24 4 23 7 21 8 22 9 20 11 19 12 18 15 9 16 10 17 11 18
REMARK SMILES IDX 15 20 14 21 8 23 7 24 6 27 3 28 4 29 97 30 5 31 96 33 2 37
REMARK SMILES IDX 1 38 12 42 13 43 16 47 17 48 26 52 27 55 28 58 29 61 30 64
REMARK SMILES IDX 31 65 32 67 33 68 34 69 95 70 35 71 94 73 36 75 37 78 38 79
REMARK SMILES IDX 88 80 39 81 93 82 87 83 89 84 40 85 92 86 86 88 85 90 41 92
REMARK SMILES IDX 73 95 53 96 72 97 54 98 57 99 71 100 90 101 55 102 56 104
REMARK SMILES IDX 70 106 91 107 58 110 42 112 43 113 51 114 44 115 45 116
REMARK SMILES IDX 49 117 52 118 46 119 47 120 50 121 48 122 74 123 75 124
REMARK SMILES IDX 83 125 76 126 77 127 81 128 84 129 78 130 79 131 82 132
REMARK SMILES IDX 80 133 59 134 60 135 68 136 61 137 62 138 66 139 69 140
REMARK SMILES IDX 63 141 64 142 67 143 65 144
REMARK H PARENT 25 2 25 3 24 5 24 6 23 10 19 13 20 14 10 19 14 22 7 25 8 26
REMARK H PARENT 4 32 97 34 5 35 96 36 1 39 1 40 1 41 13 44 13 45 13 46 17 49
REMARK H PARENT 17 50 17 51 26 53 26 54 27 56 27 57 28 59 28 60 29 62 29 63
REMARK H PARENT 30 66 34 72 95 74 35 76 94 77 93 87 87 89 89 91 92 93 86 94
REMARK H PARENT 54 103 57 105 90 108 55 109 91 111
REMARK Flexibility Score: inf
ROOT
ATOM      1  C   UNL A   1      38.568  23.980  26.672  1.00  0.00    -0.036 C 
ATOM      2  H   UNL A   1      38.429  23.776  27.712  1.00  0.00     0.028 H 
ATOM      3  H   UNL A   1      38.824  25.002  26.486  1.00  0.00     0.028 H 
ENDROOT
BRANCH   1   4
ATOM      4  C   UNL A   1      37.253  23.713  25.950  1.00  0.00     0.018 C 
ATOM      5  H   UNL A   1      36.731  22.927  26.455  1.00  0.00     0.049 H 
ATOM      6  H   UNL A   1      36.676  24.616  25.956  1.00  0.00     0.049 H 
BRANCH   4   7
ATOM      7  N   UNL A   1      37.475  23.324  24.576  1.00  0.00    -0.353 N 
ATOM      8  C   UNL A   1      36.572  23.237  23.565  1.00  0.00     0.244 C 
ATOM      9  O   UNL A   1      36.923  22.949  22.427  1.00  0.00    -0.270 OA
ATOM     10  H   UNL A   1      38.403  23.091  24.342  1.00  0.00     0.163 HD
BRANCH   8  11
ATOM     11  C   UNL A   1      35.155  23.544  23.842  1.00  0.00     0.004 C 
ATOM     12  C   UNL A   1      34.380  24.102  22.900  1.00  0.00    -0.045 C 
ATOM     13  H   UNL A   1      34.749  24.190  21.941  1.00  0.00     0.063 H 
ATOM     14  H   UNL A   1      34.756  23.326  24.769  1.00  0.00     0.068 H 
BRANCH  12  15
ATOM     15  C   UNL A   1      33.023  24.594  23.186  1.00  0.00     0.024 A 
ATOM     16  C   UNL A   1      31.976  23.640  23.350  1.00  0.00    -0.011 A 
ATOM     17  C   UNL A   1      30.654  24.075  23.554  1.00  0.00    -0.012 A 
ATOM     18  C   UNL A   1      30.341  25.429  23.586  1.00  0.00     0.123 A 
ATOM     19  H   UNL A   1      29.905  23.377  23.684  1.00  0.00     0.067 H 
ATOM     20  C   UNL A   1      32.701  25.968  23.240  1.00  0.00     0.130 A 
ATOM     21  C   UNL A   1      31.365  26.358  23.453  1.00  0.00     0.023 A 
ATOM     22  H   UNL A   1      31.140  27.363  23.511  1.00  0.00     0.070 H 
BRANCH  16  23
ATOM     23  C   UNL A   1      32.150  22.173  23.266  1.00  0.00    -0.054 C 
ATOM     24  C   UNL A   1      32.441  21.409  24.331  1.00  0.00    -0.054 C 
ATOM     25  H   UNL A   1      32.546  21.892  25.236  1.00  0.00     0.063 H 
ATOM     26  H   UNL A   1      32.044  21.717  22.346  1.00  0.00     0.063 H 
BRANCH  24  27
ATOM     27  C   UNL A   1      32.626  19.941  24.333  1.00  0.00    -0.025 A 
ATOM     28  C   UNL A   1      32.912  17.123  24.184  1.00  0.00     0.118 A 
ATOM     29  C   UNL A   1      33.038  17.790  25.403  1.00  0.00    -0.019 A 
ATOM     30  C   UNL A   1      32.666  17.867  23.033  1.00  0.00    -0.019 A 
ATOM     31  C   UNL A   1      32.903  19.185  25.478  1.00  0.00    -0.051 A 
ATOM     32  H   UNL A   1      33.232  17.250  26.261  1.00  0.00     0.066 H 
ATOM     33  C   UNL A   1      32.522  19.259  23.111  1.00  0.00    -0.051 A 
ATOM     34  H   UNL A   1      32.590  17.392  22.121  1.00  0.00     0.066 H 
ATOM     35  H   UNL A   1      33.008  19.659  26.388  1.00  0.00     0.063 H 
ATOM     36  H   UNL A   1      32.334  19.795  22.249  1.00  0.00     0.063 H 
BRANCH  28  37
ATOM     37  O   UNL A   1      33.008  15.759  24.252  1.00  0.00    -0.497 OA
BRANCH  37  38
ATOM     38  C   UNL A   1      32.534  15.143  25.443  1.00  0.00     0.078 C 
ATOM     39  H   UNL A   1      31.482  14.963  25.357  1.00  0.00     0.067 H 
ATOM     40  H   UNL A   1      32.718  15.789  26.276  1.00  0.00     0.067 H 
ATOM     41  H   UNL A   1      33.043  14.214  25.592  1.00  0.00     0.067 H 
ENDBRANCH  37  38
ENDBRANCH  28  37
ENDBRANCH  24  27
ENDBRANCH  16  23
BRANCH  18  42
ATOM     42  O   UNL A   1      29.015  25.726  23.742  1.00  0.00    -0.497 OA
BRANCH  42  43
ATOM     43  C   UNL A   1      28.646  27.082  23.504  1.00  0.00     0.078 C 
ATOM     44  H   UNL A   1      27.586  27.187  23.610  1.00  0.00     0.067 H 
ATOM     45  H   UNL A   1      28.935  27.362  22.513  1.00  0.00     0.067 H 
ATOM     46  H   UNL A   1      29.139  27.716  24.212  1.00  0.00     0.067 H 
ENDBRANCH  42  43
ENDBRANCH  18  42
BRANCH  20  47
ATOM     47  O   UNL A   1      33.475  27.085  23.068  1.00  0.00    -0.496 OA
BRANCH  47  48
ATOM     48  C   UNL A   1      33.032  28.389  23.385  1.00  0.00     0.078 C 
ATOM     49  H   UNL A   1      32.589  28.835  22.519  1.00  0.00     0.067 H 
ATOM     50  H   UNL A   1      33.865  28.981  23.704  1.00  0.00     0.067 H 
ATOM     51  H   UNL A   1      32.307  28.340  24.170  1.00  0.00     0.067 H 
ENDBRANCH  47  48
ENDBRANCH  20  47
ENDBRANCH  12  15
ENDBRANCH   8  11
ENDBRANCH   4   7
ENDBRANCH   1   4
BRANCH   1  52
ATOM     52  C   UNL A   1      39.735  23.127  26.164  1.00  0.00    -0.052 C 
ATOM     53  H   UNL A   1      40.613  23.739  26.152  1.00  0.00     0.027 H 
ATOM     54  H   UNL A   1      39.449  22.773  25.196  1.00  0.00     0.027 H 
BRANCH  52  55
ATOM     55  C   UNL A   1      40.039  21.879  27.003  1.00  0.00    -0.052 C 
ATOM     56  H   UNL A   1      39.226  21.727  27.681  1.00  0.00     0.027 H 
ATOM     57  H   UNL A   1      40.970  22.067  27.497  1.00  0.00     0.027 H 
BRANCH  55  58
ATOM     58  C   UNL A   1      40.232  20.596  26.195  1.00  0.00    -0.036 C 
ATOM     59  H   UNL A   1      40.704  20.852  25.268  1.00  0.00     0.028 H 
ATOM     60  H   UNL A   1      39.261  20.168  26.064  1.00  0.00     0.028 H 
BRANCH  58  61
ATOM     61  C   UNL A   1      41.082  19.537  26.884  1.00  0.00     0.018 C 
ATOM     62  H   UNL A   1      40.461  18.706  27.144  1.00  0.00     0.049 H 
ATOM     63  H   UNL A   1      41.520  19.971  27.759  1.00  0.00     0.049 H 
BRANCH  61  64
ATOM     64  N   UNL A   1      42.152  19.074  26.017  1.00  0.00    -0.352 N 
ATOM     65  C   UNL A   1      43.123  19.801  25.376  1.00  0.00     0.251 C 
ATOM     66  H   UNL A   1      42.184  18.102  25.868  1.00  0.00     0.163 HD
ATOM     67  O   UNL A   1      43.775  19.286  24.473  1.00  0.00    -0.269 OA
BRANCH  65  68
ATOM     68  C   UNL A   1      43.388  21.205  25.764  1.00  0.00     0.039 A 
ATOM     69  C   UNL A   1      43.289  22.200  24.788  1.00  0.00    -0.049 A 
ATOM     70  C   UNL A   1      43.783  21.539  27.062  1.00  0.00    -0.049 A 
ATOM     71  C   UNL A   1      43.551  23.530  25.121  1.00  0.00    -0.053 A 
ATOM     72  H   UNL A   1      43.023  21.952  23.822  1.00  0.00     0.063 H 
ATOM     73  C   UNL A   1      43.971  22.874  27.413  1.00  0.00    -0.053 A 
ATOM     74  H   UNL A   1      43.937  20.796  27.762  1.00  0.00     0.063 H 
ATOM     75  C   UNL A   1      43.872  23.883  26.443  1.00  0.00    -0.014 A 
ATOM     76  H   UNL A   1      43.508  24.260  24.392  1.00  0.00     0.063 H 
ATOM     77  H   UNL A   1      44.182  23.123  28.391  1.00  0.00     0.063 H 
BRANCH  75  78
ATOM     78  C   UNL A   1      44.121  25.299  26.818  1.00  0.00     0.031 A 
ATOM     79  C   UNL A   1      45.492  25.894  26.665  1.00  0.00     0.074 A 
ATOM     80  C   UNL A   1      43.123  26.035  27.343  1.00  0.00     0.049 A 
ATOM     81  N   UNL A   1      45.910  27.095  26.976  1.00  0.00    -0.248 NA
ATOM     82  C   UNL A   1      46.537  25.019  26.113  1.00  0.00    -0.034 C 
ATOM     83  C   UNL A   1      41.766  25.552  27.585  1.00  0.00    -0.036 A 
ATOM     84  N   UNL A   1      43.091  27.336  27.779  1.00  0.00    -0.354 N 
ATOM     85  C   UNL A   1      47.262  27.115  26.668  1.00  0.00     0.074 A 
ATOM     86  C   UNL A   1      47.609  25.792  26.198  1.00  0.00    -0.034 C 
ATOM     87  H   UNL A   1      46.456  24.056  25.751  1.00  0.00     0.065 H 
ATOM     88  C   UNL A   1      41.027  26.539  28.109  1.00  0.00    -0.036 A 
ATOM     89  H   UNL A   1      41.429  24.598  27.382  1.00  0.00     0.065 H 
ATOM     90  C   UNL A   1      41.869  27.720  28.275  1.00  0.00     0.049 A 
ATOM     91  H   UNL A   1      43.869  27.937  27.739  1.00  0.00     0.167 HD
ATOM     92  C   UNL A   1      48.131  28.152  26.750  1.00  0.00     0.037 A 
ATOM     93  H   UNL A   1      48.567  25.490  25.960  1.00  0.00     0.065 H 
ATOM     94  H   UNL A   1      40.027  26.476  28.356  1.00  0.00     0.065 H 
ATOM     95  C   UNL A   1      41.472  28.888  28.814  1.00  0.00     0.037 A 
ATOM     96  C   UNL A   1      47.772  29.472  27.199  1.00  0.00     0.049 A 
ATOM     97  C   UNL A   1      42.457  30.020  28.898  1.00  0.00     0.074 A 
ATOM     98  C   UNL A   1      48.560  30.608  27.254  1.00  0.00    -0.036 A 
ATOM     99  N   UNL A   1      46.519  29.830  27.679  1.00  0.00    -0.354 N 
ATOM    100  N   UNL A   1      43.714  30.051  28.527  1.00  0.00    -0.248 NA
ATOM    101  C   UNL A   1      41.967  31.284  29.465  1.00  0.00    -0.034 C 
ATOM    102  C   UNL A   1      47.802  31.639  27.817  1.00  0.00    -0.036 A 
ATOM    103  H   UNL A   1      49.538  30.681  26.934  1.00  0.00     0.065 H 
ATOM    104  C   UNL A   1      46.522  31.164  28.059  1.00  0.00     0.049 A 
ATOM    105  H   UNL A   1      45.744  29.227  27.741  1.00  0.00     0.167 HD
ATOM    106  C   UNL A   1      44.157  31.339  28.789  1.00  0.00     0.074 A 
ATOM    107  C   UNL A   1      43.028  32.066  29.333  1.00  0.00    -0.034 C 
ATOM    108  H   UNL A   1      41.039  31.504  29.860  1.00  0.00     0.065 H 
ATOM    109  H   UNL A   1      48.137  32.594  28.019  1.00  0.00     0.065 H 
ATOM    110  C   UNL A   1      45.389  31.873  28.597  1.00  0.00     0.037 A 
ATOM    111  H   UNL A   1      43.048  33.067  29.584  1.00  0.00     0.065 H 
BRANCH  92 112
ATOM    112  C   UNL A   1      49.554  27.901  26.344  1.00  0.00     0.064 A 
ATOM    113  C   UNL A   1      49.937  27.832  24.996  1.00  0.00     0.173 A 
ATOM    114  C   UNL A   1      50.557  27.768  27.317  1.00  0.00     0.173 A 
ATOM    115  F   UNL A   1      49.016  27.942  24.026  1.00  0.00    -0.203 F 
ATOM    116  C   UNL A   1      51.264  27.609  24.637  1.00  0.00     0.198 A 
ATOM    117  C   UNL A   1      51.889  27.577  26.954  1.00  0.00     0.198 A 
ATOM    118  F   UNL A   1      50.248  27.831  28.621  1.00  0.00    -0.203 F 
ATOM    119  F   UNL A   1      51.596  27.497  23.344  1.00  0.00    -0.200 F 
ATOM    120  C   UNL A   1      52.240  27.490  25.616  1.00  0.00     0.200 A 
ATOM    121  F   UNL A   1      52.831  27.477  27.901  1.00  0.00    -0.200 F 
ATOM    122  F   UNL A   1      53.517  27.287  25.268  1.00  0.00    -0.200 F 
ENDBRANCH  92 112
BRANCH  95 123
ATOM    123  C   UNL A   1      40.074  29.049  29.296  1.00  0.00     0.064 A 
ATOM    124  C   UNL A   1      39.740  28.807  30.634  1.00  0.00     0.173 A 
ATOM    125  C   UNL A   1      39.046  29.446  28.428  1.00  0.00     0.173 A 
ATOM    126  F   UNL A   1      40.684  28.408  31.499  1.00  0.00    -0.203 F 
ATOM    127  C   UNL A   1      38.427  28.932  31.083  1.00  0.00     0.198 A 
ATOM    128  C   UNL A   1      37.738  29.602  28.885  1.00  0.00     0.198 A 
ATOM    129  F   UNL A   1      39.312  29.698  27.139  1.00  0.00    -0.203 F 
ATOM    130  F   UNL A   1      38.126  28.648  32.358  1.00  0.00    -0.200 F 
ATOM    131  C   UNL A   1      37.428  29.335  30.209  1.00  0.00     0.200 A 
ATOM    132  F   UNL A   1      36.779  30.009  28.042  1.00  0.00    -0.200 F 
ATOM    133  F   UNL A   1      36.166  29.460  30.643  1.00  0.00    -0.200 F 
ENDBRANCH  95 123
BRANCH 110 134
ATOM    134  C   UNL A   1      45.570  33.321  28.947  1.00  0.00     0.064 A 
ATOM    135  C   UNL A   1      45.299  34.342  28.023  1.00  0.00     0.173 A 
ATOM    136  C   UNL A   1      45.988  33.692  30.234  1.00  0.00     0.173 A 
ATOM    137  F   UNL A   1      44.912  34.039  26.776  1.00  0.00    -0.203 F 
ATOM    138  C   UNL A   1      45.470  35.680  28.367  1.00  0.00     0.198 A 
ATOM    139  C   UNL A   1      46.126  35.033  30.584  1.00  0.00     0.198 A 
ATOM    140  F   UNL A   1      46.254  32.755  31.156  1.00  0.00    -0.203 F 
ATOM    141  F   UNL A   1      45.258  36.637  27.453  1.00  0.00    -0.200 F 
ATOM    142  C   UNL A   1      45.876  36.024  29.649  1.00  0.00     0.200 A 
ATOM    143  F   UNL A   1      46.503  35.364  31.827  1.00  0.00    -0.200 F 
ATOM    144  F   UNL A   1      46.033  37.313  29.979  1.00  0.00    -0.200 F 
ENDBRANCH 110 134
ENDBRANCH  75  78
ENDBRANCH  65  68
ENDBRANCH  61  64
ENDBRANCH  58  61
ENDBRANCH  55  58
ENDBRANCH  52  55
ENDBRANCH   1  52
TORSDOF 22
ENDMDL
MODEL 5
REMARK VINA RESULT:     -10.3      5.329     11.851
REMARK SMILES COc1ccc(/C=C/c2cc(OC)cc(OC)c2/C=C/C(=O)NCCCCCCNC(=O)c2ccc(-c3c4nc(c(-c5c(F)c(F)c(F)c(F)c5F)c5ccc([nH]5)c(-c5c(F)c(F)c(F)c(F)c5F)c5nc(c(-c6c(F)c(F)c(F)c(F)c6F)c6ccc3[nH]6)C=C5)C=C4)cc2)cc1
REMARK SMILES IDX 25 1 24 4 23 7 21 8 22 9 20 11 19 12 18 15 9 16 10 17 11 18
REMARK SMILES IDX 15 20 14 21 8 23 7 24 6 27 3 28 4 29 97 30 5 31 96 33 2 37
REMARK SMILES IDX 1 38 12 42 13 43 16 47 17 48 26 52 27 55 28 58 29 61 30 64
REMARK SMILES IDX 31 65 32 67 33 68 34 69 95 70 35 71 94 73 36 75 37 78 38 79
REMARK SMILES IDX 88 80 39 81 93 82 87 83 89 84 40 85 92 86 86 88 85 90 41 92
REMARK SMILES IDX 73 95 53 96 72 97 54 98 57 99 71 100 90 101 55 102 56 104
REMARK SMILES IDX 70 106 91 107 58 110 42 112 43 113 51 114 44 115 45 116
REMARK SMILES IDX 49 117 52 118 46 119 47 120 50 121 48 122 74 123 75 124
REMARK SMILES IDX 83 125 76 126 77 127 81 128 84 129 78 130 79 131 82 132
REMARK SMILES IDX 80 133 59 134 60 135 68 136 61 137 62 138 66 139 69 140
REMARK SMILES IDX 63 141 64 142 67 143 65 144
REMARK H PARENT 25 2 25 3 24 5 24 6 23 10 19 13 20 14 10 19 14 22 7 25 8 26
REMARK H PARENT 4 32 97 34 5 35 96 36 1 39 1 40 1 41 13 44 13 45 13 46 17 49
REMARK H PARENT 17 50 17 51 26 53 26 54 27 56 27 57 28 59 28 60 29 62 29 63
REMARK H PARENT 30 66 34 72 95 74 35 76 94 77 93 87 87 89 89 91 92 93 86 94
REMARK H PARENT 54 103 57 105 90 108 55 109 91 111
REMARK Flexibility Score: inf
ROOT
ATOM      1  C   UNL A   1      35.010  33.990  34.020  1.00  0.00    -0.036 C 
ATOM      2  H   UNL A   1      34.449  34.180  34.911  1.00  0.00     0.028 H 
ATOM      3  H   UNL A   1      34.493  33.344  33.341  1.00  0.00     0.028 H 
ENDROOT
BRANCH   1   4
ATOM      4  C   UNL A   1      36.303  33.284  34.408  1.00  0.00     0.018 C 
ATOM      5  H   UNL A   1      36.132  32.228  34.426  1.00  0.00     0.049 H 
ATOM      6  H   UNL A   1      37.053  33.533  33.685  1.00  0.00     0.049 H 
BRANCH   4   7
ATOM      7  N   UNL A   1      36.766  33.708  35.710  1.00  0.00    -0.353 N 
ATOM      8  C   UNL A   1      37.657  33.096  36.532  1.00  0.00     0.244 C 
ATOM      9  O   UNL A   1      38.000  33.612  37.589  1.00  0.00    -0.270 OA
ATOM     10  H   UNL A   1      36.385  34.553  36.045  1.00  0.00     0.163 HD
BRANCH   8  11
ATOM     11  C   UNL A   1      38.253  31.812  36.113  1.00  0.00     0.004 C 
ATOM     12  C   UNL A   1      39.413  31.784  35.439  1.00  0.00    -0.045 C 
ATOM     13  H   UNL A   1      39.949  32.660  35.337  1.00  0.00     0.063 H 
ATOM     14  H   UNL A   1      37.773  30.927  36.341  1.00  0.00     0.068 H 
BRANCH  12  15
ATOM     15  C   UNL A   1      39.948  30.550  34.843  1.00  0.00     0.024 A 
ATOM     16  C   UNL A   1      41.206  30.063  35.305  1.00  0.00    -0.011 A 
ATOM     17  C   UNL A   1      41.782  28.927  34.710  1.00  0.00    -0.012 A 
ATOM     18  C   UNL A   1      41.151  28.269  33.660  1.00  0.00     0.123 A 
ATOM     19  H   UNL A   1      42.688  28.575  35.059  1.00  0.00     0.067 H 
ATOM     20  C   UNL A   1      39.302  29.864  33.791  1.00  0.00     0.130 A 
ATOM     21  C   UNL A   1      39.913  28.727  33.228  1.00  0.00     0.023 A 
ATOM     22  H   UNL A   1      39.426  28.220  32.473  1.00  0.00     0.070 H 
BRANCH  16  23
ATOM     23  C   UNL A   1      42.023  30.704  36.359  1.00  0.00    -0.054 C 
ATOM     24  C   UNL A   1      43.286  30.335  36.631  1.00  0.00    -0.054 C 
ATOM     25  H   UNL A   1      43.678  29.565  36.069  1.00  0.00     0.063 H 
ATOM     26  H   UNL A   1      41.604  31.469  36.910  1.00  0.00     0.063 H 
BRANCH  24  27
ATOM     27  C   UNL A   1      44.169  30.925  37.661  1.00  0.00    -0.025 A 
ATOM     28  C   UNL A   1      45.885  31.903  39.698  1.00  0.00     0.118 A 
ATOM     29  C   UNL A   1      45.068  32.773  38.974  1.00  0.00    -0.019 A 
ATOM     30  C   UNL A   1      45.862  30.546  39.388  1.00  0.00    -0.019 A 
ATOM     31  C   UNL A   1      44.222  32.292  37.961  1.00  0.00    -0.051 A 
ATOM     32  H   UNL A   1      45.085  33.783  39.185  1.00  0.00     0.066 H 
ATOM     33  C   UNL A   1      45.010  30.065  38.384  1.00  0.00    -0.051 A 
ATOM     34  H   UNL A   1      46.474  29.892  39.899  1.00  0.00     0.066 H 
ATOM     35  H   UNL A   1      43.633  32.953  37.433  1.00  0.00     0.063 H 
ATOM     36  H   UNL A   1      45.001  29.056  38.171  1.00  0.00     0.063 H 
BRANCH  28  37
ATOM     37  O   UNL A   1      46.619  32.486  40.694  1.00  0.00    -0.497 OA
BRANCH  37  38
ATOM     38  C   UNL A   1      47.937  32.903  40.357  1.00  0.00     0.078 C 
ATOM     39  H   UNL A   1      48.192  32.528  39.387  1.00  0.00     0.067 H 
ATOM     40  H   UNL A   1      48.628  32.521  41.080  1.00  0.00     0.067 H 
ATOM     41  H   UNL A   1      47.983  33.972  40.349  1.00  0.00     0.067 H 
ENDBRANCH  37  38
ENDBRANCH  28  37
ENDBRANCH  24  27
ENDBRANCH  16  23
BRANCH  18  42
ATOM     42  O   UNL A   1      41.833  27.207  33.132  1.00  0.00    -0.497 OA
BRANCH  42  43
ATOM     43  C   UNL A   1      42.774  26.575  33.997  1.00  0.00     0.078 C 
ATOM     44  H   UNL A   1      42.430  25.591  34.240  1.00  0.00     0.067 H 
ATOM     45  H   UNL A   1      42.875  27.149  34.894  1.00  0.00     0.067 H 
ATOM     46  H   UNL A   1      43.722  26.511  33.506  1.00  0.00     0.067 H 
ENDBRANCH  42  43
ENDBRANCH  18  42
BRANCH  20  47
ATOM     47  O   UNL A   1      38.136  30.127  33.123  1.00  0.00    -0.496 OA
BRANCH  47  48
ATOM     48  C   UNL A   1      37.403  29.139  32.428  1.00  0.00     0.078 C 
ATOM     49  H   UNL A   1      36.990  28.443  33.128  1.00  0.00     0.067 H 
ATOM     50  H   UNL A   1      38.052  28.621  31.752  1.00  0.00     0.067 H 
ATOM     51  H   UNL A   1      36.611  29.602  31.878  1.00  0.00     0.067 H 
ENDBRANCH  47  48
ENDBRANCH  20  47
ENDBRANCH  12  15
ENDBRANCH   8  11
ENDBRANCH   4   7
ENDBRANCH   1   4
BRANCH   1  52
ATOM     52  C   UNL A   1      35.227  35.321  33.293  1.00  0.00    -0.052 C 
ATOM     53  H   UNL A   1      35.420  35.109  32.263  1.00  0.00     0.027 H 
ATOM     54  H   UNL A   1      36.043  35.803  33.789  1.00  0.00     0.027 H 
BRANCH  52  55
ATOM     55  C   UNL A   1      34.046  36.298  33.364  1.00  0.00    -0.052 C 
ATOM     56  H   UNL A   1      34.427  37.290  33.240  1.00  0.00     0.027 H 
ATOM     57  H   UNL A   1      33.582  36.141  34.316  1.00  0.00     0.027 H 
BRANCH  55  58
ATOM     58  C   UNL A   1      32.961  36.069  32.312  1.00  0.00    -0.036 C 
ATOM     59  H   UNL A   1      32.096  36.632  32.596  1.00  0.00     0.028 H 
ATOM     60  H   UNL A   1      32.781  35.015  32.284  1.00  0.00     0.028 H 
BRANCH  58  61
ATOM     61  C   UNL A   1      33.354  36.479  30.899  1.00  0.00     0.018 C 
ATOM     62  H   UNL A   1      34.416  36.408  30.797  1.00  0.00     0.049 H 
ATOM     63  H   UNL A   1      33.024  37.484  30.735  1.00  0.00     0.049 H 
BRANCH  61  64
ATOM     64  N   UNL A   1      32.725  35.623  29.909  1.00  0.00    -0.352 N 
ATOM     65  C   UNL A   1      33.277  34.613  29.161  1.00  0.00     0.251 C 
ATOM     66  H   UNL A   1      31.769  35.790  29.752  1.00  0.00     0.163 HD
ATOM     67  O   UNL A   1      32.676  34.178  28.184  1.00  0.00    -0.269 OA
BRANCH  65  68
ATOM     68  C   UNL A   1      34.596  34.048  29.522  1.00  0.00     0.039 A 
ATOM     69  C   UNL A   1      35.730  34.507  28.848  1.00  0.00    -0.049 A 
ATOM     70  C   UNL A   1      34.716  33.034  30.477  1.00  0.00    -0.049 A 
ATOM     71  C   UNL A   1      36.985  33.978  29.155  1.00  0.00    -0.053 A 
ATOM     72  H   UNL A   1      35.640  35.238  28.124  1.00  0.00     0.063 H 
ATOM     73  C   UNL A   1      35.976  32.560  30.837  1.00  0.00    -0.053 A 
ATOM     74  H   UNL A   1      33.871  32.635  30.915  1.00  0.00     0.063 H 
ATOM     75  C   UNL A   1      37.123  33.016  30.170  1.00  0.00    -0.014 A 
ATOM     76  H   UNL A   1      37.818  34.296  28.635  1.00  0.00     0.063 H 
ATOM     77  H   UNL A   1      36.066  31.871  31.599  1.00  0.00     0.063 H 
BRANCH  75  78
ATOM     78  C   UNL A   1      38.456  32.468  30.529  1.00  0.00     0.031 A 
ATOM     79  C   UNL A   1      38.928  31.171  29.936  1.00  0.00     0.074 A 
ATOM     80  C   UNL A   1      39.223  33.114  31.428  1.00  0.00     0.049 A 
ATOM     81  N   UNL A   1      40.040  30.516  30.160  1.00  0.00    -0.248 NA
ATOM     82  C   UNL A   1      38.024  30.508  28.985  1.00  0.00    -0.034 C 
ATOM     83  C   UNL A   1      38.850  34.352  32.107  1.00  0.00    -0.036 A 
ATOM     84  N   UNL A   1      40.462  32.821  31.937  1.00  0.00    -0.354 N 
ATOM     85  C   UNL A   1      39.963  29.366  29.389  1.00  0.00     0.074 A 
ATOM     86  C   UNL A   1      38.674  29.382  28.733  1.00  0.00    -0.034 C 
ATOM     87  H   UNL A   1      37.120  30.836  28.610  1.00  0.00     0.065 H 
ATOM     88  C   UNL A   1      39.839  34.726  32.931  1.00  0.00    -0.036 A 
ATOM     89  H   UNL A   1      37.962  34.862  31.973  1.00  0.00     0.065 H 
ATOM     90  C   UNL A   1      40.905  33.732  32.866  1.00  0.00     0.049 A 
ATOM     91  H   UNL A   1      40.986  32.034  31.663  1.00  0.00     0.167 HD
ATOM     92  C   UNL A   1      40.894  28.396  29.225  1.00  0.00     0.037 A 
ATOM     93  H   UNL A   1      38.308  28.616  28.145  1.00  0.00     0.065 H 
ATOM     94  H   UNL A   1      39.846  35.576  33.515  1.00  0.00     0.065 H 
ATOM     95  C   UNL A   1      42.038  33.759  33.592  1.00  0.00     0.037 A 
ATOM     96  C   UNL A   1      42.184  28.400  29.866  1.00  0.00     0.049 A 
ATOM     97  C   UNL A   1      43.052  32.667  33.396  1.00  0.00     0.074 A 
ATOM     98  C   UNL A   1      43.225  27.500  29.714  1.00  0.00    -0.036 A 
ATOM     99  N   UNL A   1      42.606  29.347  30.788  1.00  0.00    -0.354 N 
ATOM    100  N   UNL A   1      43.002  31.626  32.601  1.00  0.00    -0.248 NA
ATOM    101  C   UNL A   1      44.286  32.759  34.189  1.00  0.00    -0.034 C 
ATOM    102  C   UNL A   1      44.254  27.872  30.583  1.00  0.00    -0.036 A 
ATOM    103  H   UNL A   1      43.238  26.694  29.069  1.00  0.00     0.065 H 
ATOM    104  C   UNL A   1      43.882  29.037  31.235  1.00  0.00     0.049 A 
ATOM    105  H   UNL A   1      42.078  30.124  31.081  1.00  0.00     0.167 HD
ATOM    106  C   UNL A   1      44.204  30.954  32.777  1.00  0.00     0.074 A 
ATOM    107  C   UNL A   1      44.971  31.717  33.740  1.00  0.00    -0.034 C 
ATOM    108  H   UNL A   1      44.550  33.453  34.906  1.00  0.00     0.065 H 
ATOM    109  H   UNL A   1      45.143  27.365  30.718  1.00  0.00     0.065 H 
ATOM    110  C   UNL A   1      44.633  29.808  32.193  1.00  0.00     0.037 A 
ATOM    111  H   UNL A   1      45.930  31.479  34.037  1.00  0.00     0.065 H 
BRANCH  92 112
ATOM    112  C   UNL A   1      40.553  27.249  28.319  1.00  0.00     0.064 A 
ATOM    113  C   UNL A   1      41.139  27.111  27.051  1.00  0.00     0.173 A 
ATOM    114  C   UNL A   1      39.659  26.253  28.739  1.00  0.00     0.173 A 
ATOM    115  F   UNL A   1      41.992  28.041  26.596  1.00  0.00    -0.203 F 
ATOM    116  C   UNL A   1      40.819  26.034  26.226  1.00  0.00     0.198 A 
ATOM    117  C   UNL A   1      39.366  25.161  27.924  1.00  0.00     0.198 A 
ATOM    118  F   UNL A   1      39.074  26.332  29.943  1.00  0.00    -0.203 F 
ATOM    119  F   UNL A   1      41.353  25.951  25.000  1.00  0.00    -0.200 F 
ATOM    120  C   UNL A   1      39.940  25.057  26.667  1.00  0.00     0.200 A 
ATOM    121  F   UNL A   1      38.528  24.210  28.358  1.00  0.00    -0.200 F 
ATOM    122  F   UNL A   1      39.642  24.017  25.877  1.00  0.00    -0.200 F 
ENDBRANCH  92 112
BRANCH  95 123
ATOM    123  C   UNL A   1      42.280  34.867  34.555  1.00  0.00     0.064 A 
ATOM    124  C   UNL A   1      42.027  34.703  35.923  1.00  0.00     0.173 A 
ATOM    125  C   UNL A   1      42.764  36.112  34.126  1.00  0.00     0.173 A 
ATOM    126  F   UNL A   1      41.546  33.537  36.379  1.00  0.00    -0.203 F 
ATOM    127  C   UNL A   1      42.228  35.747  36.823  1.00  0.00     0.198 A 
ATOM    128  C   UNL A   1      42.995  37.146  35.032  1.00  0.00     0.198 A 
ATOM    129  F   UNL A   1      43.029  36.321  32.828  1.00  0.00    -0.203 F 
ATOM    130  F   UNL A   1      41.933  35.577  38.119  1.00  0.00    -0.200 F 
ATOM    131  C   UNL A   1      42.717  36.966  36.378  1.00  0.00     0.200 A 
ATOM    132  F   UNL A   1      43.485  38.316  34.600  1.00  0.00    -0.200 F 
ATOM    133  F   UNL A   1      42.915  37.968  37.245  1.00  0.00    -0.200 F 
ENDBRANCH  95 123
BRANCH 110 134
ATOM    134  C   UNL A   1      46.008  29.329  32.556  1.00  0.00     0.064 A 
ATOM    135  C   UNL A   1      46.252  28.621  33.742  1.00  0.00     0.173 A 
ATOM    136  C   UNL A   1      47.088  29.552  31.689  1.00  0.00     0.173 A 
ATOM    137  F   UNL A   1      45.257  28.395  34.612  1.00  0.00    -0.203 F 
ATOM    138  C   UNL A   1      47.534  28.181  34.061  1.00  0.00     0.198 A 
ATOM    139  C   UNL A   1      48.363  29.082  31.995  1.00  0.00     0.198 A 
ATOM    140  F   UNL A   1      46.907  30.218  30.539  1.00  0.00    -0.203 F 
ATOM    141  F   UNL A   1      47.755  27.555  35.225  1.00  0.00    -0.200 F 
ATOM    142  C   UNL A   1      48.586  28.405  33.184  1.00  0.00     0.200 A 
ATOM    143  F   UNL A   1      49.374  29.286  31.140  1.00  0.00    -0.200 F 
ATOM    144  F   UNL A   1      49.818  27.975  33.489  1.00  0.00    -0.200 F 
ENDBRANCH 110 134
ENDBRANCH  75  78
ENDBRANCH  65  68
ENDBRANCH  61  64
ENDBRANCH  58  61
ENDBRANCH  55  58
ENDBRANCH  52  55
ENDBRANCH   1  52
TORSDOF 22
ENDMDL
MODEL 6
REMARK VINA RESULT:     -10.1      3.526      6.501
REMARK SMILES COc1ccc(/C=C/c2cc(OC)cc(OC)c2/C=C/C(=O)NCCCCCCNC(=O)c2ccc(-c3c4nc(c(-c5c(F)c(F)c(F)c(F)c5F)c5ccc([nH]5)c(-c5c(F)c(F)c(F)c(F)c5F)c5nc(c(-c6c(F)c(F)c(F)c(F)c6F)c6ccc3[nH]6)C=C5)C=C4)cc2)cc1
REMARK SMILES IDX 25 1 24 4 23 7 21 8 22 9 20 11 19 12 18 15 9 16 10 17 11 18
REMARK SMILES IDX 15 20 14 21 8 23 7 24 6 27 3 28 4 29 97 30 5 31 96 33 2 37
REMARK SMILES IDX 1 38 12 42 13 43 16 47 17 48 26 52 27 55 28 58 29 61 30 64
REMARK SMILES IDX 31 65 32 67 33 68 34 69 95 70 35 71 94 73 36 75 37 78 38 79
REMARK SMILES IDX 88 80 39 81 93 82 87 83 89 84 40 85 92 86 86 88 85 90 41 92
REMARK SMILES IDX 73 95 53 96 72 97 54 98 57 99 71 100 90 101 55 102 56 104
REMARK SMILES IDX 70 106 91 107 58 110 42 112 43 113 51 114 44 115 45 116
REMARK SMILES IDX 49 117 52 118 46 119 47 120 50 121 48 122 74 123 75 124
REMARK SMILES IDX 83 125 76 126 77 127 81 128 84 129 78 130 79 131 82 132
REMARK SMILES IDX 80 133 59 134 60 135 68 136 61 137 62 138 66 139 69 140
REMARK SMILES IDX 63 141 64 142 67 143 65 144
REMARK H PARENT 25 2 25 3 24 5 24 6 23 10 19 13 20 14 10 19 14 22 7 25 8 26
REMARK H PARENT 4 32 97 34 5 35 96 36 1 39 1 40 1 41 13 44 13 45 13 46 17 49
REMARK H PARENT 17 50 17 51 26 53 26 54 27 56 27 57 28 59 28 60 29 62 29 63
REMARK H PARENT 30 66 34 72 95 74 35 76 94 77 93 87 87 89 89 91 92 93 86 94
REMARK H PARENT 54 103 57 105 90 108 55 109 91 111
REMARK Flexibility Score: inf
ROOT
ATOM      1  C   UNL A   1      38.867  24.053  26.688  1.00  0.00    -0.036 C 
ATOM      2  H   UNL A   1      38.867  24.034  27.758  1.00  0.00     0.028 H 
ATOM      3  H   UNL A   1      39.129  25.014  26.297  1.00  0.00     0.028 H 
ENDROOT
BRANCH   1   4
ATOM      4  C   UNL A   1      37.458  23.742  26.202  1.00  0.00     0.018 C 
ATOM      5  H   UNL A   1      37.143  22.808  26.618  1.00  0.00     0.049 H 
ATOM      6  H   UNL A   1      36.810  24.535  26.517  1.00  0.00     0.049 H 
BRANCH   4   7
ATOM      7  N   UNL A   1      37.404  23.657  24.760  1.00  0.00    -0.353 N 
ATOM      8  C   UNL A   1      36.358  23.295  23.973  1.00  0.00     0.244 C 
ATOM      9  O   UNL A   1      36.446  23.329  22.751  1.00  0.00    -0.270 OA
ATOM     10  H   UNL A   1      38.236  23.891  24.286  1.00  0.00     0.163 HD
BRANCH   8  11
ATOM     11  C   UNL A   1      35.084  22.904  24.608  1.00  0.00     0.004 C 
ATOM     12  C   UNL A   1      33.967  23.614  24.393  1.00  0.00    -0.045 C 
ATOM     13  H   UNL A   1      33.979  24.354  23.674  1.00  0.00     0.063 H 
ATOM     14  H   UNL A   1      35.053  22.075  25.223  1.00  0.00     0.068 H 
BRANCH  12  15
ATOM     15  C   UNL A   1      32.725  23.375  25.144  1.00  0.00     0.024 A 
ATOM     16  C   UNL A   1      32.220  24.420  25.973  1.00  0.00    -0.011 A 
ATOM     17  C   UNL A   1      31.075  24.204  26.759  1.00  0.00    -0.012 A 
ATOM     18  C   UNL A   1      30.425  22.975  26.757  1.00  0.00     0.123 A 
ATOM     19  H   UNL A   1      30.711  24.970  27.347  1.00  0.00     0.067 H 
ATOM     20  C   UNL A   1      32.047  22.136  25.131  1.00  0.00     0.130 A 
ATOM     21  C   UNL A   1      30.900  21.965  25.930  1.00  0.00     0.023 A 
ATOM     22  H   UNL A   1      30.399  21.064  25.900  1.00  0.00     0.070 H 
BRANCH  16  23
ATOM     23  C   UNL A   1      32.851  25.749  26.131  1.00  0.00    -0.054 C 
ATOM     24  C   UNL A   1      32.177  26.833  26.549  1.00  0.00    -0.054 C 
ATOM     25  H   UNL A   1      31.175  26.707  26.759  1.00  0.00     0.063 H 
ATOM     26  H   UNL A   1      33.854  25.848  25.910  1.00  0.00     0.063 H 
BRANCH  24  27
ATOM     27  C   UNL A   1      32.731  28.191  26.738  1.00  0.00    -0.025 A 
ATOM     28  C   UNL A   1      33.938  30.726  27.152  1.00  0.00     0.118 A 
ATOM     29  C   UNL A   1      32.556  30.609  26.999  1.00  0.00    -0.019 A 
ATOM     30  C   UNL A   1      34.721  29.577  27.074  1.00  0.00    -0.019 A 
ATOM     31  C   UNL A   1      31.957  29.357  26.788  1.00  0.00    -0.051 A 
ATOM     32  H   UNL A   1      31.965  31.455  27.042  1.00  0.00     0.066 H 
ATOM     33  C   UNL A   1      34.122  28.326  26.874  1.00  0.00    -0.051 A 
ATOM     34  H   UNL A   1      35.746  29.648  27.165  1.00  0.00     0.066 H 
ATOM     35  H   UNL A   1      30.934  29.295  26.669  1.00  0.00     0.063 H 
ATOM     36  H   UNL A   1      34.717  27.485  26.826  1.00  0.00     0.063 H 
BRANCH  28  37
ATOM     37  O   UNL A   1      34.392  31.991  27.408  1.00  0.00    -0.497 OA
BRANCH  37  38
ATOM     38  C   UNL A   1      34.902  32.236  28.713  1.00  0.00     0.078 C 
ATOM     39  H   UNL A   1      34.458  31.547  29.404  1.00  0.00     0.067 H 
ATOM     40  H   UNL A   1      34.666  33.237  29.006  1.00  0.00     0.067 H 
ATOM     41  H   UNL A   1      35.964  32.104  28.712  1.00  0.00     0.067 H 
ENDBRANCH  37  38
ENDBRANCH  28  37
ENDBRANCH  24  27
ENDBRANCH  16  23
BRANCH  18  42
ATOM     42  O   UNL A   1      29.353  22.871  27.600  1.00  0.00    -0.497 OA
BRANCH  42  43
ATOM     43  C   UNL A   1      28.375  21.894  27.251  1.00  0.00     0.078 C 
ATOM     44  H   UNL A   1      28.779  21.234  26.511  1.00  0.00     0.067 H 
ATOM     45  H   UNL A   1      27.507  22.381  26.860  1.00  0.00     0.067 H 
ATOM     46  H   UNL A   1      28.107  21.332  28.121  1.00  0.00     0.067 H 
ENDBRANCH  42  43
ENDBRANCH  18  42
BRANCH  20  47
ATOM     47  O   UNL A   1      32.326  20.961  24.485  1.00  0.00    -0.496 OA
BRANCH  47  48
ATOM     48  C   UNL A   1      33.007  19.885  25.096  1.00  0.00     0.078 C 
ATOM     49  H   UNL A   1      33.955  20.223  25.460  1.00  0.00     0.067 H 
ATOM     50  H   UNL A   1      33.159  19.105  24.379  1.00  0.00     0.067 H 
ATOM     51  H   UNL A   1      32.426  19.511  25.913  1.00  0.00     0.067 H 
ENDBRANCH  47  48
ENDBRANCH  20  47
ENDBRANCH  12  15
ENDBRANCH   8  11
ENDBRANCH   4   7
ENDBRANCH   1   4
BRANCH   1  52
ATOM     52  C   UNL A   1      39.926  23.064  26.188  1.00  0.00    -0.052 C 
ATOM     53  H   UNL A   1      40.831  23.606  26.015  1.00  0.00     0.027 H 
ATOM     54  H   UNL A   1      39.522  22.615  25.305  1.00  0.00     0.027 H 
BRANCH  52  55
ATOM     55  C   UNL A   1      40.240  21.910  27.149  1.00  0.00    -0.052 C 
ATOM     56  H   UNL A   1      39.460  21.862  27.879  1.00  0.00     0.027 H 
ATOM     57  H   UNL A   1      41.200  22.122  27.572  1.00  0.00     0.027 H 
BRANCH  55  58
ATOM     58  C   UNL A   1      40.357  20.538  26.485  1.00  0.00    -0.036 C 
ATOM     59  H   UNL A   1      40.641  20.684  25.463  1.00  0.00     0.028 H 
ATOM     60  H   UNL A   1      39.402  20.066  26.589  1.00  0.00     0.028 H 
BRANCH  58  61
ATOM     61  C   UNL A   1      41.373  19.606  27.132  1.00  0.00     0.018 C 
ATOM     62  H   UNL A   1      40.858  18.777  27.568  1.00  0.00     0.049 H 
ATOM     63  H   UNL A   1      41.908  20.156  27.879  1.00  0.00     0.049 H 
BRANCH  61  64
ATOM     64  N   UNL A   1      42.328  19.110  26.157  1.00  0.00    -0.352 N 
ATOM     65  C   UNL A   1      43.220  19.809  25.384  1.00  0.00     0.251 C 
ATOM     66  H   UNL A   1      42.337  18.134  26.034  1.00  0.00     0.163 HD
ATOM     67  O   UNL A   1      43.755  19.263  24.424  1.00  0.00    -0.269 OA
BRANCH  65  68
ATOM     68  C   UNL A   1      43.537  21.221  25.696  1.00  0.00     0.039 A 
ATOM     69  C   UNL A   1      44.005  21.537  26.974  1.00  0.00    -0.049 A 
ATOM     70  C   UNL A   1      43.326  22.238  24.760  1.00  0.00    -0.049 A 
ATOM     71  C   UNL A   1      44.295  22.863  27.301  1.00  0.00    -0.053 A 
ATOM     72  H   UNL A   1      44.137  20.790  27.675  1.00  0.00     0.063 H 
ATOM     73  C   UNL A   1      43.686  23.550  25.062  1.00  0.00    -0.053 A 
ATOM     74  H   UNL A   1      42.902  22.017  23.845  1.00  0.00     0.063 H 
ATOM     75  C   UNL A   1      44.160  23.879  26.341  1.00  0.00    -0.014 A 
ATOM     76  H   UNL A   1      44.610  23.098  28.255  1.00  0.00     0.063 H 
ATOM     77  H   UNL A   1      43.605  24.283  24.341  1.00  0.00     0.063 H 
BRANCH  75  78
ATOM     78  C   UNL A   1      44.495  25.289  26.666  1.00  0.00     0.031 A 
ATOM     79  C   UNL A   1      45.897  25.797  26.481  1.00  0.00     0.074 A 
ATOM     80  C   UNL A   1      43.548  26.100  27.174  1.00  0.00     0.049 A 
ATOM     81  N   UNL A   1      46.388  26.981  26.748  1.00  0.00    -0.248 NA
ATOM     82  C   UNL A   1      46.883  24.845  25.949  1.00  0.00    -0.034 C 
ATOM     83  C   UNL A   1      42.168  25.706  27.444  1.00  0.00    -0.036 A 
ATOM     84  N   UNL A   1      43.597  27.414  27.566  1.00  0.00    -0.354 N 
ATOM     85  C   UNL A   1      47.736  26.911  26.428  1.00  0.00     0.074 A 
ATOM     86  C   UNL A   1      48.000  25.555  25.999  1.00  0.00    -0.034 C 
ATOM     87  H   UNL A   1      46.742  23.876  25.622  1.00  0.00     0.065 H 
ATOM     88  C   UNL A   1      41.493  26.752  27.941  1.00  0.00    -0.036 A 
ATOM     89  H   UNL A   1      41.773  24.767  27.276  1.00  0.00     0.065 H 
ATOM     90  C   UNL A   1      42.405  27.886  28.060  1.00  0.00     0.049 A 
ATOM     91  H   UNL A   1      44.409  27.967  27.499  1.00  0.00     0.167 HD
ATOM     92  C   UNL A   1      48.664  27.897  26.466  1.00  0.00     0.037 A 
ATOM     93  H   UNL A   1      48.936  25.189  25.763  1.00  0.00     0.065 H 
ATOM     94  H   UNL A   1      40.494  26.756  28.198  1.00  0.00     0.065 H 
ATOM     95  C   UNL A   1      42.083  29.092  28.562  1.00  0.00     0.037 A 
ATOM     96  C   UNL A   1      48.388  29.250  26.874  1.00  0.00     0.049 A 
ATOM     97  C   UNL A   1      43.133  30.167  28.599  1.00  0.00     0.074 A 
ATOM     98  C   UNL A   1      49.242  30.339  26.883  1.00  0.00    -0.036 A 
ATOM     99  N   UNL A   1      47.164  29.698  27.352  1.00  0.00    -0.354 N 
ATOM    100  N   UNL A   1      44.385  30.111  28.216  1.00  0.00    -0.248 NA
ATOM    101  C   UNL A   1      42.724  31.476  29.127  1.00  0.00    -0.034 C 
ATOM    102  C   UNL A   1      48.552  31.431  27.418  1.00  0.00    -0.036 A 
ATOM    103  H   UNL A   1      50.219  30.344  26.553  1.00  0.00     0.065 H 
ATOM    104  C   UNL A   1      47.249  31.040  27.687  1.00  0.00     0.049 A 
ATOM    105  H   UNL A   1      46.356  29.143  27.441  1.00  0.00     0.167 HD
ATOM    106  C   UNL A   1      44.907  31.379  28.431  1.00  0.00     0.074 A 
ATOM    107  C   UNL A   1      43.828  32.189  28.959  1.00  0.00    -0.034 C 
ATOM    108  H   UNL A   1      41.815  31.763  29.523  1.00  0.00     0.065 H 
ATOM    109  H   UNL A   1      48.945  32.371  27.584  1.00  0.00     0.065 H 
ATOM    110  C   UNL A   1      46.165  31.833  28.210  1.00  0.00     0.037 A 
ATOM    111  H   UNL A   1      43.909  33.194  29.177  1.00  0.00     0.065 H 
BRANCH  92 112
ATOM    112  C   UNL A   1      50.067  27.550  26.057  1.00  0.00     0.064 A 
ATOM    113  C   UNL A   1      51.048  27.209  27.001  1.00  0.00     0.173 A 
ATOM    114  C   UNL A   1      50.424  27.517  24.701  1.00  0.00     0.173 A 
ATOM    115  F   UNL A   1      50.763  27.235  28.311  1.00  0.00    -0.203 F 
ATOM    116  C   UNL A   1      52.342  26.879  26.603  1.00  0.00     0.198 A 
ATOM    117  C   UNL A   1      51.709  27.154  24.305  1.00  0.00     0.198 A 
ATOM    118  F   UNL A   1      49.523  27.827  23.756  1.00  0.00    -0.203 F 
ATOM    119  F   UNL A   1      53.275  26.607  27.526  1.00  0.00    -0.200 F 
ATOM    120  C   UNL A   1      52.669  26.844  25.256  1.00  0.00     0.200 A 
ATOM    121  F   UNL A   1      52.019  27.107  23.002  1.00  0.00    -0.200 F 
ATOM    122  F   UNL A   1      53.910  26.515  24.875  1.00  0.00    -0.200 F 
ENDBRANCH  92 112
BRANCH  95 123
ATOM    123  C   UNL A   1      40.702  29.352  29.050  1.00  0.00     0.064 A 
ATOM    124  C   UNL A   1      39.654  29.600  28.154  1.00  0.00     0.173 A 
ATOM    125  C   UNL A   1      40.403  29.358  30.420  1.00  0.00     0.173 A 
ATOM    126  F   UNL A   1      39.893  29.622  26.834  1.00  0.00    -0.203 F 
ATOM    127  C   UNL A   1      38.365  29.869  28.609  1.00  0.00     0.198 A 
ATOM    128  C   UNL A   1      39.106  29.596  30.874  1.00  0.00     0.198 A 
ATOM    129  F   UNL A   1      41.367  29.119  31.321  1.00  0.00    -0.203 F 
ATOM    130  F   UNL A   1      37.392  30.151  27.732  1.00  0.00    -0.200 F 
ATOM    131  C   UNL A   1      38.091  29.861  29.969  1.00  0.00     0.200 A 
ATOM    132  F   UNL A   1      38.842  29.569  32.187  1.00  0.00    -0.200 F 
ATOM    133  F   UNL A   1      36.850  30.114  30.405  1.00  0.00    -0.200 F 
ENDBRANCH  95 123
BRANCH 110 134
ATOM    134  C   UNL A   1      46.434  33.279  28.509  1.00  0.00     0.064 A 
ATOM    135  C   UNL A   1      46.888  33.699  29.769  1.00  0.00     0.173 A 
ATOM    136  C   UNL A   1      46.266  34.252  27.513  1.00  0.00     0.173 A 
ATOM    137  F   UNL A   1      47.050  32.810  30.759  1.00  0.00    -0.203 F 
ATOM    138  C   UNL A   1      47.136  35.044  30.027  1.00  0.00     0.198 A 
ATOM    139  C   UNL A   1      46.546  35.592  27.765  1.00  0.00     0.198 A 
ATOM    140  F   UNL A   1      45.840  33.902  26.290  1.00  0.00    -0.203 F 
ATOM    141  F   UNL A   1      47.517  35.429  31.253  1.00  0.00    -0.200 F 
ATOM    142  C   UNL A   1      46.971  35.988  29.023  1.00  0.00     0.200 A 
ATOM    143  F   UNL A   1      46.401  36.500  26.790  1.00  0.00    -0.200 F 
ATOM    144  F   UNL A   1      47.216  37.282  29.272  1.00  0.00    -0.200 F 
ENDBRANCH 110 134
ENDBRANCH  75  78
ENDBRANCH  65  68
ENDBRANCH  61  64
ENDBRANCH  58  61
ENDBRANCH  55  58
ENDBRANCH  52  55
ENDBRANCH   1  52
TORSDOF 22
ENDMDL
MODEL 7
REMARK VINA RESULT:     -10.1      4.704     11.417
REMARK SMILES COc1ccc(/C=C/c2cc(OC)cc(OC)c2/C=C/C(=O)NCCCCCCNC(=O)c2ccc(-c3c4nc(c(-c5c(F)c(F)c(F)c(F)c5F)c5ccc([nH]5)c(-c5c(F)c(F)c(F)c(F)c5F)c5nc(c(-c6c(F)c(F)c(F)c(F)c6F)c6ccc3[nH]6)C=C5)C=C4)cc2)cc1
REMARK SMILES IDX 25 1 24 4 23 7 21 8 22 9 20 11 19 12 18 15 9 16 10 17 11 18
REMARK SMILES IDX 15 20 14 21 8 23 7 24 6 27 3 28 4 29 97 30 5 31 96 33 2 37
REMARK SMILES IDX 1 38 12 42 13 43 16 47 17 48 26 52 27 55 28 58 29 61 30 64
REMARK SMILES IDX 31 65 32 67 33 68 34 69 95 70 35 71 94 73 36 75 37 78 38 79
REMARK SMILES IDX 88 80 39 81 93 82 87 83 89 84 40 85 92 86 86 88 85 90 41 92
REMARK SMILES IDX 73 95 53 96 72 97 54 98 57 99 71 100 90 101 55 102 56 104
REMARK SMILES IDX 70 106 91 107 58 110 42 112 43 113 51 114 44 115 45 116
REMARK SMILES IDX 49 117 52 118 46 119 47 120 50 121 48 122 74 123 75 124
REMARK SMILES IDX 83 125 76 126 77 127 81 128 84 129 78 130 79 131 82 132
REMARK SMILES IDX 80 133 59 134 60 135 68 136 61 137 62 138 66 139 69 140
REMARK SMILES IDX 63 141 64 142 67 143 65 144
REMARK H PARENT 25 2 25 3 24 5 24 6 23 10 19 13 20 14 10 19 14 22 7 25 8 26
REMARK H PARENT 4 32 97 34 5 35 96 36 1 39 1 40 1 41 13 44 13 45 13 46 17 49
REMARK H PARENT 17 50 17 51 26 53 26 54 27 56 27 57 28 59 28 60 29 62 29 63
REMARK H PARENT 30 66 34 72 95 74 35 76 94 77 93 87 87 89 89 91 92 93 86 94
REMARK H PARENT 54 103 57 105 90 108 55 109 91 111
REMARK Flexibility Score: inf
ROOT
ATOM      1  C   UNL A   1      36.544  31.355  31.959  1.00  0.00    -0.036 C 
ATOM      2  H   UNL A   1      35.559  31.684  32.216  1.00  0.00     0.028 H 
ATOM      3  H   UNL A   1      36.535  30.559  31.244  1.00  0.00     0.028 H 
ENDROOT
BRANCH   1   4
ATOM      4  C   UNL A   1      37.213  30.815  33.217  1.00  0.00     0.018 C 
ATOM      5  H   UNL A   1      37.722  31.616  33.711  1.00  0.00     0.049 H 
ATOM      6  H   UNL A   1      36.456  30.400  33.850  1.00  0.00     0.049 H 
BRANCH   4   7
ATOM      7  N   UNL A   1      38.166  29.775  32.902  1.00  0.00    -0.353 N 
ATOM      8  C   UNL A   1      39.464  29.672  33.287  1.00  0.00     0.244 C 
ATOM      9  O   UNL A   1      40.136  28.692  32.989  1.00  0.00    -0.270 OA
ATOM     10  H   UNL A   1      37.829  29.044  32.333  1.00  0.00     0.163 HD
BRANCH   8  11
ATOM     11  C   UNL A   1      40.051  30.741  34.120  1.00  0.00     0.004 C 
ATOM     12  C   UNL A   1      39.482  31.093  35.282  1.00  0.00    -0.045 C 
ATOM     13  H   UNL A   1      38.709  30.518  35.651  1.00  0.00     0.063 H 
ATOM     14  H   UNL A   1      40.909  31.221  33.804  1.00  0.00     0.068 H 
BRANCH  12  15
ATOM     15  C   UNL A   1      39.921  32.268  36.050  1.00  0.00     0.024 A 
ATOM     16  C   UNL A   1      39.310  33.527  35.774  1.00  0.00    -0.011 A 
ATOM     17  C   UNL A   1      39.752  34.684  36.438  1.00  0.00    -0.012 A 
ATOM     18  C   UNL A   1      40.793  34.630  37.359  1.00  0.00     0.123 A 
ATOM     19  H   UNL A   1      39.296  35.588  36.240  1.00  0.00     0.067 H 
ATOM     20  C   UNL A   1      40.963  32.216  37.002  1.00  0.00     0.130 A 
ATOM     21  C   UNL A   1      41.370  33.400  37.647  1.00  0.00     0.023 A 
ATOM     22  H   UNL A   1      42.119  33.351  38.356  1.00  0.00     0.070 H 
BRANCH  16  23
ATOM     23  C   UNL A   1      38.247  33.745  34.768  1.00  0.00    -0.054 C 
ATOM     24  C   UNL A   1      36.967  33.985  35.098  1.00  0.00    -0.054 C 
ATOM     25  H   UNL A   1      36.741  34.008  36.104  1.00  0.00     0.063 H 
ATOM     26  H   UNL A   1      38.500  33.711  33.769  1.00  0.00     0.063 H 
BRANCH  24  27
ATOM     27  C   UNL A   1      35.849  34.218  34.158  1.00  0.00    -0.025 A 
ATOM     28  C   UNL A   1      33.761  34.821  32.335  1.00  0.00     0.118 A 
ATOM     29  C   UNL A   1      33.686  33.698  33.159  1.00  0.00    -0.019 A 
ATOM     30  C   UNL A   1      34.891  35.632  32.404  1.00  0.00    -0.019 A 
ATOM     31  C   UNL A   1      34.721  33.394  34.058  1.00  0.00    -0.051 A 
ATOM     32  H   UNL A   1      32.859  33.082  33.108  1.00  0.00     0.066 H 
ATOM     33  C   UNL A   1      35.919  35.333  33.309  1.00  0.00    -0.051 A 
ATOM     34  H   UNL A   1      34.971  36.455  31.788  1.00  0.00     0.066 H 
ATOM     35  H   UNL A   1      34.649  32.554  34.652  1.00  0.00     0.063 H 
ATOM     36  H   UNL A   1      36.746  35.948  33.352  1.00  0.00     0.063 H 
BRANCH  28  37
ATOM     37  O   UNL A   1      32.665  35.039  31.544  1.00  0.00    -0.497 OA
BRANCH  37  38
ATOM     38  C   UNL A   1      32.899  35.649  30.280  1.00  0.00     0.078 C 
ATOM     39  H   UNL A   1      32.486  36.637  30.279  1.00  0.00     0.067 H 
ATOM     40  H   UNL A   1      32.434  35.067  29.512  1.00  0.00     0.067 H 
ATOM     41  H   UNL A   1      33.952  35.704  30.100  1.00  0.00     0.067 H 
ENDBRANCH  37  38
ENDBRANCH  28  37
ENDBRANCH  24  27
ENDBRANCH  16  23
BRANCH  18  42
ATOM     42  O   UNL A   1      41.166  35.828  37.902  1.00  0.00    -0.497 OA
BRANCH  42  43
ATOM     43  C   UNL A   1      41.250  35.872  39.324  1.00  0.00     0.078 C 
ATOM     44  H   UNL A   1      40.288  36.104  39.732  1.00  0.00     0.067 H 
ATOM     45  H   UNL A   1      41.953  36.623  39.618  1.00  0.00     0.067 H 
ATOM     46  H   UNL A   1      41.572  34.919  39.692  1.00  0.00     0.067 H 
ENDBRANCH  42  43
ENDBRANCH  18  42
BRANCH  20  47
ATOM     47  O   UNL A   1      41.751  31.179  37.423  1.00  0.00    -0.496 OA
BRANCH  47  48
ATOM     48  C   UNL A   1      43.100  31.340  37.813  1.00  0.00     0.078 C 
ATOM     49  H   UNL A   1      43.630  31.874  37.052  1.00  0.00     0.067 H 
ATOM     50  H   UNL A   1      43.550  30.379  37.952  1.00  0.00     0.067 H 
ATOM     51  H   UNL A   1      43.145  31.891  38.729  1.00  0.00     0.067 H 
ENDBRANCH  47  48
ENDBRANCH  20  47
ENDBRANCH  12  15
ENDBRANCH   8  11
ENDBRANCH   4   7
ENDBRANCH   1   4
BRANCH   1  52
ATOM     52  C   UNL A   1      37.292  32.527  31.315  1.00  0.00    -0.052 C 
ATOM     53  H   UNL A   1      38.275  32.192  31.059  1.00  0.00     0.027 H 
ATOM     54  H   UNL A   1      37.285  33.318  32.035  1.00  0.00     0.027 H 
BRANCH  52  55
ATOM     55  C   UNL A   1      36.639  33.095  30.048  1.00  0.00    -0.052 C 
ATOM     56  H   UNL A   1      37.208  32.768  29.204  1.00  0.00     0.027 H 
ATOM     57  H   UNL A   1      36.631  34.159  30.164  1.00  0.00     0.027 H 
BRANCH  55  58
ATOM     58  C   UNL A   1      35.184  32.676  29.834  1.00  0.00    -0.036 C 
ATOM     59  H   UNL A   1      34.555  33.392  30.321  1.00  0.00     0.028 H 
ATOM     60  H   UNL A   1      35.088  31.691  30.242  1.00  0.00     0.028 H 
BRANCH  58  61
ATOM     61  C   UNL A   1      34.761  32.584  28.374  1.00  0.00     0.018 C 
ATOM     62  H   UNL A   1      35.633  32.620  27.756  1.00  0.00     0.049 H 
ATOM     63  H   UNL A   1      34.109  33.405  28.159  1.00  0.00     0.049 H 
BRANCH  61  64
ATOM     64  N   UNL A   1      34.045  31.348  28.110  1.00  0.00    -0.352 N 
ATOM     65  C   UNL A   1      34.542  30.091  27.881  1.00  0.00     0.251 C 
ATOM     66  H   UNL A   1      33.064  31.424  28.094  1.00  0.00     0.163 HD
ATOM     67  O   UNL A   1      33.814  29.223  27.409  1.00  0.00    -0.269 OA
BRANCH  65  68
ATOM     68  C   UNL A   1      35.954  29.774  28.193  1.00  0.00     0.039 A 
ATOM     69  C   UNL A   1      36.931  30.044  27.231  1.00  0.00    -0.049 A 
ATOM     70  C   UNL A   1      36.313  29.166  29.400  1.00  0.00    -0.049 A 
ATOM     71  C   UNL A   1      38.268  29.738  27.492  1.00  0.00    -0.053 A 
ATOM     72  H   UNL A   1      36.664  30.469  26.329  1.00  0.00     0.063 H 
ATOM     73  C   UNL A   1      37.655  28.931  29.690  1.00  0.00    -0.053 A 
ATOM     74  H   UNL A   1      35.584  28.890  30.076  1.00  0.00     0.063 H 
ATOM     75  C   UNL A   1      38.646  29.200  28.734  1.00  0.00    -0.014 A 
ATOM     76  H   UNL A   1      38.984  29.909  26.769  1.00  0.00     0.063 H 
ATOM     77  H   UNL A   1      37.923  28.558  30.614  1.00  0.00     0.063 H 
BRANCH  75  78
ATOM     78  C   UNL A   1      40.069  28.901  29.037  1.00  0.00     0.031 A 
ATOM     79  C   UNL A   1      40.917  29.904  29.766  1.00  0.00     0.074 A 
ATOM     80  C   UNL A   1      40.613  27.744  28.612  1.00  0.00     0.049 A 
ATOM     81  N   UNL A   1      42.186  29.838  30.084  1.00  0.00    -0.248 NA
ATOM     82  C   UNL A   1      40.261  31.156  30.173  1.00  0.00    -0.034 C 
ATOM     83  C   UNL A   1      39.904  26.718  27.852  1.00  0.00    -0.036 A 
ATOM     84  N   UNL A   1      41.882  27.239  28.742  1.00  0.00    -0.354 N 
ATOM     85  C   UNL A   1      42.479  31.038  30.714  1.00  0.00     0.074 A 
ATOM     86  C   UNL A   1      41.274  31.837  30.687  1.00  0.00    -0.034 C 
ATOM     87  H   UNL A   1      39.270  31.431  30.082  1.00  0.00     0.065 H 
ATOM     88  C   UNL A   1      40.735  25.698  27.595  1.00  0.00    -0.036 A 
ATOM     89  H   UNL A   1      38.915  26.769  27.559  1.00  0.00     0.065 H 
ATOM     90  C   UNL A   1      42.050  26.014  28.142  1.00  0.00     0.049 A 
ATOM     91  H   UNL A   1      42.602  27.708  29.221  1.00  0.00     0.167 HD
ATOM     92  C   UNL A   1      43.645  31.428  31.284  1.00  0.00     0.037 A 
ATOM     93  H   UNL A   1      41.211  32.811  31.024  1.00  0.00     0.065 H 
ATOM     94  H   UNL A   1      40.487  24.831  27.093  1.00  0.00     0.065 H 
ATOM     95  C   UNL A   1      43.144  25.237  28.034  1.00  0.00     0.037 A 
ATOM     96  C   UNL A   1      44.834  30.617  31.326  1.00  0.00     0.049 A 
ATOM     97  C   UNL A   1      44.426  25.696  28.671  1.00  0.00     0.074 A 
ATOM     98  C   UNL A   1      46.044  30.892  31.939  1.00  0.00    -0.036 A 
ATOM     99  N   UNL A   1      44.964  29.374  30.722  1.00  0.00    -0.354 N 
ATOM    100  N   UNL A   1      44.670  26.799  29.336  1.00  0.00    -0.248 NA
ATOM    101  C   UNL A   1      45.583  24.798  28.553  1.00  0.00    -0.034 C 
ATOM    102  C   UNL A   1      46.923  29.842  31.660  1.00  0.00    -0.036 A 
ATOM    103  H   UNL A   1      46.259  31.728  32.504  1.00  0.00     0.065 H 
ATOM    104  C   UNL A   1      46.245  28.883  30.924  1.00  0.00     0.049 A 
ATOM    105  H   UNL A   1      44.253  28.911  30.224  1.00  0.00     0.167 HD
ATOM    106  C   UNL A   1      45.995  26.718  29.738  1.00  0.00     0.074 A 
ATOM    107  C   UNL A   1      46.499  25.447  29.258  1.00  0.00    -0.034 C 
ATOM    108  H   UNL A   1      45.662  23.899  28.052  1.00  0.00     0.065 H 
ATOM    109  H   UNL A   1      47.912  29.788  31.954  1.00  0.00     0.065 H 
ATOM    110  C   UNL A   1      46.730  27.614  30.441  1.00  0.00     0.037 A 
ATOM    111  H   UNL A   1      47.449  25.091  29.444  1.00  0.00     0.065 H 
BRANCH  92 112
ATOM    112  C   UNL A   1      43.691  32.792  31.910  1.00  0.00     0.064 A 
ATOM    113  C   UNL A   1      43.419  32.989  33.273  1.00  0.00     0.173 A 
ATOM    114  C   UNL A   1      44.052  33.912  31.147  1.00  0.00     0.173 A 
ATOM    115  F   UNL A   1      43.058  31.954  34.046  1.00  0.00    -0.203 F 
ATOM    116  C   UNL A   1      43.477  34.260  33.840  1.00  0.00     0.198 A 
ATOM    117  C   UNL A   1      44.141  35.177  31.724  1.00  0.00     0.198 A 
ATOM    118  F   UNL A   1      44.329  33.780  29.841  1.00  0.00    -0.203 F 
ATOM    119  F   UNL A   1      43.163  34.429  35.132  1.00  0.00    -0.200 F 
ATOM    120  C   UNL A   1      43.846  35.351  33.068  1.00  0.00     0.200 A 
ATOM    121  F   UNL A   1      44.512  36.227  30.979  1.00  0.00    -0.200 F 
ATOM    122  F   UNL A   1      43.912  36.570  33.617  1.00  0.00    -0.200 F 
ENDBRANCH  92 112
BRANCH  95 123
ATOM    123  C   UNL A   1      43.068  23.939  27.312  1.00  0.00     0.064 A 
ATOM    124  C   UNL A   1      43.436  23.841  25.964  1.00  0.00     0.173 A 
ATOM    125  C   UNL A   1      42.624  22.774  27.953  1.00  0.00     0.173 A 
ATOM    126  F   UNL A   1      43.850  24.931  25.301  1.00  0.00    -0.203 F 
ATOM    127  C   UNL A   1      43.341  22.633  25.277  1.00  0.00     0.198 A 
ATOM    128  C   UNL A   1      42.559  21.558  27.274  1.00  0.00     0.198 A 
ATOM    129  F   UNL A   1      42.266  22.811  29.245  1.00  0.00    -0.203 F 
ATOM    130  F   UNL A   1      43.653  22.577  23.975  1.00  0.00    -0.200 F 
ATOM    131  C   UNL A   1      42.908  21.490  25.935  1.00  0.00     0.200 A 
ATOM    132  F   UNL A   1      42.158  20.453  27.918  1.00  0.00    -0.200 F 
ATOM    133  F   UNL A   1      42.822  20.327  25.275  1.00  0.00    -0.200 F 
ENDBRANCH  95 123
BRANCH 110 134
ATOM    134  C   UNL A   1      48.147  27.237  30.762  1.00  0.00     0.064 A 
ATOM    135  C   UNL A   1      49.220  27.653  29.960  1.00  0.00     0.173 A 
ATOM    136  C   UNL A   1      48.436  26.476  31.905  1.00  0.00     0.173 A 
ATOM    137  F   UNL A   1      48.995  28.369  28.848  1.00  0.00    -0.203 F 
ATOM    138  C   UNL A   1      50.528  27.296  30.275  1.00  0.00     0.198 A 
ATOM    139  C   UNL A   1      49.749  26.149  32.234  1.00  0.00     0.198 A 
ATOM    140  F   UNL A   1      47.448  26.058  32.708  1.00  0.00    -0.203 F 
ATOM    141  F   UNL A   1      51.532  27.659  29.465  1.00  0.00    -0.200 F 
ATOM    142  C   UNL A   1      50.792  26.551  31.415  1.00  0.00     0.200 A 
ATOM    143  F   UNL A   1      50.003  25.442  33.344  1.00  0.00    -0.200 F 
ATOM    144  F   UNL A   1      52.053  26.214  31.720  1.00  0.00    -0.200 F 
ENDBRANCH 110 134
ENDBRANCH  75  78
ENDBRANCH  65  68
ENDBRANCH  61  64
ENDBRANCH  58  61
ENDBRANCH  55  58
ENDBRANCH  52  55
ENDBRANCH   1  52
TORSDOF 22
ENDMDL
MODEL 8
REMARK VINA RESULT:      -9.9      5.835     12.353
REMARK SMILES COc1ccc(/C=C/c2cc(OC)cc(OC)c2/C=C/C(=O)NCCCCCCNC(=O)c2ccc(-c3c4nc(c(-c5c(F)c(F)c(F)c(F)c5F)c5ccc([nH]5)c(-c5c(F)c(F)c(F)c(F)c5F)c5nc(c(-c6c(F)c(F)c(F)c(F)c6F)c6ccc3[nH]6)C=C5)C=C4)cc2)cc1
REMARK SMILES IDX 25 1 24 4 23 7 21 8 22 9 20 11 19 12 18 15 9 16 10 17 11 18
REMARK SMILES IDX 15 20 14 21 8 23 7 24 6 27 3 28 4 29 97 30 5 31 96 33 2 37
REMARK SMILES IDX 1 38 12 42 13 43 16 47 17 48 26 52 27 55 28 58 29 61 30 64
REMARK SMILES IDX 31 65 32 67 33 68 34 69 95 70 35 71 94 73 36 75 37 78 38 79
REMARK SMILES IDX 88 80 39 81 93 82 87 83 89 84 40 85 92 86 86 88 85 90 41 92
REMARK SMILES IDX 73 95 53 96 72 97 54 98 57 99 71 100 90 101 55 102 56 104
REMARK SMILES IDX 70 106 91 107 58 110 42 112 43 113 51 114 44 115 45 116
REMARK SMILES IDX 49 117 52 118 46 119 47 120 50 121 48 122 74 123 75 124
REMARK SMILES IDX 83 125 76 126 77 127 81 128 84 129 78 130 79 131 82 132
REMARK SMILES IDX 80 133 59 134 60 135 68 136 61 137 62 138 66 139 69 140
REMARK SMILES IDX 63 141 64 142 67 143 65 144
REMARK H PARENT 25 2 25 3 24 5 24 6 23 10 19 13 20 14 10 19 14 22 7 25 8 26
REMARK H PARENT 4 32 97 34 5 35 96 36 1 39 1 40 1 41 13 44 13 45 13 46 17 49
REMARK H PARENT 17 50 17 51 26 53 26 54 27 56 27 57 28 59 28 60 29 62 29 63
REMARK H PARENT 30 66 34 72 95 74 35 76 94 77 93 87 87 89 89 91 92 93 86 94
REMARK H PARENT 54 103 57 105 90 108 55 109 91 111
REMARK Flexibility Score: inf
ROOT
ATOM      1  C   UNL A   1      47.176  26.972  31.352  1.00  0.00    -0.036 C 
ATOM      2  H   UNL A   1      46.254  26.570  31.714  1.00  0.00     0.028 H 
ATOM      3  H   UNL A   1      47.594  27.699  32.017  1.00  0.00     0.028 H 
ENDROOT
BRANCH   1   4
ATOM      4  C   UNL A   1      46.906  27.680  30.031  1.00  0.00     0.018 C 
ATOM      5  H   UNL A   1      45.880  27.540  29.763  1.00  0.00     0.049 H 
ATOM      6  H   UNL A   1      47.127  28.721  30.155  1.00  0.00     0.049 H 
BRANCH   4   7
ATOM      7  N   UNL A   1      47.744  27.160  28.973  1.00  0.00    -0.353 N 
ATOM      8  C   UNL A   1      47.425  26.258  28.009  1.00  0.00     0.244 C 
ATOM      9  O   UNL A   1      48.230  25.957  27.135  1.00  0.00    -0.270 OA
ATOM     10  H   UNL A   1      48.666  27.505  28.949  1.00  0.00     0.163 HD
BRANCH   8  11
ATOM     11  C   UNL A   1      46.069  25.674  27.993  1.00  0.00     0.004 C 
ATOM     12  C   UNL A   1      45.872  24.395  28.344  1.00  0.00    -0.045 C 
ATOM     13  H   UNL A   1      46.657  23.865  28.753  1.00  0.00     0.063 H 
ATOM     14  H   UNL A   1      45.265  26.257  27.710  1.00  0.00     0.068 H 
BRANCH  12  15
ATOM     15  C   UNL A   1      44.576  23.721  28.167  1.00  0.00     0.024 A 
ATOM     16  C   UNL A   1      43.831  23.366  29.329  1.00  0.00    -0.011 A 
ATOM     17  C   UNL A   1      42.623  22.658  29.202  1.00  0.00    -0.012 A 
ATOM     18  C   UNL A   1      42.140  22.281  27.954  1.00  0.00     0.123 A 
ATOM     19  H   UNL A   1      42.085  22.416  30.049  1.00  0.00     0.067 H 
ATOM     20  C   UNL A   1      44.070  23.353  26.901  1.00  0.00     0.130 A 
ATOM     21  C   UNL A   1      42.853  22.650  26.819  1.00  0.00     0.023 A 
ATOM     22  H   UNL A   1      42.479  22.401  25.890  1.00  0.00     0.070 H 
BRANCH  16  23
ATOM     23  C   UNL A   1      44.259  23.636  30.720  1.00  0.00    -0.054 C 
ATOM     24  C   UNL A   1      43.743  22.993  31.781  1.00  0.00    -0.054 C 
ATOM     25  H   UNL A   1      43.015  22.288  31.591  1.00  0.00     0.063 H 
ATOM     26  H   UNL A   1      44.986  24.350  30.882  1.00  0.00     0.063 H 
BRANCH  24  27
ATOM     27  C   UNL A   1      44.118  23.199  33.197  1.00  0.00    -0.025 A 
ATOM     28  C   UNL A   1      44.993  23.551  35.873  1.00  0.00     0.118 A 
ATOM     29  C   UNL A   1      43.633  23.461  35.572  1.00  0.00    -0.019 A 
ATOM     30  C   UNL A   1      45.916  23.489  34.833  1.00  0.00    -0.019 A 
ATOM     31  C   UNL A   1      43.198  23.293  34.248  1.00  0.00    -0.051 A 
ATOM     32  H   UNL A   1      42.938  23.518  36.334  1.00  0.00     0.066 H 
ATOM     33  C   UNL A   1      45.481  23.311  33.512  1.00  0.00    -0.051 A 
ATOM     34  H   UNL A   1      46.924  23.575  35.035  1.00  0.00     0.066 H 
ATOM     35  H   UNL A   1      42.187  23.237  34.048  1.00  0.00     0.063 H 
ATOM     36  H   UNL A   1      46.179  23.261  32.754  1.00  0.00     0.063 H 
BRANCH  28  37
ATOM     37  O   UNL A   1      45.291  23.656  37.205  1.00  0.00    -0.497 OA
BRANCH  37  38
ATOM     38  C   UNL A   1      46.615  23.310  37.593  1.00  0.00     0.078 C 
ATOM     39  H   UNL A   1      47.078  22.743  36.812  1.00  0.00     0.067 H 
ATOM     40  H   UNL A   1      46.582  22.724  38.487  1.00  0.00     0.067 H 
ATOM     41  H   UNL A   1      47.180  24.201  37.770  1.00  0.00     0.067 H 
ENDBRANCH  37  38
ENDBRANCH  28  37
ENDBRANCH  24  27
ENDBRANCH  16  23
BRANCH  18  42
ATOM     42  O   UNL A   1      40.982  21.555  27.962  1.00  0.00    -0.497 OA
BRANCH  42  43
ATOM     43  C   UNL A   1      40.105  21.762  26.857  1.00  0.00     0.078 C 
ATOM     44  H   UNL A   1      39.442  22.573  27.075  1.00  0.00     0.067 H 
ATOM     45  H   UNL A   1      39.537  20.874  26.680  1.00  0.00     0.067 H 
ATOM     46  H   UNL A   1      40.680  21.997  25.985  1.00  0.00     0.067 H 
ENDBRANCH  42  43
ENDBRANCH  18  42
BRANCH  20  47
ATOM     47  O   UNL A   1      44.584  23.511  25.641  1.00  0.00    -0.496 OA
BRANCH  47  48
ATOM     48  C   UNL A   1      44.009  22.925  24.491  1.00  0.00     0.078 C 
ATOM     49  H   UNL A   1      44.742  22.327  23.991  1.00  0.00     0.067 H 
ATOM     50  H   UNL A   1      43.667  23.694  23.831  1.00  0.00     0.067 H 
ATOM     51  H   UNL A   1      43.183  22.308  24.779  1.00  0.00     0.067 H 
ENDBRANCH  47  48
ENDBRANCH  20  47
ENDBRANCH  12  15
ENDBRANCH   8  11
ENDBRANCH   4   7
ENDBRANCH   1   4
BRANCH   1  52
ATOM     52  C   UNL A   1      48.192  25.830  31.245  1.00  0.00    -0.052 C 
ATOM     53  H   UNL A   1      48.737  25.955  30.333  1.00  0.00     0.027 H 
ATOM     54  H   UNL A   1      47.627  24.923  31.284  1.00  0.00     0.027 H 
BRANCH  52  55
ATOM     55  C   UNL A   1      49.205  25.753  32.395  1.00  0.00    -0.052 C 
ATOM     56  H   UNL A   1      49.818  26.628  32.359  1.00  0.00     0.027 H 
ATOM     57  H   UNL A   1      49.755  24.846  32.252  1.00  0.00     0.027 H 
BRANCH  55  58
ATOM     58  C   UNL A   1      48.584  25.664  33.790  1.00  0.00    -0.036 C 
ATOM     59  H   UNL A   1      48.903  24.746  34.240  1.00  0.00     0.028 H 
ATOM     60  H   UNL A   1      47.524  25.716  33.656  1.00  0.00     0.028 H 
BRANCH  58  61
ATOM     61  C   UNL A   1      48.960  26.806  34.723  1.00  0.00     0.018 C 
ATOM     62  H   UNL A   1      48.466  27.698  34.400  1.00  0.00     0.049 H 
ATOM     63  H   UNL A   1      50.023  26.930  34.695  1.00  0.00     0.049 H 
BRANCH  61  64
ATOM     64  N   UNL A   1      48.568  26.519  36.092  1.00  0.00    -0.352 N 
ATOM     65  C   UNL A   1      47.437  26.902  36.768  1.00  0.00     0.251 C 
ATOM     66  H   UNL A   1      49.203  25.972  36.607  1.00  0.00     0.163 HD
ATOM     67  O   UNL A   1      47.394  26.804  37.990  1.00  0.00    -0.269 OA
BRANCH  65  68
ATOM     68  C   UNL A   1      46.270  27.439  36.033  1.00  0.00     0.039 A 
ATOM     69  C   UNL A   1      46.408  28.649  35.347  1.00  0.00    -0.049 A 
ATOM     70  C   UNL A   1      45.032  26.790  36.061  1.00  0.00    -0.049 A 
ATOM     71  C   UNL A   1      45.318  29.188  34.661  1.00  0.00    -0.053 A 
ATOM     72  H   UNL A   1      47.315  29.143  35.347  1.00  0.00     0.063 H 
ATOM     73  C   UNL A   1      43.966  27.289  35.314  1.00  0.00    -0.053 A 
ATOM     74  H   UNL A   1      44.906  25.942  36.634  1.00  0.00     0.063 H 
ATOM     75  C   UNL A   1      44.093  28.501  34.619  1.00  0.00    -0.014 A 
ATOM     76  H   UNL A   1      45.413  30.097  34.181  1.00  0.00     0.063 H 
ATOM     77  H   UNL A   1      43.079  26.764  35.272  1.00  0.00     0.063 H 
BRANCH  75  78
ATOM     78  C   UNL A   1      42.935  29.048  33.865  1.00  0.00     0.031 A 
ATOM     79  C   UNL A   1      41.927  29.924  34.554  1.00  0.00     0.074 A 
ATOM     80  C   UNL A   1      42.764  28.715  32.571  1.00  0.00     0.049 A 
ATOM     81  N   UNL A   1      40.833  30.459  34.074  1.00  0.00    -0.248 NA
ATOM     82  C   UNL A   1      42.166  30.219  35.974  1.00  0.00    -0.034 C 
ATOM     83  C   UNL A   1      43.646  27.834  31.812  1.00  0.00    -0.036 A 
ATOM     84  N   UNL A   1      41.790  29.063  31.670  1.00  0.00    -0.354 N 
ATOM     85  C   UNL A   1      40.251  31.142  35.132  1.00  0.00     0.074 A 
ATOM     86  C   UNL A   1      41.081  30.910  36.293  1.00  0.00    -0.034 C 
ATOM     87  H   UNL A   1      42.969  29.958  36.568  1.00  0.00     0.065 H 
ATOM     88  C   UNL A   1      43.191  27.719  30.557  1.00  0.00    -0.036 A 
ATOM     89  H   UNL A   1      44.492  27.372  32.184  1.00  0.00     0.065 H 
ATOM     90  C   UNL A   1      41.959  28.491  30.431  1.00  0.00     0.049 A 
ATOM     91  H   UNL A   1      41.043  29.665  31.887  1.00  0.00     0.167 HD
ATOM     92  C   UNL A   1      39.136  31.912  35.128  1.00  0.00     0.037 A 
ATOM     93  H   UNL A   1      40.858  31.239  37.246  1.00  0.00     0.065 H 
ATOM     94  H   UNL A   1      43.636  27.173  29.803  1.00  0.00     0.065 H 
ATOM     95  C   UNL A   1      41.202  28.571  29.321  1.00  0.00     0.037 A 
ATOM     96  C   UNL A   1      38.328  32.155  33.961  1.00  0.00     0.049 A 
ATOM     97  C   UNL A   1      39.966  29.427  29.345  1.00  0.00     0.074 A 
ATOM     98  C   UNL A   1      37.219  32.973  33.836  1.00  0.00    -0.036 A 
ATOM     99  N   UNL A   1      38.538  31.573  32.718  1.00  0.00    -0.354 N 
ATOM    100  N   UNL A   1      39.471  30.134  30.331  1.00  0.00    -0.248 NA
ATOM    101  C   UNL A   1      39.191  29.507  28.100  1.00  0.00    -0.034 C 
ATOM    102  C   UNL A   1      36.726  32.845  32.535  1.00  0.00    -0.036 A 
ATOM    103  H   UNL A   1      36.825  33.575  34.577  1.00  0.00     0.065 H 
ATOM    104  C   UNL A   1      37.561  31.993  31.829  1.00  0.00     0.049 A 
ATOM    105  H   UNL A   1      39.271  30.954  32.502  1.00  0.00     0.167 HD
ATOM    106  C   UNL A   1      38.344  30.763  29.821  1.00  0.00     0.074 A 
ATOM    107  C   UNL A   1      38.240  30.369  28.431  1.00  0.00    -0.034 C 
ATOM    108  H   UNL A   1      39.347  29.020  27.203  1.00  0.00     0.065 H 
ATOM    109  H   UNL A   1      35.882  33.307  32.161  1.00  0.00     0.065 H 
ATOM    110  C   UNL A   1      37.473  31.592  30.447  1.00  0.00     0.037 A 
ATOM    111  H   UNL A   1      37.518  30.715  27.781  1.00  0.00     0.065 H 
BRANCH  92 112
ATOM    112  C   UNL A   1      38.725  32.548  36.424  1.00  0.00     0.064 A 
ATOM    113  C   UNL A   1      37.978  31.849  37.385  1.00  0.00     0.173 A 
ATOM    114  C   UNL A   1      39.117  33.861  36.727  1.00  0.00     0.173 A 
ATOM    115  F   UNL A   1      37.569  30.595  37.141  1.00  0.00    -0.203 F 
ATOM    116  C   UNL A   1      37.614  32.451  38.587  1.00  0.00     0.198 A 
ATOM    117  C   UNL A   1      38.778  34.448  37.944  1.00  0.00     0.198 A 
ATOM    118  F   UNL A   1      39.836  34.572  35.847  1.00  0.00    -0.203 F 
ATOM    119  F   UNL A   1      36.858  31.780  39.467  1.00  0.00    -0.200 F 
ATOM    120  C   UNL A   1      38.021  33.746  38.869  1.00  0.00     0.200 A 
ATOM    121  F   UNL A   1      39.185  35.695  38.220  1.00  0.00    -0.200 F 
ATOM    122  F   UNL A   1      37.679  34.319  40.030  1.00  0.00    -0.200 F 
ENDBRANCH  92 112
BRANCH  95 123
ATOM    123  C   UNL A   1      41.602  27.835  28.092  1.00  0.00     0.064 A 
ATOM    124  C   UNL A   1      42.638  28.305  27.274  1.00  0.00     0.173 A 
ATOM    125  C   UNL A   1      40.956  26.651  27.709  1.00  0.00     0.173 A 
ATOM    126  F   UNL A   1      43.274  29.443  27.588  1.00  0.00    -0.203 F 
ATOM    127  C   UNL A   1      42.997  27.633  26.109  1.00  0.00     0.198 A 
ATOM    128  C   UNL A   1      41.337  25.961  26.560  1.00  0.00     0.198 A 
ATOM    129  F   UNL A   1      39.962  26.153  28.460  1.00  0.00    -0.203 F 
ATOM    130  F   UNL A   1      43.960  28.130  25.320  1.00  0.00    -0.200 F 
ATOM    131  C   UNL A   1      42.351  26.457  25.755  1.00  0.00     0.200 A 
ATOM    132  F   UNL A   1      40.722  24.817  26.231  1.00  0.00    -0.200 F 
ATOM    133  F   UNL A   1      42.701  25.808  24.637  1.00  0.00    -0.200 F 
ENDBRANCH  95 123
BRANCH 110 134
ATOM    134  C   UNL A   1      36.350  32.154  29.624  1.00  0.00     0.064 A 
ATOM    135  C   UNL A   1      35.286  31.353  29.185  1.00  0.00     0.173 A 
ATOM    136  C   UNL A   1      36.325  33.519  29.299  1.00  0.00     0.173 A 
ATOM    137  F   UNL A   1      35.272  30.040  29.457  1.00  0.00    -0.203 F 
ATOM    138  C   UNL A   1      34.252  31.892  28.425  1.00  0.00     0.198 A 
ATOM    139  C   UNL A   1      35.272  34.061  28.566  1.00  0.00     0.198 A 
ATOM    140  F   UNL A   1      37.315  34.329  29.699  1.00  0.00    -0.203 F 
ATOM    141  F   UNL A   1      33.273  31.098  27.970  1.00  0.00    -0.200 F 
ATOM    142  C   UNL A   1      34.242  33.247  28.123  1.00  0.00     0.200 A 
ATOM    143  F   UNL A   1      35.256  35.372  28.289  1.00  0.00    -0.200 F 
ATOM    144  F   UNL A   1      33.242  33.765  27.397  1.00  0.00    -0.200 F 
ENDBRANCH 110 134
ENDBRANCH  75  78
ENDBRANCH  65  68
ENDBRANCH  61  64
ENDBRANCH  58  61
ENDBRANCH  55  58
ENDBRANCH  52  55
ENDBRANCH   1  52
TORSDOF 22
ENDMDL
MODEL 9
REMARK VINA RESULT:      -9.9      4.737     10.866
REMARK SMILES COc1ccc(/C=C/c2cc(OC)cc(OC)c2/C=C/C(=O)NCCCCCCNC(=O)c2ccc(-c3c4nc(c(-c5c(F)c(F)c(F)c(F)c5F)c5ccc([nH]5)c(-c5c(F)c(F)c(F)c(F)c5F)c5nc(c(-c6c(F)c(F)c(F)c(F)c6F)c6ccc3[nH]6)C=C5)C=C4)cc2)cc1
REMARK SMILES IDX 25 1 24 4 23 7 21 8 22 9 20 11 19 12 18 15 9 16 10 17 11 18
REMARK SMILES IDX 15 20 14 21 8 23 7 24 6 27 3 28 4 29 97 30 5 31 96 33 2 37
REMARK SMILES IDX 1 38 12 42 13 43 16 47 17 48 26 52 27 55 28 58 29 61 30 64
REMARK SMILES IDX 31 65 32 67 33 68 34 69 95 70 35 71 94 73 36 75 37 78 38 79
REMARK SMILES IDX 88 80 39 81 93 82 87 83 89 84 40 85 92 86 86 88 85 90 41 92
REMARK SMILES IDX 73 95 53 96 72 97 54 98 57 99 71 100 90 101 55 102 56 104
REMARK SMILES IDX 70 106 91 107 58 110 42 112 43 113 51 114 44 115 45 116
REMARK SMILES IDX 49 117 52 118 46 119 47 120 50 121 48 122 74 123 75 124
REMARK SMILES IDX 83 125 76 126 77 127 81 128 84 129 78 130 79 131 82 132
REMARK SMILES IDX 80 133 59 134 60 135 68 136 61 137 62 138 66 139 69 140
REMARK SMILES IDX 63 141 64 142 67 143 65 144
REMARK H PARENT 25 2 25 3 24 5 24 6 23 10 19 13 20 14 10 19 14 22 7 25 8 26
REMARK H PARENT 4 32 97 34 5 35 96 36 1 39 1 40 1 41 13 44 13 45 13 46 17 49
REMARK H PARENT 17 50 17 51 26 53 26 54 27 56 27 57 28 59 28 60 29 62 29 63
REMARK H PARENT 30 66 34 72 95 74 35 76 94 77 93 87 87 89 89 91 92 93 86 94
REMARK H PARENT 54 103 57 105 90 108 55 109 91 111
REMARK Flexibility Score: inf
ROOT
ATOM      1  C   UNL A   1      36.757  31.440  31.997  1.00  0.00    -0.036 C 
ATOM      2  H   UNL A   1      35.721  31.629  32.184  1.00  0.00     0.028 H 
ATOM      3  H   UNL A   1      36.909  30.591  31.363  1.00  0.00     0.028 H 
ENDROOT
BRANCH   1   4
ATOM      4  C   UNL A   1      37.436  31.131  33.325  1.00  0.00     0.018 C 
ATOM      5  H   UNL A   1      37.986  31.991  33.644  1.00  0.00     0.049 H 
ATOM      6  H   UNL A   1      36.680  30.879  34.040  1.00  0.00     0.049 H 
BRANCH   4   7
ATOM      7  N   UNL A   1      38.342  30.011  33.206  1.00  0.00    -0.353 N 
ATOM      8  C   UNL A   1      39.566  29.850  33.771  1.00  0.00     0.244 C 
ATOM      9  O   UNL A   1      40.197  28.809  33.627  1.00  0.00    -0.270 OA
ATOM     10  H   UNL A   1      38.030  29.266  32.641  1.00  0.00     0.163 HD
BRANCH   8  11
ATOM     11  C   UNL A   1      40.116  30.932  34.612  1.00  0.00     0.004 C 
ATOM     12  C   UNL A   1      39.423  31.405  35.658  1.00  0.00    -0.045 C 
ATOM     13  H   UNL A   1      38.564  30.911  35.949  1.00  0.00     0.063 H 
ATOM     14  H   UNL A   1      41.043  31.329  34.392  1.00  0.00     0.068 H 
BRANCH  12  15
ATOM     15  C   UNL A   1      39.842  32.599  36.407  1.00  0.00     0.024 A 
ATOM     16  C   UNL A   1      39.276  33.858  36.051  1.00  0.00    -0.011 A 
ATOM     17  C   UNL A   1      39.705  35.030  36.698  1.00  0.00    -0.012 A 
ATOM     18  C   UNL A   1      40.690  34.990  37.678  1.00  0.00     0.123 A 
ATOM     19  H   UNL A   1      39.280  35.936  36.441  1.00  0.00     0.067 H 
ATOM     20  C   UNL A   1      40.828  32.563  37.419  1.00  0.00     0.130 A 
ATOM     21  C   UNL A   1      41.223  33.761  38.043  1.00  0.00     0.023 A 
ATOM     22  H   UNL A   1      41.929  33.724  38.795  1.00  0.00     0.070 H 
BRANCH  16  23
ATOM     23  C   UNL A   1      38.276  34.060  34.979  1.00  0.00    -0.054 C 
ATOM     24  C   UNL A   1      36.957  34.147  35.216  1.00  0.00    -0.054 C 
ATOM     25  H   UNL A   1      36.654  34.062  36.198  1.00  0.00     0.063 H 
ATOM     26  H   UNL A   1      38.608  34.136  34.005  1.00  0.00     0.063 H 
BRANCH  24  27
ATOM     27  C   UNL A   1      35.897  34.352  34.206  1.00  0.00    -0.025 A 
ATOM     28  C   UNL A   1      33.810  34.590  32.298  1.00  0.00     0.118 A 
ATOM     29  C   UNL A   1      34.866  35.502  32.319  1.00  0.00    -0.019 A 
ATOM     30  C   UNL A   1      33.783  33.572  33.248  1.00  0.00    -0.019 A 
ATOM     31  C   UNL A   1      35.897  35.390  33.266  1.00  0.00    -0.051 A 
ATOM     32  H   UNL A   1      34.891  36.269  31.628  1.00  0.00     0.066 H 
ATOM     33  C   UNL A   1      34.818  33.455  34.186  1.00  0.00    -0.051 A 
ATOM     34  H   UNL A   1      32.999  32.902  33.260  1.00  0.00     0.066 H 
ATOM     35  H   UNL A   1      36.663  36.080  33.268  1.00  0.00     0.063 H 
ATOM     36  H   UNL A   1      34.786  32.690  34.878  1.00  0.00     0.063 H 
BRANCH  28  37
ATOM     37  O   UNL A   1      32.900  34.774  31.293  1.00  0.00    -0.497 OA
BRANCH  37  38
ATOM     38  C   UNL A   1      33.223  35.747  30.307  1.00  0.00     0.078 C 
ATOM     39  H   UNL A   1      33.816  36.521  30.751  1.00  0.00     0.067 H 
ATOM     40  H   UNL A   1      32.321  36.170  29.915  1.00  0.00     0.067 H 
ATOM     41  H   UNL A   1      33.775  35.285  29.516  1.00  0.00     0.067 H 
ENDBRANCH  37  38
ENDBRANCH  28  37
ENDBRANCH  24  27
ENDBRANCH  16  23
BRANCH  18  42
ATOM     42  O   UNL A   1      41.057  36.201  38.198  1.00  0.00    -0.497 OA
BRANCH  42  43
ATOM     43  C   UNL A   1      40.062  36.884  38.956  1.00  0.00     0.078 C 
ATOM     44  H   UNL A   1      40.262  36.760  40.000  1.00  0.00     0.067 H 
ATOM     45  H   UNL A   1      39.099  36.480  38.727  1.00  0.00     0.067 H 
ATOM     46  H   UNL A   1      40.079  37.926  38.711  1.00  0.00     0.067 H 
ENDBRANCH  42  43
ENDBRANCH  18  42
BRANCH  20  47
ATOM     47  O   UNL A   1      41.568  31.526  37.922  1.00  0.00    -0.496 OA
BRANCH  47  48
ATOM     48  C   UNL A   1      42.955  31.382  37.691  1.00  0.00     0.078 C 
ATOM     49  H   UNL A   1      43.303  30.482  38.153  1.00  0.00     0.067 H 
ATOM     50  H   UNL A   1      43.475  32.220  38.107  1.00  0.00     0.067 H 
ATOM     51  H   UNL A   1      43.140  31.335  36.638  1.00  0.00     0.067 H 
ENDBRANCH  47  48
ENDBRANCH  20  47
ENDBRANCH  12  15
ENDBRANCH   8  11
ENDBRANCH   4   7
ENDBRANCH   1   4
BRANCH   1  52
ATOM     52  C   UNL A   1      37.345  32.653  31.269  1.00  0.00    -0.052 C 
ATOM     53  H   UNL A   1      38.351  32.417  30.991  1.00  0.00     0.027 H 
ATOM     54  H   UNL A   1      37.273  33.474  31.950  1.00  0.00     0.027 H 
BRANCH  52  55
ATOM     55  C   UNL A   1      36.590  33.079  30.004  1.00  0.00    -0.052 C 
ATOM     56  H   UNL A   1      37.166  32.778  29.154  1.00  0.00     0.027 H 
ATOM     57  H   UNL A   1      36.462  34.140  30.072  1.00  0.00     0.027 H 
BRANCH  55  58
ATOM     58  C   UNL A   1      35.188  32.485  29.864  1.00  0.00    -0.036 C 
ATOM     59  H   UNL A   1      34.509  33.095  30.423  1.00  0.00     0.028 H 
ATOM     60  H   UNL A   1      35.244  31.481  30.229  1.00  0.00     0.028 H 
BRANCH  58  61
ATOM     61  C   UNL A   1      34.679  32.396  28.432  1.00  0.00     0.018 C 
ATOM     62  H   UNL A   1      35.504  32.508  27.760  1.00  0.00     0.049 H 
ATOM     63  H   UNL A   1      33.958  33.174  28.280  1.00  0.00     0.049 H 
BRANCH  61  64
ATOM     64  N   UNL A   1      34.035  31.119  28.180  1.00  0.00    -0.352 N 
ATOM     65  C   UNL A   1      34.603  29.892  27.954  1.00  0.00     0.251 C 
ATOM     66  H   UNL A   1      33.051  31.137  28.170  1.00  0.00     0.163 HD
ATOM     67  O   UNL A   1      33.925  28.979  27.492  1.00  0.00    -0.269 OA
BRANCH  65  68
ATOM     68  C   UNL A   1      36.033  29.660  28.258  1.00  0.00     0.039 A 
ATOM     69  C   UNL A   1      36.985  29.963  27.281  1.00  0.00    -0.049 A 
ATOM     70  C   UNL A   1      36.437  29.099  29.474  1.00  0.00    -0.049 A 
ATOM     71  C   UNL A   1      38.339  29.738  27.534  1.00  0.00    -0.053 A 
ATOM     72  H   UNL A   1      36.687  30.353  26.373  1.00  0.00     0.063 H 
ATOM     73  C   UNL A   1      37.793  28.945  29.755  1.00  0.00    -0.053 A 
ATOM     74  H   UNL A   1      35.730  28.798  30.163  1.00  0.00     0.063 H 
ATOM     75  C   UNL A   1      38.758  29.248  28.783  1.00  0.00    -0.014 A 
ATOM     76  H   UNL A   1      39.038  29.933  26.800  1.00  0.00     0.063 H 
ATOM     77  H   UNL A   1      38.089  28.607  30.684  1.00  0.00     0.063 H 
BRANCH  75  78
ATOM     78  C   UNL A   1      40.198  29.034  29.077  1.00  0.00     0.031 A 
ATOM     79  C   UNL A   1      40.886  27.777  28.627  1.00  0.00     0.074 A 
ATOM     80  C   UNL A   1      40.876  29.952  29.793  1.00  0.00     0.049 A 
ATOM     81  N   UNL A   1      42.123  27.395  28.826  1.00  0.00    -0.248 NA
ATOM     82  C   UNL A   1      40.073  26.808  27.876  1.00  0.00    -0.034 C 
ATOM     83  C   UNL A   1      40.304  31.185  30.326  1.00  0.00    -0.036 A 
ATOM     84  N   UNL A   1      42.183  29.990  30.208  1.00  0.00    -0.354 N 
ATOM     85  C   UNL A   1      42.231  26.144  28.236  1.00  0.00     0.074 A 
ATOM     86  C   UNL A   1      40.923  25.805  27.720  1.00  0.00    -0.034 C 
ATOM     87  H   UNL A   1      39.096  26.890  27.554  1.00  0.00     0.065 H 
ATOM     88  C   UNL A   1      41.250  31.870  30.983  1.00  0.00    -0.036 A 
ATOM     89  H   UNL A   1      39.322  31.484  30.213  1.00  0.00     0.065 H 
ATOM     90  C   UNL A   1      42.493  31.105  30.950  1.00  0.00     0.049 A 
ATOM     91  H   UNL A   1      42.838  29.286  29.996  1.00  0.00     0.167 HD
ATOM     92  C   UNL A   1      43.330  25.361  28.116  1.00  0.00     0.037 A 
ATOM     93  H   UNL A   1      40.684  24.899  27.287  1.00  0.00     0.065 H 
ATOM     94  H   UNL A   1      41.122  32.787  31.439  1.00  0.00     0.065 H 
ATOM     95  C   UNL A   1      43.644  31.467  31.545  1.00  0.00     0.037 A 
ATOM     96  C   UNL A   1      44.633  25.716  28.614  1.00  0.00     0.049 A 
ATOM     97  C   UNL A   1      44.847  30.576  31.402  1.00  0.00     0.074 A 
ATOM     98  C   UNL A   1      45.824  25.024  28.484  1.00  0.00    -0.036 A 
ATOM     99  N   UNL A   1      44.914  26.862  29.346  1.00  0.00    -0.354 N 
ATOM    100  N   UNL A   1      44.957  29.433  30.770  1.00  0.00    -0.248 NA
ATOM    101  C   UNL A   1      46.088  31.031  32.043  1.00  0.00    -0.034 C 
ATOM    102  C   UNL A   1      46.814  25.722  29.183  1.00  0.00    -0.036 A 
ATOM    103  H   UNL A   1      45.958  24.144  27.962  1.00  0.00     0.065 H 
ATOM    104  C   UNL A   1      46.255  26.881  29.699  1.00  0.00     0.049 A 
ATOM    105  H   UNL A   1      44.258  27.558  29.580  1.00  0.00     0.167 HD
ATOM    106  C   UNL A   1      46.281  29.044  30.914  1.00  0.00     0.074 A 
ATOM    107  C   UNL A   1      46.941  30.084  31.677  1.00  0.00    -0.034 C 
ATOM    108  H   UNL A   1      46.252  31.867  32.625  1.00  0.00     0.065 H 
ATOM    109  H   UNL A   1      47.796  25.426  29.295  1.00  0.00     0.065 H 
ATOM    110  C   UNL A   1      46.896  27.926  30.457  1.00  0.00     0.037 A 
ATOM    111  H   UNL A   1      47.947  30.088  31.905  1.00  0.00     0.065 H 
BRANCH  92 112
ATOM    112  C   UNL A   1      43.170  24.040  27.420  1.00  0.00     0.064 A 
ATOM    113  C   UNL A   1      42.721  22.897  28.098  1.00  0.00     0.173 A 
ATOM    114  C   UNL A   1      43.432  23.926  26.046  1.00  0.00     0.173 A 
ATOM    115  F   UNL A   1      42.467  22.949  29.414  1.00  0.00    -0.203 F 
ATOM    116  C   UNL A   1      42.569  21.682  27.434  1.00  0.00     0.198 A 
ATOM    117  C   UNL A   1      43.247  22.717  25.378  1.00  0.00     0.198 A 
ATOM    118  F   UNL A   1      43.858  24.989  25.347  1.00  0.00    -0.203 F 
ATOM    119  F   UNL A   1      42.187  20.592  28.114  1.00  0.00    -0.200 F 
ATOM    120  C   UNL A   1      42.824  21.595  26.074  1.00  0.00     0.200 A 
ATOM    121  F   UNL A   1      43.480  22.639  24.060  1.00  0.00    -0.200 F 
ATOM    122  F   UNL A   1      42.666  20.429  25.434  1.00  0.00    -0.200 F 
ENDBRANCH  92 112
BRANCH  95 123
ATOM    123  C   UNL A   1      43.719  32.739  32.312  1.00  0.00     0.064 A 
ATOM    124  C   UNL A   1      43.992  33.954  31.671  1.00  0.00     0.173 A 
ATOM    125  C   UNL A   1      43.520  32.765  33.700  1.00  0.00     0.173 A 
ATOM    126  F   UNL A   1      44.208  33.979  30.347  1.00  0.00    -0.203 F 
ATOM    127  C   UNL A   1      44.088  35.143  32.390  1.00  0.00     0.198 A 
ATOM    128  C   UNL A   1      43.584  33.960  34.415  1.00  0.00     0.198 A 
ATOM    129  F   UNL A   1      43.248  31.631  34.363  1.00  0.00    -0.203 F 
ATOM    130  F   UNL A   1      44.398  36.283  31.758  1.00  0.00    -0.200 F 
ATOM    131  C   UNL A   1      43.878  35.146  33.761  1.00  0.00     0.200 A 
ATOM    132  F   UNL A   1      43.363  33.961  35.737  1.00  0.00    -0.200 F 
ATOM    133  F   UNL A   1      43.965  36.291  34.451  1.00  0.00    -0.200 F 
ENDBRANCH  95 123
BRANCH 110 134
ATOM    134  C   UNL A   1      48.364  27.786  30.741  1.00  0.00     0.064 A 
ATOM    135  C   UNL A   1      49.335  28.311  29.875  1.00  0.00     0.173 A 
ATOM    136  C   UNL A   1      48.801  27.147  31.911  1.00  0.00     0.173 A 
ATOM    137  F   UNL A   1      48.969  28.917  28.736  1.00  0.00    -0.203 F 
ATOM    138  C   UNL A   1      50.692  28.174  30.157  1.00  0.00     0.198 A 
ATOM    139  C   UNL A   1      50.158  27.042  32.205  1.00  0.00     0.198 A 
ATOM    140  F   UNL A   1      47.913  26.634  32.775  1.00  0.00    -0.203 F 
ATOM    141  F   UNL A   1      51.603  28.635  29.289  1.00  0.00    -0.200 F 
ATOM    142  C   UNL A   1      51.101  27.547  31.325  1.00  0.00     0.200 A 
ATOM    143  F   UNL A   1      50.551  26.449  33.341  1.00  0.00    -0.200 F 
ATOM    144  F   UNL A   1      52.408  27.423  31.597  1.00  0.00    -0.200 F 
ENDBRANCH 110 134
ENDBRANCH  75  78
ENDBRANCH  65  68
ENDBRANCH  61  64
ENDBRANCH  58  61
ENDBRANCH  55  58
ENDBRANCH  52  55
ENDBRANCH   1  52
TORSDOF 22
ENDMDL
MODEL 10
REMARK VINA RESULT:      -9.8      5.751      9.579
REMARK SMILES COc1ccc(/C=C/c2cc(OC)cc(OC)c2/C=C/C(=O)NCCCCCCNC(=O)c2ccc(-c3c4nc(c(-c5c(F)c(F)c(F)c(F)c5F)c5ccc([nH]5)c(-c5c(F)c(F)c(F)c(F)c5F)c5nc(c(-c6c(F)c(F)c(F)c(F)c6F)c6ccc3[nH]6)C=C5)C=C4)cc2)cc1
REMARK SMILES IDX 25 1 24 4 23 7 21 8 22 9 20 11 19 12 18 15 9 16 10 17 11 18
REMARK SMILES IDX 15 20 14 21 8 23 7 24 6 27 3 28 4 29 97 30 5 31 96 33 2 37
REMARK SMILES IDX 1 38 12 42 13 43 16 47 17 48 26 52 27 55 28 58 29 61 30 64
REMARK SMILES IDX 31 65 32 67 33 68 34 69 95 70 35 71 94 73 36 75 37 78 38 79
REMARK SMILES IDX 88 80 39 81 93 82 87 83 89 84 40 85 92 86 86 88 85 90 41 92
REMARK SMILES IDX 73 95 53 96 72 97 54 98 57 99 71 100 90 101 55 102 56 104
REMARK SMILES IDX 70 106 91 107 58 110 42 112 43 113 51 114 44 115 45 116
REMARK SMILES IDX 49 117 52 118 46 119 47 120 50 121 48 122 74 123 75 124
REMARK SMILES IDX 83 125 76 126 77 127 81 128 84 129 78 130 79 131 82 132
REMARK SMILES IDX 80 133 59 134 60 135 68 136 61 137 62 138 66 139 69 140
REMARK SMILES IDX 63 141 64 142 67 143 65 144
REMARK H PARENT 25 2 25 3 24 5 24 6 23 10 19 13 20 14 10 19 14 22 7 25 8 26
REMARK H PARENT 4 32 97 34 5 35 96 36 1 39 1 40 1 41 13 44 13 45 13 46 17 49
REMARK H PARENT 17 50 17 51 26 53 26 54 27 56 27 57 28 59 28 60 29 62 29 63
REMARK H PARENT 30 66 34 72 95 74 35 76 94 77 93 87 87 89 89 91 92 93 86 94
REMARK H PARENT 54 103 57 105 90 108 55 109 91 111
REMARK Flexibility Score: inf
ROOT
ATOM      1  C   UNL A   1      44.785  25.397  32.774  1.00  0.00    -0.036 C 
ATOM      2  H   UNL A   1      43.830  25.633  33.196  1.00  0.00     0.028 H 
ATOM      3  H   UNL A   1      45.361  26.271  32.554  1.00  0.00     0.028 H 
ENDROOT
BRANCH   1   4
ATOM      4  C   UNL A   1      44.562  24.667  31.456  1.00  0.00     0.018 C 
ATOM      5  H   UNL A   1      44.662  23.615  31.619  1.00  0.00     0.049 H 
ATOM      6  H   UNL A   1      43.579  24.904  31.102  1.00  0.00     0.049 H 
BRANCH   4   7
ATOM      7  N   UNL A   1      45.519  25.082  30.456  1.00  0.00    -0.353 N 
ATOM      8  C   UNL A   1      45.445  24.945  29.106  1.00  0.00     0.244 C 
ATOM      9  O   UNL A   1      46.314  25.405  28.376  1.00  0.00    -0.270 OA
ATOM     10  H   UNL A   1      46.332  25.522  30.797  1.00  0.00     0.163 HD
BRANCH   8  11
ATOM     11  C   UNL A   1      44.270  24.272  28.518  1.00  0.00     0.004 C 
ATOM     12  C   UNL A   1      43.393  24.958  27.770  1.00  0.00    -0.045 C 
ATOM     13  H   UNL A   1      43.621  25.928  27.500  1.00  0.00     0.063 H 
ATOM     14  H   UNL A   1      44.122  23.264  28.683  1.00  0.00     0.068 H 
BRANCH  12  15
ATOM     15  C   UNL A   1      42.118  24.378  27.319  1.00  0.00     0.024 A 
ATOM     16  C   UNL A   1      40.904  24.991  27.747  1.00  0.00    -0.011 A 
ATOM     17  C   UNL A   1      39.667  24.424  27.394  1.00  0.00    -0.012 A 
ATOM     18  C   UNL A   1      39.602  23.258  26.640  1.00  0.00     0.123 A 
ATOM     19  H   UNL A   1      38.794  24.881  27.699  1.00  0.00     0.067 H 
ATOM     20  C   UNL A   1      42.044  23.205  26.536  1.00  0.00     0.130 A 
ATOM     21  C   UNL A   1      40.784  22.675  26.201  1.00  0.00     0.023 A 
ATOM     22  H   UNL A   1      40.737  21.829  25.612  1.00  0.00     0.070 H 
BRANCH  16  23
ATOM     23  C   UNL A   1      40.824  26.189  28.613  1.00  0.00    -0.054 C 
ATOM     24  C   UNL A   1      39.662  26.681  29.073  1.00  0.00    -0.054 C 
ATOM     25  H   UNL A   1      38.802  26.186  28.792  1.00  0.00     0.063 H 
ATOM     26  H   UNL A   1      41.700  26.667  28.874  1.00  0.00     0.063 H 
BRANCH  24  27
ATOM     27  C   UNL A   1      39.496  27.865  29.944  1.00  0.00    -0.025 A 
ATOM     28  C   UNL A   1      39.286  30.217  31.516  1.00  0.00     0.118 A 
ATOM     29  C   UNL A   1      38.815  28.994  31.994  1.00  0.00    -0.019 A 
ATOM     30  C   UNL A   1      39.842  30.270  30.240  1.00  0.00    -0.019 A 
ATOM     31  C   UNL A   1      38.912  27.830  31.216  1.00  0.00    -0.051 A 
ATOM     32  H   UNL A   1      38.389  28.944  32.934  1.00  0.00     0.066 H 
ATOM     33  C   UNL A   1      39.948  29.106  29.468  1.00  0.00    -0.051 A 
ATOM     34  H   UNL A   1      40.177  31.170  29.864  1.00  0.00     0.066 H 
ATOM     35  H   UNL A   1      38.549  26.938  31.586  1.00  0.00     0.063 H 
ATOM     36  H   UNL A   1      40.368  29.162  28.527  1.00  0.00     0.063 H 
BRANCH  28  37
ATOM     37  O   UNL A   1      39.186  31.265  32.391  1.00  0.00    -0.497 OA
BRANCH  37  38
ATOM     38  C   UNL A   1      38.957  30.938  33.757  1.00  0.00     0.078 C 
ATOM     39  H   UNL A   1      39.891  30.917  34.280  1.00  0.00     0.067 H 
ATOM     40  H   UNL A   1      38.492  29.976  33.820  1.00  0.00     0.067 H 
ATOM     41  H   UNL A   1      38.319  31.674  34.198  1.00  0.00     0.067 H 
ENDBRANCH  37  38
ENDBRANCH  28  37
ENDBRANCH  24  27
ENDBRANCH  16  23
BRANCH  18  42
ATOM     42  O   UNL A   1      38.343  22.776  26.403  1.00  0.00    -0.497 OA
BRANCH  42  43
ATOM     43  C   UNL A   1      37.379  23.732  25.969  1.00  0.00     0.078 C 
ATOM     44  H   UNL A   1      36.693  23.934  26.766  1.00  0.00     0.067 H 
ATOM     45  H   UNL A   1      36.845  23.344  25.128  1.00  0.00     0.067 H 
ATOM     46  H   UNL A   1      37.876  24.638  25.689  1.00  0.00     0.067 H 
ENDBRANCH  42  43
ENDBRANCH  18  42
BRANCH  20  47
ATOM     47  O   UNL A   1      43.024  22.389  26.036  1.00  0.00    -0.496 OA
BRANCH  47  48
ATOM     48  C   UNL A   1      43.777  22.702  24.882  1.00  0.00     0.078 C 
ATOM     49  H   UNL A   1      44.675  22.120  24.873  1.00  0.00     0.067 H 
ATOM     50  H   UNL A   1      44.028  23.743  24.891  1.00  0.00     0.067 H 
ATOM     51  H   UNL A   1      43.201  22.481  24.008  1.00  0.00     0.067 H 
ENDBRANCH  47  48
ENDBRANCH  20  47
ENDBRANCH  12  15
ENDBRANCH   8  11
ENDBRANCH   4   7
ENDBRANCH   1   4
BRANCH   1  52
ATOM     52  C   UNL A   1      45.579  24.586  33.804  1.00  0.00    -0.052 C 
ATOM     53  H   UNL A   1      45.539  25.105  34.738  1.00  0.00     0.027 H 
ATOM     54  H   UNL A   1      46.569  24.491  33.410  1.00  0.00     0.027 H 
BRANCH  52  55
ATOM     55  C   UNL A   1      45.072  23.156  34.033  1.00  0.00    -0.052 C 
ATOM     56  H   UNL A   1      45.918  22.527  34.211  1.00  0.00     0.027 H 
ATOM     57  H   UNL A   1      44.523  22.886  33.155  1.00  0.00     0.027 H 
BRANCH  55  58
ATOM     58  C   UNL A   1      44.107  23.000  35.209  1.00  0.00    -0.036 C 
ATOM     59  H   UNL A   1      44.439  23.639  36.001  1.00  0.00     0.028 H 
ATOM     60  H   UNL A   1      44.116  21.964  35.476  1.00  0.00     0.028 H 
BRANCH  58  61
ATOM     61  C   UNL A   1      42.660  23.352  34.890  1.00  0.00     0.018 C 
ATOM     62  H   UNL A   1      42.177  22.496  34.468  1.00  0.00     0.049 H 
ATOM     63  H   UNL A   1      42.655  24.169  34.198  1.00  0.00     0.049 H 
BRANCH  61  64
ATOM     64  N   UNL A   1      41.942  23.760  36.084  1.00  0.00    -0.352 N 
ATOM     65  C   UNL A   1      41.726  25.021  36.578  1.00  0.00     0.251 C 
ATOM     66  H   UNL A   1      41.554  23.027  36.614  1.00  0.00     0.163 HD
ATOM     67  O   UNL A   1      41.338  25.167  37.733  1.00  0.00    -0.269 OA
BRANCH  65  68
ATOM     68  C   UNL A   1      41.965  26.210  35.729  1.00  0.00     0.039 A 
ATOM     69  C   UNL A   1      43.211  26.841  35.793  1.00  0.00    -0.049 A 
ATOM     70  C   UNL A   1      40.958  26.736  34.915  1.00  0.00    -0.049 A 
ATOM     71  C   UNL A   1      43.457  27.974  35.017  1.00  0.00    -0.053 A 
ATOM     72  H   UNL A   1      43.947  26.468  36.413  1.00  0.00     0.063 H 
ATOM     73  C   UNL A   1      41.228  27.822  34.085  1.00  0.00    -0.053 A 
ATOM     74  H   UNL A   1      40.013  26.322  34.930  1.00  0.00     0.063 H 
ATOM     75  C   UNL A   1      42.476  28.462  34.138  1.00  0.00    -0.014 A 
ATOM     76  H   UNL A   1      44.366  28.457  35.088  1.00  0.00     0.063 H 
ATOM     77  H   UNL A   1      40.508  28.157  33.427  1.00  0.00     0.063 H 
BRANCH  75  78
ATOM     78  C   UNL A   1      42.736  29.649  33.282  1.00  0.00     0.031 A 
ATOM     79  C   UNL A   1      43.066  29.476  31.827  1.00  0.00     0.074 A 
ATOM     80  C   UNL A   1      42.723  30.880  33.827  1.00  0.00     0.049 A 
ATOM     81  N   UNL A   1      43.363  30.387  30.933  1.00  0.00    -0.248 NA
ATOM     82  C   UNL A   1      43.090  28.100  31.310  1.00  0.00    -0.034 C 
ATOM     83  C   UNL A   1      42.466  31.168  35.235  1.00  0.00    -0.036 A 
ATOM     84  N   UNL A   1      42.942  32.116  33.274  1.00  0.00    -0.354 N 
ATOM     85  C   UNL A   1      43.617  29.694  29.759  1.00  0.00     0.074 A 
ATOM     86  C   UNL A   1      43.495  28.285  30.063  1.00  0.00    -0.034 C 
ATOM     87  H   UNL A   1      42.852  27.219  31.793  1.00  0.00     0.065 H 
ATOM     88  C   UNL A   1      42.524  32.491  35.439  1.00  0.00    -0.036 A 
ATOM     89  H   UNL A   1      42.269  30.461  35.962  1.00  0.00     0.065 H 
ATOM     90  C   UNL A   1      42.859  33.147  34.180  1.00  0.00     0.049 A 
ATOM     91  H   UNL A   1      43.139  32.253  32.319  1.00  0.00     0.167 HD
ATOM     92  C   UNL A   1      43.905  30.191  28.532  1.00  0.00     0.037 A 
ATOM     93  H   UNL A   1      43.698  27.524  29.395  1.00  0.00     0.065 H 
ATOM     94  H   UNL A   1      42.359  32.969  36.339  1.00  0.00     0.065 H 
ATOM     95  C   UNL A   1      43.043  34.470  34.017  1.00  0.00     0.037 A 
ATOM     96  C   UNL A   1      44.003  31.596  28.233  1.00  0.00     0.049 A 
ATOM     97  C   UNL A   1      43.367  34.995  32.646  1.00  0.00     0.074 A 
ATOM     98  C   UNL A   1      44.222  32.204  27.009  1.00  0.00    -0.036 A 
ATOM     99  N   UNL A   1      43.896  32.614  29.172  1.00  0.00    -0.354 N 
ATOM    100  N   UNL A   1      43.525  34.335  31.525  1.00  0.00    -0.248 NA
ATOM    101  C   UNL A   1      43.527  36.450  32.515  1.00  0.00    -0.034 C 
ATOM    102  C   UNL A   1      44.302  33.585  27.216  1.00  0.00    -0.036 A 
ATOM    103  H   UNL A   1      44.310  31.722  26.102  1.00  0.00     0.065 H 
ATOM    104  C   UNL A   1      44.074  33.844  28.558  1.00  0.00     0.049 A 
ATOM    105  H   UNL A   1      43.721  32.480  30.131  1.00  0.00     0.167 HD
ATOM    106  C   UNL A   1      43.776  35.291  30.551  1.00  0.00     0.074 A 
ATOM    107  C   UNL A   1      43.729  36.580  31.211  1.00  0.00    -0.034 C 
ATOM    108  H   UNL A   1      43.490  37.178  33.245  1.00  0.00     0.065 H 
ATOM    109  H   UNL A   1      44.497  34.293  26.490  1.00  0.00     0.065 H 
ATOM    110  C   UNL A   1      44.022  35.118  29.229  1.00  0.00     0.037 A 
ATOM    111  H   UNL A   1      43.839  37.484  30.728  1.00  0.00     0.065 H 
BRANCH  92 112
ATOM    112  C   UNL A   1      44.133  29.210  27.419  1.00  0.00     0.064 A 
ATOM    113  C   UNL A   1      45.417  28.740  27.100  1.00  0.00     0.173 A 
ATOM    114  C   UNL A   1      43.050  28.700  26.687  1.00  0.00     0.173 A 
ATOM    115  F   UNL A   1      46.489  29.203  27.762  1.00  0.00    -0.203 F 
ATOM    116  C   UNL A   1      45.610  27.821  26.072  1.00  0.00     0.198 A 
ATOM    117  C   UNL A   1      43.244  27.756  25.681  1.00  0.00     0.198 A 
ATOM    118  F   UNL A   1      41.801  29.110  26.954  1.00  0.00    -0.203 F 
ATOM    119  F   UNL A   1      46.851  27.427  25.753  1.00  0.00    -0.200 F 
ATOM    120  C   UNL A   1      44.524  27.324  25.369  1.00  0.00     0.200 A 
ATOM    121  F   UNL A   1      42.190  27.267  25.012  1.00  0.00    -0.200 F 
ATOM    122  F   UNL A   1      44.710  26.432  24.387  1.00  0.00    -0.200 F 
ENDBRANCH  92 112
BRANCH  95 123
ATOM    123  C   UNL A   1      42.905  35.389  35.178  1.00  0.00     0.064 A 
ATOM    124  C   UNL A   1      44.032  35.952  35.791  1.00  0.00     0.173 A 
ATOM    125  C   UNL A   1      41.646  35.721  35.700  1.00  0.00     0.173 A 
ATOM    126  F   UNL A   1      45.259  35.652  35.340  1.00  0.00    -0.203 F 
ATOM    127  C   UNL A   1      43.908  36.793  36.894  1.00  0.00     0.198 A 
ATOM    128  C   UNL A   1      41.521  36.588  36.784  1.00  0.00     0.198 A 
ATOM    129  F   UNL A   1      40.534  35.215  35.147  1.00  0.00    -0.203 F 
ATOM    130  F   UNL A   1      45.005  37.280  37.491  1.00  0.00    -0.200 F 
ATOM    131  C   UNL A   1      42.652  37.115  37.387  1.00  0.00     0.200 A 
ATOM    132  F   UNL A   1      40.305  36.910  37.246  1.00  0.00    -0.200 F 
ATOM    133  F   UNL A   1      42.533  37.928  38.445  1.00  0.00    -0.200 F 
ENDBRANCH  95 123
BRANCH 110 134
ATOM    134  C   UNL A   1      44.229  36.355  28.404  1.00  0.00     0.064 A 
ATOM    135  C   UNL A   1      45.509  36.874  28.161  1.00  0.00     0.173 A 
ATOM    136  C   UNL A   1      43.132  37.009  27.822  1.00  0.00     0.173 A 
ATOM    137  F   UNL A   1      46.588  36.294  28.707  1.00  0.00    -0.203 F 
ATOM    138  C   UNL A   1      45.681  38.020  27.390  1.00  0.00     0.198 A 
ATOM    139  C   UNL A   1      43.311  38.136  27.024  1.00  0.00     0.198 A 
ATOM    140  F   UNL A   1      41.888  36.550  28.018  1.00  0.00    -0.203 F 
ATOM    141  F   UNL A   1      46.909  38.529  27.216  1.00  0.00    -0.200 F 
ATOM    142  C   UNL A   1      44.583  38.645  26.817  1.00  0.00     0.200 A 
ATOM    143  F   UNL A   1      42.251  38.730  26.459  1.00  0.00    -0.200 F 
ATOM    144  F   UNL A   1      44.752  39.745  26.070  1.00  0.00    -0.200 F 
ENDBRANCH 110 134
ENDBRANCH  75  78
ENDBRANCH  65  68
ENDBRANCH  61  64
ENDBRANCH  58  61
ENDBRANCH  55  58
ENDBRANCH  52  55
ENDBRANCH   1  52
TORSDOF 22
ENDMDL
