MODEL 1
REMARK VINA RESULT:     -12.9      0.000      0.000
REMARK SMILES CN(C)S(=O)(=O)c1ccc(-n2c(CCC(=O)NCCCCCCNC(=O)c3ccc(-c4c5nc(c(-c6c(F)c(F)c(F)c(F)c6F)c6ccc([nH]6)c(-c6c(F)c(F)c(F)c(F)c6F)c6nc(c(-c7c(F)c(F)c(F)c(F)c7F)c7ccc4[nH]7)C=C6)C=C5)cc3)ccc2-c2ccc(F)cc2)cc1
REMARK SMILES IDX 18 1 17 4 15 5 16 6 14 8 13 11 12 14 11 15 92 16 90 17 91 18
REMARK SMILES IDX 10 21 7 22 8 23 101 24 9 25 100 27 4 31 5 32 6 33 2 34 1 35
REMARK SMILES IDX 3 39 93 43 94 44 99 45 95 46 98 48 96 50 97 53 19 54 20 57
REMARK SMILES IDX 21 60 22 63 23 66 24 69 25 70 26 72 27 73 28 74 89 75 29 76
REMARK SMILES IDX 88 78 30 80 31 83 32 84 82 85 33 86 87 87 81 88 83 89 34 90
REMARK SMILES IDX 86 91 80 93 79 95 35 97 67 100 47 101 66 102 48 103 51 104
REMARK SMILES IDX 65 105 84 106 49 107 50 109 64 111 85 112 52 115 36 117
REMARK SMILES IDX 37 118 45 119 38 120 39 121 43 122 46 123 40 124 41 125
REMARK SMILES IDX 44 126 42 127 68 128 69 129 77 130 70 131 71 132 75 133
REMARK SMILES IDX 78 134 72 135 73 136 76 137 74 138 53 139 54 140 62 141
REMARK SMILES IDX 55 142 56 143 60 144 63 145 57 146 58 147 61 148 59 149
REMARK H PARENT 18 2 18 3 17 7 14 9 14 10 13 12 13 13 90 19 91 20 8 26 101 28
REMARK H PARENT 9 29 100 30 1 36 1 37 1 38 3 40 3 41 3 42 94 47 99 49 95 51
REMARK H PARENT 98 52 19 55 19 56 20 58 20 59 21 61 21 62 22 64 22 65 23 67
REMARK H PARENT 23 68 24 71 28 77 89 79 29 81 88 82 87 92 81 94 83 96 86 98
REMARK H PARENT 80 99 48 108 51 110 84 113 49 114 85 116
REMARK Flexibility Score: inf
ROOT
ATOM      1  C   UNL A   1      30.036  28.246  22.672  1.00  0.00     0.017 C 
ATOM      2  H   UNL A   1      29.409  27.621  23.274  1.00  0.00     0.049 H 
ATOM      3  H   UNL A   1      29.483  28.726  21.892  1.00  0.00     0.049 H 
ENDROOT
BRANCH   1   4
ATOM      4  N   UNL A   1      31.054  27.416  22.042  1.00  0.00    -0.356 N 
ATOM      5  C   UNL A   1      31.270  26.070  22.108  1.00  0.00     0.220 C 
ATOM      6  O   UNL A   1      32.179  25.598  21.419  1.00  0.00    -0.275 OA
ATOM      7  H   UNL A   1      31.692  27.907  21.477  1.00  0.00     0.163 HD
BRANCH   5   8
ATOM      8  C   UNL A   1      30.449  25.165  23.010  1.00  0.00     0.032 C 
ATOM      9  H   UNL A   1      29.430  25.487  22.957  1.00  0.00     0.037 H 
ATOM     10  H   UNL A   1      30.615  24.172  22.649  1.00  0.00     0.037 H 
BRANCH   8  11
ATOM     11  C   UNL A   1      30.858  25.139  24.495  1.00  0.00    -0.003 C 
ATOM     12  H   UNL A   1      30.493  26.032  24.958  1.00  0.00     0.034 H 
ATOM     13  H   UNL A   1      30.435  24.249  24.911  1.00  0.00     0.034 H 
BRANCH  11  14
ATOM     14  C   UNL A   1      32.348  25.059  24.736  1.00  0.00     0.024 A 
ATOM     15  N   UNL A   1      33.151  23.912  24.946  1.00  0.00    -0.314 N 
ATOM     16  C   UNL A   1      34.486  24.386  25.147  1.00  0.00     0.053 A 
ATOM     17  C   UNL A   1      33.156  26.180  24.846  1.00  0.00    -0.040 A 
ATOM     18  C   UNL A   1      34.469  25.768  25.103  1.00  0.00    -0.036 A 
ATOM     19  H   UNL A   1      32.842  27.158  24.752  1.00  0.00     0.064 H 
ATOM     20  H   UNL A   1      35.282  26.388  25.239  1.00  0.00     0.065 H 
BRANCH  15  21
ATOM     21  C   UNL A   1      32.783  22.509  24.787  1.00  0.00     0.046 A 
ATOM     22  C   UNL A   1      32.728  19.708  24.417  1.00  0.00     0.082 A 
ATOM     23  C   UNL A   1      32.887  20.242  25.688  1.00  0.00    -0.040 A 
ATOM     24  C   UNL A   1      32.517  20.552  23.339  1.00  0.00    -0.040 A 
ATOM     25  C   UNL A   1      32.816  21.624  25.870  1.00  0.00    -0.037 A 
ATOM     26  H   UNL A   1      33.058  19.621  26.494  1.00  0.00     0.064 H 
ATOM     27  C   UNL A   1      32.545  21.937  23.536  1.00  0.00    -0.037 A 
ATOM     28  H   UNL A   1      32.342  20.163  22.401  1.00  0.00     0.064 H 
ATOM     29  H   UNL A   1      32.787  22.003  26.829  1.00  0.00     0.065 H 
ATOM     30  H   UNL A   1      32.384  22.557  22.727  1.00  0.00     0.065 H 
BRANCH  22  31
ATOM     31  S   UNL A   1      32.807  17.958  24.175  1.00  0.00     0.242 S 
ATOM     32  O   UNL A   1      32.915  17.708  22.756  1.00  0.00    -0.207 OA
ATOM     33  O   UNL A   1      31.743  17.356  24.956  1.00  0.00    -0.207 OA
BRANCH  31  34
ATOM     34  N   UNL A   1      34.296  17.558  24.917  1.00  0.00    -0.204 NA
BRANCH  34  35
ATOM     35  C   UNL A   1      34.539  16.104  24.984  1.00  0.00     0.002 C 
ATOM     36  H   UNL A   1      33.979  15.613  24.216  1.00  0.00     0.041 H 
ATOM     37  H   UNL A   1      34.234  15.735  25.940  1.00  0.00     0.041 H 
ATOM     38  H   UNL A   1      35.582  15.911  24.843  1.00  0.00     0.041 H 
ENDBRANCH  34  35
BRANCH  34  39
ATOM     39  C   UNL A   1      35.478  18.299  24.421  1.00  0.00     0.002 C 
ATOM     40  H   UNL A   1      36.072  17.654  23.807  1.00  0.00     0.041 H 
ATOM     41  H   UNL A   1      36.062  18.636  25.253  1.00  0.00     0.041 H 
ATOM     42  H   UNL A   1      35.156  19.142  23.847  1.00  0.00     0.041 H 
ENDBRANCH  34  39
ENDBRANCH  31  34
ENDBRANCH  22  31
ENDBRANCH  15  21
BRANCH  16  43
ATOM     43  C   UNL A   1      35.706  23.558  25.129  1.00  0.00    -0.001 A 
ATOM     44  C   UNL A   1      36.524  23.383  26.248  1.00  0.00    -0.050 A 
ATOM     45  C   UNL A   1      36.002  22.827  23.973  1.00  0.00    -0.050 A 
ATOM     46  C   UNL A   1      37.541  22.415  26.217  1.00  0.00    -0.026 A 
ATOM     47  H   UNL A   1      36.382  23.962  27.090  1.00  0.00     0.063 H 
ATOM     48  C   UNL A   1      37.001  21.860  23.932  1.00  0.00    -0.026 A 
ATOM     49  H   UNL A   1      35.457  23.013  23.116  1.00  0.00     0.063 H 
ATOM     50  C   UNL A   1      37.757  21.650  25.070  1.00  0.00     0.123 A 
ATOM     51  H   UNL A   1      38.133  22.267  27.050  1.00  0.00     0.065 H 
ATOM     52  H   UNL A   1      37.174  21.314  23.074  1.00  0.00     0.065 H 
ATOM     53  F   UNL A   1      38.757  20.760  25.036  1.00  0.00    -0.207 F 
ENDBRANCH  16  43
ENDBRANCH  11  14
ENDBRANCH   8  11
ENDBRANCH   5   8
ENDBRANCH   1   4
BRANCH   1  54
ATOM     54  C   UNL A   1      30.630  29.340  23.557  1.00  0.00    -0.036 C 
ATOM     55  H   UNL A   1      29.885  30.100  23.675  1.00  0.00     0.028 H 
ATOM     56  H   UNL A   1      31.519  29.657  23.053  1.00  0.00     0.028 H 
BRANCH  54  57
ATOM     57  C   UNL A   1      31.094  28.924  24.960  1.00  0.00    -0.052 C 
ATOM     58  H   UNL A   1      31.449  27.918  24.883  1.00  0.00     0.027 H 
ATOM     59  H   UNL A   1      30.229  29.094  25.566  1.00  0.00     0.027 H 
BRANCH  57  60
ATOM     60  C   UNL A   1      32.204  29.739  25.683  1.00  0.00    -0.052 C 
ATOM     61  H   UNL A   1      31.765  30.684  25.923  1.00  0.00     0.027 H 
ATOM     62  H   UNL A   1      33.004  29.682  24.976  1.00  0.00     0.027 H 
BRANCH  60  63
ATOM     63  C   UNL A   1      32.902  29.253  26.977  1.00  0.00    -0.036 C 
ATOM     64  H   UNL A   1      32.497  28.288  27.200  1.00  0.00     0.028 H 
ATOM     65  H   UNL A   1      32.709  30.050  27.665  1.00  0.00     0.028 H 
BRANCH  63  66
ATOM     66  C   UNL A   1      34.451  29.111  27.041  1.00  0.00     0.018 C 
ATOM     67  H   UNL A   1      34.783  28.643  26.138  1.00  0.00     0.049 H 
ATOM     68  H   UNL A   1      34.673  28.527  27.911  1.00  0.00     0.049 H 
BRANCH  66  69
ATOM     69  N   UNL A   1      35.158  30.379  27.189  1.00  0.00    -0.352 N 
ATOM     70  C   UNL A   1      36.321  30.754  27.835  1.00  0.00     0.251 C 
ATOM     71  H   UNL A   1      34.711  31.127  26.732  1.00  0.00     0.163 HD
ATOM     72  O   UNL A   1      36.396  31.944  28.157  1.00  0.00    -0.269 OA
BRANCH  70  73
ATOM     73  C   UNL A   1      37.510  29.890  28.139  1.00  0.00     0.039 A 
ATOM     74  C   UNL A   1      38.525  29.790  27.163  1.00  0.00    -0.049 A 
ATOM     75  C   UNL A   1      37.617  29.057  29.245  1.00  0.00    -0.049 A 
ATOM     76  C   UNL A   1      39.607  28.898  27.301  1.00  0.00    -0.053 A 
ATOM     77  H   UNL A   1      38.474  30.388  26.324  1.00  0.00     0.063 H 
ATOM     78  C   UNL A   1      38.650  28.097  29.351  1.00  0.00    -0.053 A 
ATOM     79  H   UNL A   1      36.925  29.139  30.007  1.00  0.00     0.063 H 
ATOM     80  C   UNL A   1      39.684  28.043  28.405  1.00  0.00    -0.014 A 
ATOM     81  H   UNL A   1      40.348  28.875  26.582  1.00  0.00     0.063 H 
ATOM     82  H   UNL A   1      38.644  27.428  30.137  1.00  0.00     0.063 H 
BRANCH  80  83
ATOM     83  C   UNL A   1      41.014  27.446  28.780  1.00  0.00     0.031 A 
ATOM     84  C   UNL A   1      41.065  25.948  28.328  1.00  0.00     0.074 A 
ATOM     85  C   UNL A   1      41.963  28.199  29.439  1.00  0.00     0.049 A 
ATOM     86  N   UNL A   1      41.855  24.981  28.691  1.00  0.00    -0.248 NA
ATOM     87  C   UNL A   1      40.066  25.442  27.338  1.00  0.00    -0.034 C 
ATOM     88  C   UNL A   1      41.840  29.641  29.752  1.00  0.00    -0.036 A 
ATOM     89  N   UNL A   1      43.221  27.927  29.980  1.00  0.00    -0.354 N 
ATOM     90  C   UNL A   1      41.600  23.873  27.842  1.00  0.00     0.074 A 
ATOM     91  C   UNL A   1      40.426  24.184  27.101  1.00  0.00    -0.034 C 
ATOM     92  H   UNL A   1      39.270  25.956  26.928  1.00  0.00     0.065 H 
ATOM     93  C   UNL A   1      42.894  30.081  30.484  1.00  0.00    -0.036 A 
ATOM     94  H   UNL A   1      41.052  30.236  29.451  1.00  0.00     0.065 H 
ATOM     95  C   UNL A   1      43.833  28.997  30.714  1.00  0.00     0.049 A 
ATOM     96  H   UNL A   1      43.661  27.054  29.867  1.00  0.00     0.167 HD
ATOM     97  C   UNL A   1      42.457  22.822  27.694  1.00  0.00     0.037 A 
ATOM     98  H   UNL A   1      39.929  23.531  26.473  1.00  0.00     0.065 H 
ATOM     99  H   UNL A   1      43.011  31.047  30.829  1.00  0.00     0.065 H 
ATOM    100  C   UNL A   1      44.990  29.003  31.469  1.00  0.00     0.037 A 
ATOM    101  C   UNL A   1      43.502  22.926  28.646  1.00  0.00     0.049 A 
ATOM    102  C   UNL A   1      45.640  27.730  31.157  1.00  0.00     0.074 A 
ATOM    103  C   UNL A   1      43.509  22.807  30.010  1.00  0.00    -0.036 A 
ATOM    104  N   UNL A   1      44.646  23.555  28.231  1.00  0.00    -0.354 N 
ATOM    105  N   UNL A   1      46.287  27.499  30.056  1.00  0.00    -0.248 NA
ATOM    106  C   UNL A   1      45.570  26.634  32.131  1.00  0.00    -0.034 C 
ATOM    107  C   UNL A   1      44.412  23.810  30.404  1.00  0.00    -0.036 A 
ATOM    108  H   UNL A   1      42.985  22.144  30.601  1.00  0.00     0.065 H 
ATOM    109  C   UNL A   1      45.087  24.308  29.283  1.00  0.00     0.049 A 
ATOM    110  H   UNL A   1      45.068  23.480  27.346  1.00  0.00     0.167 HD
ATOM    111  C   UNL A   1      46.371  26.132  30.072  1.00  0.00     0.074 A 
ATOM    112  C   UNL A   1      46.259  25.719  31.454  1.00  0.00    -0.034 C 
ATOM    113  H   UNL A   1      45.122  26.588  33.060  1.00  0.00     0.065 H 
ATOM    114  H   UNL A   1      44.556  24.132  31.374  1.00  0.00     0.065 H 
ATOM    115  C   UNL A   1      45.911  25.451  28.995  1.00  0.00     0.037 A 
ATOM    116  H   UNL A   1      46.652  24.852  31.852  1.00  0.00     0.065 H 
BRANCH  97 117
ATOM    117  C   UNL A   1      42.635  21.808  26.594  1.00  0.00     0.064 A 
ATOM    118  C   UNL A   1      42.146  20.495  26.823  1.00  0.00     0.173 A 
ATOM    119  C   UNL A   1      43.589  21.941  25.576  1.00  0.00     0.173 A 
ATOM    120  F   UNL A   1      41.188  20.266  27.735  1.00  0.00    -0.203 F 
ATOM    121  C   UNL A   1      42.713  19.380  26.211  1.00  0.00     0.198 A 
ATOM    122  C   UNL A   1      44.111  20.821  24.921  1.00  0.00     0.198 A 
ATOM    123  F   UNL A   1      44.117  23.130  25.264  1.00  0.00    -0.203 F 
ATOM    124  F   UNL A   1      42.345  18.148  26.595  1.00  0.00    -0.200 F 
ATOM    125  C   UNL A   1      43.714  19.543  25.276  1.00  0.00     0.200 A 
ATOM    126  F   UNL A   1      45.073  20.985  24.003  1.00  0.00    -0.200 F 
ATOM    127  F   UNL A   1      44.323  18.473  24.748  1.00  0.00    -0.200 F 
ENDBRANCH  97 117
BRANCH 100 128
ATOM    128  C   UNL A   1      45.779  29.853  32.472  1.00  0.00     0.064 A 
ATOM    129  C   UNL A   1      46.996  30.499  32.239  1.00  0.00     0.173 A 
ATOM    130  C   UNL A   1      45.229  30.135  33.769  1.00  0.00     0.173 A 
ATOM    131  F   UNL A   1      47.705  30.244  31.135  1.00  0.00    -0.203 F 
ATOM    132  C   UNL A   1      47.539  31.431  33.158  1.00  0.00     0.198 A 
ATOM    133  C   UNL A   1      45.726  31.102  34.644  1.00  0.00     0.198 A 
ATOM    134  F   UNL A   1      44.171  29.473  34.254  1.00  0.00    -0.203 F 
ATOM    135  F   UNL A   1      48.712  32.024  32.891  1.00  0.00    -0.200 F 
ATOM    136  C   UNL A   1      46.879  31.769  34.330  1.00  0.00     0.200 A 
ATOM    137  F   UNL A   1      45.061  31.383  35.776  1.00  0.00    -0.200 F 
ATOM    138  F   UNL A   1      47.356  32.713  35.154  1.00  0.00    -0.200 F 
ENDBRANCH 100 128
BRANCH 115 139
ATOM    139  C   UNL A   1      45.971  26.236  27.697  1.00  0.00     0.064 A 
ATOM    140  C   UNL A   1      44.778  26.534  27.015  1.00  0.00     0.173 A 
ATOM    141  C   UNL A   1      47.161  26.585  27.036  1.00  0.00     0.173 A 
ATOM    142  F   UNL A   1      43.597  26.253  27.585  1.00  0.00    -0.203 F 
ATOM    143  C   UNL A   1      44.781  27.117  25.746  1.00  0.00     0.198 A 
ATOM    144  C   UNL A   1      47.166  27.172  25.766  1.00  0.00     0.198 A 
ATOM    145  F   UNL A   1      48.345  26.366  27.603  1.00  0.00    -0.203 F 
ATOM    146  F   UNL A   1      43.619  27.378  25.130  1.00  0.00    -0.200 F 
ATOM    147  C   UNL A   1      45.974  27.432  25.118  1.00  0.00     0.200 A 
ATOM    148  F   UNL A   1      48.331  27.490  25.178  1.00  0.00    -0.200 F 
ATOM    149  F   UNL A   1      45.976  28.000  23.904  1.00  0.00    -0.200 F 
ENDBRANCH 115 139
ENDBRANCH  80  83
ENDBRANCH  70  73
ENDBRANCH  66  69
ENDBRANCH  63  66
ENDBRANCH  60  63
ENDBRANCH  57  60
ENDBRANCH  54  57
ENDBRANCH   1  54
TORSDOF 21
ENDMDL
MODEL 2
REMARK VINA RESULT:     -12.4      4.627      9.741
REMARK SMILES CN(C)S(=O)(=O)c1ccc(-n2c(CCC(=O)NCCCCCCNC(=O)c3ccc(-c4c5nc(c(-c6c(F)c(F)c(F)c(F)c6F)c6ccc([nH]6)c(-c6c(F)c(F)c(F)c(F)c6F)c6nc(c(-c7c(F)c(F)c(F)c(F)c7F)c7ccc4[nH]7)C=C6)C=C5)cc3)ccc2-c2ccc(F)cc2)cc1
REMARK SMILES IDX 18 1 17 4 15 5 16 6 14 8 13 11 12 14 11 15 92 16 90 17 91 18
REMARK SMILES IDX 10 21 7 22 8 23 101 24 9 25 100 27 4 31 5 32 6 33 2 34 1 35
REMARK SMILES IDX 3 39 93 43 94 44 99 45 95 46 98 48 96 50 97 53 19 54 20 57
REMARK SMILES IDX 21 60 22 63 23 66 24 69 25 70 26 72 27 73 28 74 89 75 29 76
REMARK SMILES IDX 88 78 30 80 31 83 32 84 82 85 33 86 87 87 81 88 83 89 34 90
REMARK SMILES IDX 86 91 80 93 79 95 35 97 67 100 47 101 66 102 48 103 51 104
REMARK SMILES IDX 65 105 84 106 49 107 50 109 64 111 85 112 52 115 36 117
REMARK SMILES IDX 37 118 45 119 38 120 39 121 43 122 46 123 40 124 41 125
REMARK SMILES IDX 44 126 42 127 68 128 69 129 77 130 70 131 71 132 75 133
REMARK SMILES IDX 78 134 72 135 73 136 76 137 74 138 53 139 54 140 62 141
REMARK SMILES IDX 55 142 56 143 60 144 63 145 57 146 58 147 61 148 59 149
REMARK H PARENT 18 2 18 3 17 7 14 9 14 10 13 12 13 13 90 19 91 20 8 26 101 28
REMARK H PARENT 9 29 100 30 1 36 1 37 1 38 3 40 3 41 3 42 94 47 99 49 95 51
REMARK H PARENT 98 52 19 55 19 56 20 58 20 59 21 61 21 62 22 64 22 65 23 67
REMARK H PARENT 23 68 24 71 28 77 89 79 29 81 88 82 87 92 81 94 83 96 86 98
REMARK H PARENT 80 99 48 108 51 110 84 113 49 114 85 116
REMARK Flexibility Score: inf
ROOT
ATOM      1  C   UNL A   1      32.558  21.505  26.058  1.00  0.00     0.017 C 
ATOM      2  H   UNL A   1      31.752  21.098  26.632  1.00  0.00     0.049 H 
ATOM      3  H   UNL A   1      32.477  22.566  25.959  1.00  0.00     0.049 H 
ENDROOT
BRANCH   1   4
ATOM      4  N   UNL A   1      32.512  20.933  24.719  1.00  0.00    -0.356 N 
ATOM      5  C   UNL A   1      32.088  21.469  23.538  1.00  0.00     0.220 C 
ATOM      6  O   UNL A   1      32.213  20.785  22.518  1.00  0.00    -0.275 OA
ATOM      7  H   UNL A   1      32.840  20.008  24.656  1.00  0.00     0.163 HD
BRANCH   5   8
ATOM      8  C   UNL A   1      31.456  22.848  23.459  1.00  0.00     0.032 C 
ATOM      9  H   UNL A   1      30.566  22.767  22.873  1.00  0.00     0.037 H 
ATOM     10  H   UNL A   1      31.289  23.146  24.473  1.00  0.00     0.037 H 
BRANCH   8  11
ATOM     11  C   UNL A   1      32.329  23.957  22.842  1.00  0.00    -0.003 C 
ATOM     12  H   UNL A   1      33.166  23.495  22.361  1.00  0.00     0.034 H 
ATOM     13  H   UNL A   1      31.701  24.496  22.164  1.00  0.00     0.034 H 
BRANCH  11  14
ATOM     14  C   UNL A   1      32.856  24.969  23.835  1.00  0.00     0.024 A 
ATOM     15  N   UNL A   1      32.501  26.332  23.983  1.00  0.00    -0.314 N 
ATOM     16  C   UNL A   1      33.306  26.844  25.049  1.00  0.00     0.053 A 
ATOM     17  C   UNL A   1      33.861  24.681  24.744  1.00  0.00    -0.040 A 
ATOM     18  C   UNL A   1      34.142  25.833  25.487  1.00  0.00    -0.036 A 
ATOM     19  H   UNL A   1      34.325  23.767  24.856  1.00  0.00     0.064 H 
ATOM     20  H   UNL A   1      34.851  25.915  26.232  1.00  0.00     0.065 H 
BRANCH  15  21
ATOM     21  C   UNL A   1      31.400  27.053  23.352  1.00  0.00     0.046 A 
ATOM     22  C   UNL A   1      29.377  28.887  22.625  1.00  0.00     0.082 A 
ATOM     23  C   UNL A   1      30.672  29.054  22.156  1.00  0.00    -0.040 A 
ATOM     24  C   UNL A   1      29.060  27.775  23.387  1.00  0.00    -0.040 A 
ATOM     25  C   UNL A   1      31.640  28.090  22.443  1.00  0.00    -0.037 A 
ATOM     26  H   UNL A   1      30.919  29.887  21.599  1.00  0.00     0.064 H 
ATOM     27  C   UNL A   1      30.071  26.873  23.739  1.00  0.00    -0.037 A 
ATOM     28  H   UNL A   1      28.089  27.612  23.692  1.00  0.00     0.064 H 
ATOM     29  H   UNL A   1      32.557  28.143  21.973  1.00  0.00     0.065 H 
ATOM     30  H   UNL A   1      29.825  26.046  24.305  1.00  0.00     0.065 H 
BRANCH  22  31
ATOM     31  S   UNL A   1      28.140  30.096  22.260  1.00  0.00     0.242 S 
ATOM     32  O   UNL A   1      27.042  29.905  23.180  1.00  0.00    -0.207 OA
ATOM     33  O   UNL A   1      27.918  30.082  20.826  1.00  0.00    -0.207 OA
BRANCH  31  34
ATOM     34  N   UNL A   1      28.937  31.558  22.655  1.00  0.00    -0.204 NA
BRANCH  34  35
ATOM     35  C   UNL A   1      28.331  32.741  22.014  1.00  0.00     0.002 C 
ATOM     36  H   UNL A   1      28.986  33.107  21.250  1.00  0.00     0.041 H 
ATOM     37  H   UNL A   1      28.175  33.504  22.746  1.00  0.00     0.041 H 
ATOM     38  H   UNL A   1      27.393  32.467  21.577  1.00  0.00     0.041 H 
ENDBRANCH  34  35
BRANCH  34  39
ATOM     39  C   UNL A   1      29.197  31.777  24.096  1.00  0.00     0.002 C 
ATOM     40  H   UNL A   1      30.106  32.329  24.215  1.00  0.00     0.041 H 
ATOM     41  H   UNL A   1      29.287  30.831  24.590  1.00  0.00     0.041 H 
ATOM     42  H   UNL A   1      28.386  32.328  24.525  1.00  0.00     0.041 H 
ENDBRANCH  34  39
ENDBRANCH  31  34
ENDBRANCH  22  31
ENDBRANCH  15  21
BRANCH  16  43
ATOM     43  C   UNL A   1      33.100  28.127  25.744  1.00  0.00    -0.001 A 
ATOM     44  C   UNL A   1      31.935  28.434  26.451  1.00  0.00    -0.050 A 
ATOM     45  C   UNL A   1      34.161  29.039  25.792  1.00  0.00    -0.050 A 
ATOM     46  C   UNL A   1      31.899  29.579  27.263  1.00  0.00    -0.026 A 
ATOM     47  H   UNL A   1      31.107  27.823  26.376  1.00  0.00     0.063 H 
ATOM     48  C   UNL A   1      34.140  30.173  26.599  1.00  0.00    -0.026 A 
ATOM     49  H   UNL A   1      34.993  28.864  25.206  1.00  0.00     0.063 H 
ATOM     50  C   UNL A   1      33.006  30.425  27.346  1.00  0.00     0.123 A 
ATOM     51  H   UNL A   1      31.047  29.796  27.805  1.00  0.00     0.065 H 
ATOM     52  H   UNL A   1      34.952  30.809  26.638  1.00  0.00     0.065 H 
ATOM     53  F   UNL A   1      32.946  31.537  28.089  1.00  0.00    -0.207 F 
ENDBRANCH  16  43
ENDBRANCH  11  14
ENDBRANCH   8  11
ENDBRANCH   5   8
ENDBRANCH   1   4
BRANCH   1  54
ATOM     54  C   UNL A   1      33.871  21.208  26.783  1.00  0.00    -0.036 C 
ATOM     55  H   UNL A   1      34.224  20.258  26.437  1.00  0.00     0.028 H 
ATOM     56  H   UNL A   1      33.630  21.246  27.824  1.00  0.00     0.028 H 
BRANCH  54  57
ATOM     57  C   UNL A   1      35.010  22.219  26.599  1.00  0.00    -0.052 C 
ATOM     58  H   UNL A   1      35.652  22.120  27.449  1.00  0.00     0.027 H 
ATOM     59  H   UNL A   1      34.497  23.150  26.478  1.00  0.00     0.027 H 
BRANCH  57  60
ATOM     60  C   UNL A   1      35.919  22.144  25.338  1.00  0.00    -0.052 C 
ATOM     61  H   UNL A   1      35.593  22.934  24.694  1.00  0.00     0.027 H 
ATOM     62  H   UNL A   1      35.791  21.124  25.045  1.00  0.00     0.027 H 
BRANCH  60  63
ATOM     63  C   UNL A   1      37.462  22.256  25.400  1.00  0.00    -0.036 C 
ATOM     64  H   UNL A   1      37.805  22.320  24.389  1.00  0.00     0.028 H 
ATOM     65  H   UNL A   1      37.740  21.395  25.971  1.00  0.00     0.028 H 
BRANCH  63  66
ATOM     66  C   UNL A   1      38.146  23.420  26.176  1.00  0.00     0.018 C 
ATOM     67  H   UNL A   1      37.633  23.550  27.106  1.00  0.00     0.049 H 
ATOM     68  H   UNL A   1      38.088  24.286  25.549  1.00  0.00     0.049 H 
BRANCH  66  69
ATOM     69  N   UNL A   1      39.560  23.195  26.459  1.00  0.00    -0.352 N 
ATOM     70  C   UNL A   1      40.638  24.035  26.662  1.00  0.00     0.251 C 
ATOM     71  H   UNL A   1      39.797  22.241  26.515  1.00  0.00     0.163 HD
ATOM     72  O   UNL A   1      41.749  23.552  26.419  1.00  0.00    -0.269 OA
BRANCH  70  73
ATOM     73  C   UNL A   1      40.608  25.439  27.192  1.00  0.00     0.039 A 
ATOM     74  C   UNL A   1      40.248  25.633  28.542  1.00  0.00    -0.049 A 
ATOM     75  C   UNL A   1      40.757  26.579  26.410  1.00  0.00    -0.049 A 
ATOM     76  C   UNL A   1      40.059  26.919  29.087  1.00  0.00    -0.053 A 
ATOM     77  H   UNL A   1      40.121  24.809  29.150  1.00  0.00     0.063 H 
ATOM     78  C   UNL A   1      40.484  27.867  26.924  1.00  0.00    -0.053 A 
ATOM     79  H   UNL A   1      41.073  26.482  25.433  1.00  0.00     0.063 H 
ATOM     80  C   UNL A   1      40.182  28.054  28.280  1.00  0.00    -0.014 A 
ATOM     81  H   UNL A   1      39.827  27.022  30.088  1.00  0.00     0.063 H 
ATOM     82  H   UNL A   1      40.509  28.683  26.291  1.00  0.00     0.063 H 
BRANCH  80  83
ATOM     83  C   UNL A   1      40.430  29.390  28.928  1.00  0.00     0.031 A 
ATOM     84  C   UNL A   1      39.092  30.202  28.990  1.00  0.00     0.074 A 
ATOM     85  C   UNL A   1      41.694  29.746  29.348  1.00  0.00     0.049 A 
ATOM     86  N   UNL A   1      38.880  31.471  29.175  1.00  0.00    -0.248 NA
ATOM     87  C   UNL A   1      37.790  29.495  28.788  1.00  0.00    -0.034 C 
ATOM     88  C   UNL A   1      42.883  28.864  29.311  1.00  0.00    -0.036 A 
ATOM     89  N   UNL A   1      42.253  30.904  29.892  1.00  0.00    -0.354 N 
ATOM     90  C   UNL A   1      37.482  31.658  29.332  1.00  0.00     0.074 A 
ATOM     91  C   UNL A   1      36.861  30.426  28.986  1.00  0.00    -0.034 C 
ATOM     92  H   UNL A   1      37.644  28.502  28.548  1.00  0.00     0.065 H 
ATOM     93  C   UNL A   1      44.002  29.523  29.707  1.00  0.00    -0.036 A 
ATOM     94  H   UNL A   1      42.864  27.874  29.021  1.00  0.00     0.065 H 
ATOM     95  C   UNL A   1      43.676  30.892  30.068  1.00  0.00     0.049 A 
ATOM     96  H   UNL A   1      41.703  31.683  30.138  1.00  0.00     0.167 HD
ATOM     97  C   UNL A   1      36.927  32.777  29.881  1.00  0.00     0.037 A 
ATOM     98  H   UNL A   1      35.843  30.277  28.901  1.00  0.00     0.065 H 
ATOM     99  H   UNL A   1      44.947  29.111  29.744  1.00  0.00     0.065 H 
ATOM    100  C   UNL A   1      44.529  31.909  30.450  1.00  0.00     0.037 A 
ATOM    101  C   UNL A   1      37.930  33.759  30.069  1.00  0.00     0.049 A 
ATOM    102  C   UNL A   1      43.643  32.979  30.909  1.00  0.00     0.074 A 
ATOM    103  C   UNL A   1      38.663  34.498  29.180  1.00  0.00    -0.036 A 
ATOM    104  N   UNL A   1      38.528  33.794  31.301  1.00  0.00    -0.354 N 
ATOM    105  N   UNL A   1      43.037  32.974  32.057  1.00  0.00    -0.248 NA
ATOM    106  C   UNL A   1      43.410  34.137  30.038  1.00  0.00    -0.034 C 
ATOM    107  C   UNL A   1      39.935  34.532  29.779  1.00  0.00    -0.036 A 
ATOM    108  H   UNL A   1      38.358  34.924  28.291  1.00  0.00     0.065 H 
ATOM    109  C   UNL A   1      39.854  34.047  31.090  1.00  0.00     0.049 A 
ATOM    110  H   UNL A   1      38.088  33.659  32.171  1.00  0.00     0.167 HD
ATOM    111  C   UNL A   1      42.087  33.941  31.867  1.00  0.00     0.074 A 
ATOM    112  C   UNL A   1      42.578  34.815  30.824  1.00  0.00    -0.034 C 
ATOM    113  H   UNL A   1      43.780  34.358  29.100  1.00  0.00     0.065 H 
ATOM    114  H   UNL A   1      40.798  34.864  29.322  1.00  0.00     0.065 H 
ATOM    115  C   UNL A   1      40.791  33.617  32.093  1.00  0.00     0.037 A 
ATOM    116  H   UNL A   1      42.324  35.809  30.709  1.00  0.00     0.065 H 
BRANCH  97 117
ATOM    117  C   UNL A   1      35.595  33.026  30.539  1.00  0.00     0.064 A 
ATOM    118  C   UNL A   1      34.737  33.989  29.945  1.00  0.00     0.173 A 
ATOM    119  C   UNL A   1      35.329  32.708  31.878  1.00  0.00     0.173 A 
ATOM    120  F   UNL A   1      34.867  34.323  28.652  1.00  0.00    -0.203 F 
ATOM    121  C   UNL A   1      33.812  34.714  30.693  1.00  0.00     0.198 A 
ATOM    122  C   UNL A   1      34.357  33.398  32.608  1.00  0.00     0.198 A 
ATOM    123  F   UNL A   1      36.066  31.810  32.541  1.00  0.00    -0.203 F 
ATOM    124  F   UNL A   1      33.155  35.740  30.130  1.00  0.00    -0.200 F 
ATOM    125  C   UNL A   1      33.640  34.434  32.032  1.00  0.00     0.200 A 
ATOM    126  F   UNL A   1      34.182  33.113  33.905  1.00  0.00    -0.200 F 
ATOM    127  F   UNL A   1      32.817  35.184  32.777  1.00  0.00    -0.200 F 
ENDBRANCH  97 117
BRANCH 100 128
ATOM    128  C   UNL A   1      46.015  32.273  30.547  1.00  0.00     0.064 A 
ATOM    129  C   UNL A   1      46.857  32.622  29.489  1.00  0.00     0.173 A 
ATOM    130  C   UNL A   1      46.649  32.379  31.832  1.00  0.00     0.173 A 
ATOM    131  F   UNL A   1      46.466  32.457  28.221  1.00  0.00    -0.203 F 
ATOM    132  C   UNL A   1      48.157  33.146  29.704  1.00  0.00     0.198 A 
ATOM    133  C   UNL A   1      47.901  32.957  32.050  1.00  0.00     0.198 A 
ATOM    134  F   UNL A   1      46.076  31.916  32.950  1.00  0.00    -0.203 F 
ATOM    135  F   UNL A   1      48.929  33.464  28.655  1.00  0.00    -0.200 F 
ATOM    136  C   UNL A   1      48.653  33.361  30.981  1.00  0.00     0.200 A 
ATOM    137  F   UNL A   1      48.347  33.129  33.304  1.00  0.00    -0.200 F 
ATOM    138  F   UNL A   1      49.849  33.935  31.179  1.00  0.00    -0.200 F 
ENDBRANCH 100 128
BRANCH 115 139
ATOM    139  C   UNL A   1      40.602  32.505  33.108  1.00  0.00     0.064 A 
ATOM    140  C   UNL A   1      40.993  32.714  34.442  1.00  0.00     0.173 A 
ATOM    141  C   UNL A   1      40.178  31.203  32.790  1.00  0.00     0.173 A 
ATOM    142  F   UNL A   1      41.390  33.933  34.837  1.00  0.00    -0.203 F 
ATOM    143  C   UNL A   1      40.985  31.682  35.384  1.00  0.00     0.198 A 
ATOM    144  C   UNL A   1      40.167  30.168  33.731  1.00  0.00     0.198 A 
ATOM    145  F   UNL A   1      39.767  30.902  31.560  1.00  0.00    -0.203 F 
ATOM    146  F   UNL A   1      41.372  31.926  36.644  1.00  0.00    -0.200 F 
ATOM    147  C   UNL A   1      40.577  30.407  35.027  1.00  0.00     0.200 A 
ATOM    148  F   UNL A   1      39.750  28.942  33.376  1.00  0.00    -0.200 F 
ATOM    149  F   UNL A   1      40.561  29.420  35.934  1.00  0.00    -0.200 F 
ENDBRANCH 115 139
ENDBRANCH  80  83
ENDBRANCH  70  73
ENDBRANCH  66  69
ENDBRANCH  63  66
ENDBRANCH  60  63
ENDBRANCH  57  60
ENDBRANCH  54  57
ENDBRANCH   1  54
TORSDOF 21
ENDMDL
MODEL 3
REMARK VINA RESULT:     -11.8      3.481      8.500
REMARK SMILES CN(C)S(=O)(=O)c1ccc(-n2c(CCC(=O)NCCCCCCNC(=O)c3ccc(-c4c5nc(c(-c6c(F)c(F)c(F)c(F)c6F)c6ccc([nH]6)c(-c6c(F)c(F)c(F)c(F)c6F)c6nc(c(-c7c(F)c(F)c(F)c(F)c7F)c7ccc4[nH]7)C=C6)C=C5)cc3)ccc2-c2ccc(F)cc2)cc1
REMARK SMILES IDX 18 1 17 4 15 5 16 6 14 8 13 11 12 14 11 15 92 16 90 17 91 18
REMARK SMILES IDX 10 21 7 22 8 23 101 24 9 25 100 27 4 31 5 32 6 33 2 34 1 35
REMARK SMILES IDX 3 39 93 43 94 44 99 45 95 46 98 48 96 50 97 53 19 54 20 57
REMARK SMILES IDX 21 60 22 63 23 66 24 69 25 70 26 72 27 73 28 74 89 75 29 76
REMARK SMILES IDX 88 78 30 80 31 83 32 84 82 85 33 86 87 87 81 88 83 89 34 90
REMARK SMILES IDX 86 91 80 93 79 95 35 97 67 100 47 101 66 102 48 103 51 104
REMARK SMILES IDX 65 105 84 106 49 107 50 109 64 111 85 112 52 115 36 117
REMARK SMILES IDX 37 118 45 119 38 120 39 121 43 122 46 123 40 124 41 125
REMARK SMILES IDX 44 126 42 127 68 128 69 129 77 130 70 131 71 132 75 133
REMARK SMILES IDX 78 134 72 135 73 136 76 137 74 138 53 139 54 140 62 141
REMARK SMILES IDX 55 142 56 143 60 144 63 145 57 146 58 147 61 148 59 149
REMARK H PARENT 18 2 18 3 17 7 14 9 14 10 13 12 13 13 90 19 91 20 8 26 101 28
REMARK H PARENT 9 29 100 30 1 36 1 37 1 38 3 40 3 41 3 42 94 47 99 49 95 51
REMARK H PARENT 98 52 19 55 19 56 20 58 20 59 21 61 21 62 22 64 22 65 23 67
REMARK H PARENT 23 68 24 71 28 77 89 79 29 81 88 82 87 92 81 94 83 96 86 98
REMARK H PARENT 80 99 48 108 51 110 84 113 49 114 85 116
REMARK Flexibility Score: inf
ROOT
ATOM      1  C   UNL A   1      34.786  21.302  24.867  1.00  0.00     0.017 C 
ATOM      2  H   UNL A   1      35.241  20.536  25.460  1.00  0.00     0.049 H 
ATOM      3  H   UNL A   1      34.208  21.975  25.465  1.00  0.00     0.049 H 
ENDROOT
BRANCH   1   4
ATOM      4  N   UNL A   1      33.881  20.676  23.912  1.00  0.00    -0.356 N 
ATOM      5  C   UNL A   1      32.588  20.968  23.589  1.00  0.00     0.220 C 
ATOM      6  O   UNL A   1      32.058  20.313  22.687  1.00  0.00    -0.275 OA
ATOM      7  H   UNL A   1      34.267  19.917  23.419  1.00  0.00     0.163 HD
BRANCH   5   8
ATOM      8  C   UNL A   1      31.798  22.041  24.317  1.00  0.00     0.032 C 
ATOM      9  H   UNL A   1      30.778  21.724  24.360  1.00  0.00     0.037 H 
ATOM     10  H   UNL A   1      32.266  22.143  25.274  1.00  0.00     0.037 H 
BRANCH   8  11
ATOM     11  C   UNL A   1      31.830  23.448  23.690  1.00  0.00    -0.003 C 
ATOM     12  H   UNL A   1      32.389  23.395  22.779  1.00  0.00     0.034 H 
ATOM     13  H   UNL A   1      30.811  23.736  23.540  1.00  0.00     0.034 H 
BRANCH  11  14
ATOM     14  C   UNL A   1      32.453  24.512  24.564  1.00  0.00     0.024 A 
ATOM     15  N   UNL A   1      32.233  25.911  24.549  1.00  0.00    -0.314 N 
ATOM     16  C   UNL A   1      33.084  26.464  25.557  1.00  0.00     0.053 A 
ATOM     17  C   UNL A   1      33.426  24.237  25.512  1.00  0.00    -0.040 A 
ATOM     18  C   UNL A   1      33.818  25.435  26.119  1.00  0.00    -0.036 A 
ATOM     19  H   UNL A   1      33.798  23.301  25.735  1.00  0.00     0.064 H 
ATOM     20  H   UNL A   1      34.532  25.534  26.856  1.00  0.00     0.065 H 
BRANCH  15  21
ATOM     21  C   UNL A   1      31.207  26.657  23.826  1.00  0.00     0.046 A 
ATOM     22  C   UNL A   1      29.354  28.571  22.885  1.00  0.00     0.082 A 
ATOM     23  C   UNL A   1      30.668  28.594  22.441  1.00  0.00    -0.040 A 
ATOM     24  C   UNL A   1      28.933  27.559  23.731  1.00  0.00    -0.040 A 
ATOM     25  C   UNL A   1      31.549  27.588  22.838  1.00  0.00    -0.037 A 
ATOM     26  H   UNL A   1      30.993  29.353  21.821  1.00  0.00     0.064 H 
ATOM     27  C   UNL A   1      29.859  26.616  24.189  1.00  0.00    -0.037 A 
ATOM     28  H   UNL A   1      27.945  27.500  24.020  1.00  0.00     0.064 H 
ATOM     29  H   UNL A   1      32.477  27.527  22.391  1.00  0.00     0.065 H 
ATOM     30  H   UNL A   1      29.536  25.864  24.817  1.00  0.00     0.065 H 
BRANCH  22  31
ATOM     31  S   UNL A   1      28.226  29.836  22.380  1.00  0.00     0.242 S 
ATOM     32  O   UNL A   1      27.050  29.744  23.215  1.00  0.00    -0.207 OA
ATOM     33  O   UNL A   1      28.117  29.779  20.934  1.00  0.00    -0.207 OA
BRANCH  31  34
ATOM     34  N   UNL A   1      29.077  31.262  22.789  1.00  0.00    -0.204 NA
BRANCH  34  35
ATOM     35  C   UNL A   1      28.641  32.440  22.015  1.00  0.00     0.002 C 
ATOM     36  H   UNL A   1      29.126  33.316  22.393  1.00  0.00     0.041 H 
ATOM     37  H   UNL A   1      27.581  32.553  22.104  1.00  0.00     0.041 H 
ATOM     38  H   UNL A   1      28.900  32.306  20.985  1.00  0.00     0.041 H 
ENDBRANCH  34  35
BRANCH  34  39
ATOM     39  C   UNL A   1      29.183  31.553  24.237  1.00  0.00     0.002 C 
ATOM     40  H   UNL A   1      30.187  31.840  24.471  1.00  0.00     0.041 H 
ATOM     41  H   UNL A   1      28.922  30.679  24.796  1.00  0.00     0.041 H 
ATOM     42  H   UNL A   1      28.516  32.351  24.489  1.00  0.00     0.041 H 
ENDBRANCH  34  39
ENDBRANCH  31  34
ENDBRANCH  22  31
ENDBRANCH  15  21
BRANCH  16  43
ATOM     43  C   UNL A   1      33.005  27.834  26.096  1.00  0.00    -0.001 A 
ATOM     44  C   UNL A   1      33.998  28.794  25.888  1.00  0.00    -0.050 A 
ATOM     45  C   UNL A   1      31.834  28.226  26.754  1.00  0.00    -0.050 A 
ATOM     46  C   UNL A   1      33.755  30.130  26.244  1.00  0.00    -0.026 A 
ATOM     47  H   UNL A   1      34.904  28.522  25.475  1.00  0.00     0.063 H 
ATOM     48  C   UNL A   1      31.578  29.548  27.106  1.00  0.00    -0.026 A 
ATOM     49  H   UNL A   1      31.132  27.507  26.989  1.00  0.00     0.063 H 
ATOM     50  C   UNL A   1      32.542  30.498  26.830  1.00  0.00     0.123 A 
ATOM     51  H   UNL A   1      34.478  30.846  26.070  1.00  0.00     0.065 H 
ATOM     52  H   UNL A   1      30.691  29.812  27.562  1.00  0.00     0.065 H 
ATOM     53  F   UNL A   1      32.338  31.767  27.206  1.00  0.00    -0.207 F 
ENDBRANCH  16  43
ENDBRANCH  11  14
ENDBRANCH   8  11
ENDBRANCH   5   8
ENDBRANCH   1   4
BRANCH   1  54
ATOM     54  C   UNL A   1      35.888  22.117  24.191  1.00  0.00    -0.036 C 
ATOM     55  H   UNL A   1      35.415  22.843  23.563  1.00  0.00     0.028 H 
ATOM     56  H   UNL A   1      36.489  21.399  23.673  1.00  0.00     0.028 H 
BRANCH  54  57
ATOM     57  C   UNL A   1      36.863  22.864  25.111  1.00  0.00    -0.052 C 
ATOM     58  H   UNL A   1      36.272  23.491  25.745  1.00  0.00     0.027 H 
ATOM     59  H   UNL A   1      37.527  23.348  24.425  1.00  0.00     0.027 H 
BRANCH  57  60
ATOM     60  C   UNL A   1      37.824  22.065  26.037  1.00  0.00    -0.052 C 
ATOM     61  H   UNL A   1      37.200  21.418  26.617  1.00  0.00     0.027 H 
ATOM     62  H   UNL A   1      38.367  22.855  26.512  1.00  0.00     0.027 H 
BRANCH  60  63
ATOM     63  C   UNL A   1      38.974  21.179  25.501  1.00  0.00    -0.036 C 
ATOM     64  H   UNL A   1      39.824  21.371  26.122  1.00  0.00     0.028 H 
ATOM     65  H   UNL A   1      39.031  21.462  24.470  1.00  0.00     0.028 H 
BRANCH  63  66
ATOM     66  C   UNL A   1      38.819  19.632  25.425  1.00  0.00     0.018 C 
ATOM     67  H   UNL A   1      38.614  19.364  24.410  1.00  0.00     0.049 H 
ATOM     68  H   UNL A   1      38.022  19.368  26.089  1.00  0.00     0.049 H 
BRANCH  66  69
ATOM     69  N   UNL A   1      39.999  18.895  25.865  1.00  0.00    -0.352 N 
ATOM     70  C   UNL A   1      41.313  19.251  26.105  1.00  0.00     0.251 C 
ATOM     71  H   UNL A   1      39.823  17.939  26.024  1.00  0.00     0.163 HD
ATOM     72  O   UNL A   1      42.142  18.340  26.015  1.00  0.00    -0.269 OA
BRANCH  70  73
ATOM     73  C   UNL A   1      41.828  20.602  26.510  1.00  0.00     0.039 A 
ATOM     74  C   UNL A   1      42.503  21.373  25.540  1.00  0.00    -0.049 A 
ATOM     75  C   UNL A   1      41.828  21.087  27.812  1.00  0.00    -0.049 A 
ATOM     76  C   UNL A   1      43.139  22.588  25.864  1.00  0.00    -0.053 A 
ATOM     77  H   UNL A   1      42.530  21.039  24.564  1.00  0.00     0.063 H 
ATOM     78  C   UNL A   1      42.537  22.258  28.164  1.00  0.00    -0.053 A 
ATOM     79  H   UNL A   1      41.298  20.580  28.539  1.00  0.00     0.063 H 
ATOM     80  C   UNL A   1      43.157  23.048  27.185  1.00  0.00    -0.014 A 
ATOM     81  H   UNL A   1      43.596  23.142  25.122  1.00  0.00     0.063 H 
ATOM     82  H   UNL A   1      42.598  22.537  29.156  1.00  0.00     0.063 H 
BRANCH  80  83
ATOM     83  C   UNL A   1      43.417  24.507  27.450  1.00  0.00     0.031 A 
ATOM     84  C   UNL A   1      42.056  25.275  27.550  1.00  0.00     0.074 A 
ATOM     85  C   UNL A   1      44.707  24.985  27.553  1.00  0.00     0.049 A 
ATOM     86  N   UNL A   1      41.794  26.546  27.468  1.00  0.00    -0.248 NA
ATOM     87  C   UNL A   1      40.788  24.507  27.745  1.00  0.00    -0.034 C 
ATOM     88  C   UNL A   1      45.930  24.151  27.519  1.00  0.00    -0.036 A 
ATOM     89  N   UNL A   1      45.268  26.254  27.707  1.00  0.00    -0.354 N 
ATOM     90  C   UNL A   1      40.430  26.729  27.814  1.00  0.00     0.074 A 
ATOM     91  C   UNL A   1      39.844  25.434  27.877  1.00  0.00    -0.034 C 
ATOM     92  H   UNL A   1      40.671  23.482  27.773  1.00  0.00     0.065 H 
ATOM     93  C   UNL A   1      47.052  24.914  27.552  1.00  0.00    -0.036 A 
ATOM     94  H   UNL A   1      45.929  23.120  27.476  1.00  0.00     0.065 H 
ATOM     95  C   UNL A   1      46.699  26.320  27.635  1.00  0.00     0.049 A 
ATOM     96  H   UNL A   1      44.715  27.055  27.856  1.00  0.00     0.167 HD
ATOM     97  C   UNL A   1      39.898  27.933  28.174  1.00  0.00     0.037 A 
ATOM     98  H   UNL A   1      38.837  25.243  28.005  1.00  0.00     0.065 H 
ATOM     99  H   UNL A   1      48.016  24.547  27.522  1.00  0.00     0.065 H 
ATOM    100  C   UNL A   1      47.533  27.421  27.616  1.00  0.00     0.037 A 
ATOM    101  C   UNL A   1      40.852  28.957  27.953  1.00  0.00     0.049 A 
ATOM    102  C   UNL A   1      46.665  28.548  27.958  1.00  0.00     0.074 A 
ATOM    103  C   UNL A   1      41.383  29.477  26.803  1.00  0.00    -0.036 A 
ATOM    104  N   UNL A   1      41.637  29.302  29.021  1.00  0.00    -0.354 N 
ATOM    105  N   UNL A   1      46.253  28.804  29.162  1.00  0.00    -0.248 NA
ATOM    106  C   UNL A   1      46.219  29.455  26.894  1.00  0.00    -0.034 C 
ATOM    107  C   UNL A   1      42.729  29.687  27.151  1.00  0.00    -0.036 A 
ATOM    108  H   UNL A   1      40.912  29.670  25.906  1.00  0.00     0.065 H 
ATOM    109  C   UNL A   1      42.892  29.531  28.532  1.00  0.00     0.049 A 
ATOM    110  H   UNL A   1      41.351  29.370  29.961  1.00  0.00     0.167 HD
ATOM    111  C   UNL A   1      45.222  29.672  28.917  1.00  0.00     0.074 A 
ATOM    112  C   UNL A   1      45.481  30.282  27.632  1.00  0.00    -0.034 C 
ATOM    113  H   UNL A   1      46.418  29.453  25.882  1.00  0.00     0.065 H 
ATOM    114  H   UNL A   1      43.484  29.922  26.488  1.00  0.00     0.065 H 
ATOM    115  C   UNL A   1      44.004  29.379  29.432  1.00  0.00     0.037 A 
ATOM    116  H   UNL A   1      45.147  31.211  27.333  1.00  0.00     0.065 H 
BRANCH  97 117
ATOM    117  C   UNL A   1      38.676  28.300  28.974  1.00  0.00     0.064 A 
ATOM    118  C   UNL A   1      37.872  29.368  28.496  1.00  0.00     0.173 A 
ATOM    119  C   UNL A   1      38.515  27.966  30.326  1.00  0.00     0.173 A 
ATOM    120  F   UNL A   1      37.904  29.729  27.204  1.00  0.00    -0.203 F 
ATOM    121  C   UNL A   1      37.113  30.161  29.353  1.00  0.00     0.198 A 
ATOM    122  C   UNL A   1      37.704  28.730  31.170  1.00  0.00     0.198 A 
ATOM    123  F   UNL A   1      39.213  26.973  30.887  1.00  0.00    -0.203 F 
ATOM    124  F   UNL A   1      36.517  31.269  28.886  1.00  0.00    -0.200 F 
ATOM    125  C   UNL A   1      37.049  29.855  30.697  1.00  0.00     0.200 A 
ATOM    126  F   UNL A   1      37.632  28.421  32.472  1.00  0.00    -0.200 F 
ATOM    127  F   UNL A   1      36.393  30.662  31.541  1.00  0.00    -0.200 F 
ENDBRANCH  97 117
BRANCH 100 128
ATOM    128  C   UNL A   1      48.989  27.836  27.369  1.00  0.00     0.064 A 
ATOM    129  C   UNL A   1      49.585  28.081  26.130  1.00  0.00     0.173 A 
ATOM    130  C   UNL A   1      49.859  28.110  28.479  1.00  0.00     0.173 A 
ATOM    131  F   UNL A   1      48.959  27.757  24.994  1.00  0.00    -0.203 F 
ATOM    132  C   UNL A   1      50.873  28.663  26.019  1.00  0.00     0.198 A 
ATOM    133  C   UNL A   1      51.097  28.745  28.374  1.00  0.00     0.198 A 
ATOM    134  F   UNL A   1      49.544  27.766  29.734  1.00  0.00    -0.203 F 
ATOM    135  F   UNL A   1      51.404  28.877  24.806  1.00  0.00    -0.200 F 
ATOM    136  C   UNL A   1      51.601  29.041  27.137  1.00  0.00     0.200 A 
ATOM    137  F   UNL A   1      51.775  29.076  29.485  1.00  0.00    -0.200 F 
ATOM    138  F   UNL A   1      52.781  29.667  27.023  1.00  0.00    -0.200 F 
ENDBRANCH 100 128
BRANCH 115 139
ATOM    139  C   UNL A   1      44.054  28.540  30.696  1.00  0.00     0.064 A 
ATOM    140  C   UNL A   1      44.508  29.121  31.893  1.00  0.00     0.173 A 
ATOM    141  C   UNL A   1      43.801  27.158  30.741  1.00  0.00     0.173 A 
ATOM    142  F   UNL A   1      44.752  30.439  31.943  1.00  0.00    -0.203 F 
ATOM    143  C   UNL A   1      44.720  28.362  33.047  1.00  0.00     0.198 A 
ATOM    144  C   UNL A   1      44.009  26.397  31.896  1.00  0.00     0.198 A 
ATOM    145  F   UNL A   1      43.347  26.513  29.669  1.00  0.00    -0.203 F 
ATOM    146  F   UNL A   1      45.160  28.958  34.164  1.00  0.00    -0.200 F 
ATOM    147  C   UNL A   1      44.475  26.999  33.048  1.00  0.00     0.200 A 
ATOM    148  F   UNL A   1      43.749  25.079  31.888  1.00  0.00    -0.200 F 
ATOM    149  F   UNL A   1      44.670  26.274  34.158  1.00  0.00    -0.200 F 
ENDBRANCH 115 139
ENDBRANCH  80  83
ENDBRANCH  70  73
ENDBRANCH  66  69
ENDBRANCH  63  66
ENDBRANCH  60  63
ENDBRANCH  57  60
ENDBRANCH  54  57
ENDBRANCH   1  54
TORSDOF 21
ENDMDL
MODEL 4
REMARK VINA RESULT:     -11.7      5.007      9.889
REMARK SMILES CN(C)S(=O)(=O)c1ccc(-n2c(CCC(=O)NCCCCCCNC(=O)c3ccc(-c4c5nc(c(-c6c(F)c(F)c(F)c(F)c6F)c6ccc([nH]6)c(-c6c(F)c(F)c(F)c(F)c6F)c6nc(c(-c7c(F)c(F)c(F)c(F)c7F)c7ccc4[nH]7)C=C6)C=C5)cc3)ccc2-c2ccc(F)cc2)cc1
REMARK SMILES IDX 18 1 17 4 15 5 16 6 14 8 13 11 12 14 11 15 92 16 90 17 91 18
REMARK SMILES IDX 10 21 7 22 8 23 101 24 9 25 100 27 4 31 5 32 6 33 2 34 1 35
REMARK SMILES IDX 3 39 93 43 94 44 99 45 95 46 98 48 96 50 97 53 19 54 20 57
REMARK SMILES IDX 21 60 22 63 23 66 24 69 25 70 26 72 27 73 28 74 89 75 29 76
REMARK SMILES IDX 88 78 30 80 31 83 32 84 82 85 33 86 87 87 81 88 83 89 34 90
REMARK SMILES IDX 86 91 80 93 79 95 35 97 67 100 47 101 66 102 48 103 51 104
REMARK SMILES IDX 65 105 84 106 49 107 50 109 64 111 85 112 52 115 36 117
REMARK SMILES IDX 37 118 45 119 38 120 39 121 43 122 46 123 40 124 41 125
REMARK SMILES IDX 44 126 42 127 68 128 69 129 77 130 70 131 71 132 75 133
REMARK SMILES IDX 78 134 72 135 73 136 76 137 74 138 53 139 54 140 62 141
REMARK SMILES IDX 55 142 56 143 60 144 63 145 57 146 58 147 61 148 59 149
REMARK H PARENT 18 2 18 3 17 7 14 9 14 10 13 12 13 13 90 19 91 20 8 26 101 28
REMARK H PARENT 9 29 100 30 1 36 1 37 1 38 3 40 3 41 3 42 94 47 99 49 95 51
REMARK H PARENT 98 52 19 55 19 56 20 58 20 59 21 61 21 62 22 64 22 65 23 67
REMARK H PARENT 23 68 24 71 28 77 89 79 29 81 88 82 87 92 81 94 83 96 86 98
REMARK H PARENT 80 99 48 108 51 110 84 113 49 114 85 116
REMARK Flexibility Score: inf
ROOT
ATOM      1  C   UNL A   1      33.207  20.461  25.111  1.00  0.00     0.017 C 
ATOM      2  H   UNL A   1      32.787  19.836  25.872  1.00  0.00     0.049 H 
ATOM      3  H   UNL A   1      33.047  21.498  25.318  1.00  0.00     0.049 H 
ENDROOT
BRANCH   1   4
ATOM      4  N   UNL A   1      32.550  20.158  23.847  1.00  0.00    -0.356 N 
ATOM      5  C   UNL A   1      32.267  20.957  22.778  1.00  0.00     0.220 C 
ATOM      6  O   UNL A   1      31.750  20.433  21.787  1.00  0.00    -0.275 OA
ATOM      7  H   UNL A   1      32.263  19.222  23.747  1.00  0.00     0.163 HD
BRANCH   5   8
ATOM      8  C   UNL A   1      32.544  22.451  22.793  1.00  0.00     0.032 C 
ATOM      9  H   UNL A   1      33.531  22.596  23.178  1.00  0.00     0.037 H 
ATOM     10  H   UNL A   1      32.414  22.777  21.782  1.00  0.00     0.037 H 
BRANCH   8  11
ATOM     11  C   UNL A   1      31.579  23.310  23.632  1.00  0.00    -0.003 C 
ATOM     12  H   UNL A   1      30.901  23.799  22.964  1.00  0.00     0.034 H 
ATOM     13  H   UNL A   1      31.091  22.643  24.311  1.00  0.00     0.034 H 
BRANCH  11  14
ATOM     14  C   UNL A   1      32.252  24.367  24.478  1.00  0.00     0.024 A 
ATOM     15  N   UNL A   1      32.057  25.769  24.464  1.00  0.00    -0.314 N 
ATOM     16  C   UNL A   1      32.954  26.311  25.439  1.00  0.00     0.053 A 
ATOM     17  C   UNL A   1      33.253  24.077  25.392  1.00  0.00    -0.040 A 
ATOM     18  C   UNL A   1      33.688  25.271  25.979  1.00  0.00    -0.036 A 
ATOM     19  H   UNL A   1      33.617  23.136  25.606  1.00  0.00     0.064 H 
ATOM     20  H   UNL A   1      34.430  25.360  26.690  1.00  0.00     0.065 H 
BRANCH  15  21
ATOM     21  C   UNL A   1      31.020  26.531  23.776  1.00  0.00     0.046 A 
ATOM     22  C   UNL A   1      29.153  28.466  22.905  1.00  0.00     0.082 A 
ATOM     23  C   UNL A   1      30.460  28.494  22.437  1.00  0.00    -0.040 A 
ATOM     24  C   UNL A   1      28.746  27.438  23.740  1.00  0.00    -0.040 A 
ATOM     25  C   UNL A   1      31.345  27.479  22.799  1.00  0.00    -0.037 A 
ATOM     26  H   UNL A   1      30.774  29.264  21.825  1.00  0.00     0.064 H 
ATOM     27  C   UNL A   1      29.679  26.486  24.162  1.00  0.00    -0.037 A 
ATOM     28  H   UNL A   1      27.764  27.377  24.047  1.00  0.00     0.064 H 
ATOM     29  H   UNL A   1      32.265  27.424  22.333  1.00  0.00     0.065 H 
ATOM     30  H   UNL A   1      29.365  25.723  24.782  1.00  0.00     0.065 H 
BRANCH  22  31
ATOM     31  S   UNL A   1      28.019  29.742  22.445  1.00  0.00     0.242 S 
ATOM     32  O   UNL A   1      26.702  29.350  22.891  1.00  0.00    -0.207 OA
ATOM     33  O   UNL A   1      28.265  30.071  21.054  1.00  0.00    -0.207 OA
BRANCH  31  34
ATOM     34  N   UNL A   1      28.551  31.058  23.401  1.00  0.00    -0.204 NA
BRANCH  34  35
ATOM     35  C   UNL A   1      29.839  30.802  24.075  1.00  0.00     0.002 C 
ATOM     36  H   UNL A   1      29.691  30.108  24.875  1.00  0.00     0.041 H 
ATOM     37  H   UNL A   1      30.226  31.720  24.465  1.00  0.00     0.041 H 
ATOM     38  H   UNL A   1      30.534  30.393  23.371  1.00  0.00     0.041 H 
ENDBRANCH  34  35
BRANCH  34  39
ATOM     39  C   UNL A   1      28.521  32.383  22.741  1.00  0.00     0.002 C 
ATOM     40  H   UNL A   1      28.316  32.258  21.698  1.00  0.00     0.041 H 
ATOM     41  H   UNL A   1      29.469  32.864  22.863  1.00  0.00     0.041 H 
ATOM     42  H   UNL A   1      27.755  32.985  23.185  1.00  0.00     0.041 H 
ENDBRANCH  34  39
ENDBRANCH  31  34
ENDBRANCH  22  31
ENDBRANCH  15  21
BRANCH  16  43
ATOM     43  C   UNL A   1      32.918  27.684  25.974  1.00  0.00    -0.001 A 
ATOM     44  C   UNL A   1      31.800  28.226  26.611  1.00  0.00    -0.050 A 
ATOM     45  C   UNL A   1      34.093  28.444  25.941  1.00  0.00    -0.050 A 
ATOM     46  C   UNL A   1      31.912  29.454  27.282  1.00  0.00    -0.026 A 
ATOM     47  H   UNL A   1      30.896  27.726  26.587  1.00  0.00     0.063 H 
ATOM     48  C   UNL A   1      34.219  29.659  26.609  1.00  0.00    -0.026 A 
ATOM     49  H   UNL A   1      34.898  28.091  25.400  1.00  0.00     0.063 H 
ATOM     50  C   UNL A   1      33.123  30.148  27.293  1.00  0.00     0.123 A 
ATOM     51  H   UNL A   1      31.093  29.846  27.774  1.00  0.00     0.065 H 
ATOM     52  H   UNL A   1      35.109  30.181  26.593  1.00  0.00     0.065 H 
ATOM     53  F   UNL A   1      33.208  31.338  27.899  1.00  0.00    -0.207 F 
ENDBRANCH  16  43
ENDBRANCH  11  14
ENDBRANCH   8  11
ENDBRANCH   5   8
ENDBRANCH   1   4
BRANCH   1  54
ATOM     54  C   UNL A   1      34.716  20.227  25.065  1.00  0.00    -0.036 C 
ATOM     55  H   UNL A   1      34.896  19.404  24.404  1.00  0.00     0.028 H 
ATOM     56  H   UNL A   1      35.005  20.058  26.081  1.00  0.00     0.028 H 
BRANCH  54  57
ATOM     57  C   UNL A   1      35.587  21.399  24.592  1.00  0.00    -0.052 C 
ATOM     58  H   UNL A   1      34.926  22.121  24.160  1.00  0.00     0.027 H 
ATOM     59  H   UNL A   1      36.296  20.933  23.940  1.00  0.00     0.027 H 
BRANCH  57  60
ATOM     60  C   UNL A   1      36.482  22.161  25.610  1.00  0.00    -0.052 C 
ATOM     61  H   UNL A   1      37.359  21.563  25.735  1.00  0.00     0.027 H 
ATOM     62  H   UNL A   1      35.805  22.299  26.427  1.00  0.00     0.027 H 
BRANCH  60  63
ATOM     63  C   UNL A   1      36.984  23.608  25.379  1.00  0.00    -0.036 C 
ATOM     64  H   UNL A   1      36.139  24.175  25.046  1.00  0.00     0.028 H 
ATOM     65  H   UNL A   1      37.797  23.471  24.698  1.00  0.00     0.028 H 
BRANCH  63  66
ATOM     66  C   UNL A   1      37.636  24.419  26.536  1.00  0.00     0.018 C 
ATOM     67  H   UNL A   1      36.939  24.469  27.346  1.00  0.00     0.049 H 
ATOM     68  H   UNL A   1      37.877  25.384  26.141  1.00  0.00     0.049 H 
BRANCH  66  69
ATOM     69  N   UNL A   1      38.880  23.843  27.037  1.00  0.00    -0.352 N 
ATOM     70  C   UNL A   1      40.015  24.378  27.617  1.00  0.00     0.251 C 
ATOM     71  H   UNL A   1      38.921  22.864  26.940  1.00  0.00     0.163 HD
ATOM     72  O   UNL A   1      41.045  23.707  27.500  1.00  0.00    -0.269 OA
BRANCH  70  73
ATOM     73  C   UNL A   1      40.117  25.649  28.408  1.00  0.00     0.039 A 
ATOM     74  C   UNL A   1      41.343  26.348  28.389  1.00  0.00    -0.049 A 
ATOM     75  C   UNL A   1      39.143  26.111  29.285  1.00  0.00    -0.049 A 
ATOM     76  C   UNL A   1      41.575  27.471  29.208  1.00  0.00    -0.053 A 
ATOM     77  H   UNL A   1      42.092  26.028  27.755  1.00  0.00     0.063 H 
ATOM     78  C   UNL A   1      39.397  27.182  30.173  1.00  0.00    -0.053 A 
ATOM     79  H   UNL A   1      38.215  25.662  29.290  1.00  0.00     0.063 H 
ATOM     80  C   UNL A   1      40.597  27.905  30.108  1.00  0.00    -0.014 A 
ATOM     81  H   UNL A   1      42.473  27.976  29.143  1.00  0.00     0.063 H 
ATOM     82  H   UNL A   1      38.688  27.436  30.880  1.00  0.00     0.063 H 
BRANCH  80  83
ATOM     83  C   UNL A   1      40.653  29.316  30.627  1.00  0.00     0.031 A 
ATOM     84  C   UNL A   1      39.484  30.153  30.005  1.00  0.00     0.074 A 
ATOM     85  C   UNL A   1      41.644  29.706  31.504  1.00  0.00     0.049 A 
ATOM     86  N   UNL A   1      39.316  31.439  29.922  1.00  0.00    -0.248 NA
ATOM     87  C   UNL A   1      38.339  29.448  29.352  1.00  0.00    -0.034 C 
ATOM     88  C   UNL A   1      42.661  28.807  32.093  1.00  0.00    -0.036 A 
ATOM     89  N   UNL A   1      42.009  30.921  32.087  1.00  0.00    -0.354 N 
ATOM     90  C   UNL A   1      38.003  31.673  29.436  1.00  0.00     0.074 A 
ATOM     91  C   UNL A   1      37.491  30.415  29.012  1.00  0.00    -0.034 C 
ATOM     92  H   UNL A   1      38.230  28.434  29.198  1.00  0.00     0.065 H 
ATOM     93  C   UNL A   1      43.555  29.495  32.847  1.00  0.00    -0.036 A 
ATOM     94  H   UNL A   1      42.688  27.785  31.948  1.00  0.00     0.065 H 
ATOM     95  C   UNL A   1      43.218  30.908  32.859  1.00  0.00     0.049 A 
ATOM     96  H   UNL A   1      41.471  31.738  31.973  1.00  0.00     0.167 HD
ATOM     97  C   UNL A   1      37.358  32.870  29.548  1.00  0.00     0.037 A 
ATOM     98  H   UNL A   1      36.596  30.274  28.516  1.00  0.00     0.065 H 
ATOM     99  H   UNL A   1      44.360  29.076  33.339  1.00  0.00     0.065 H 
ATOM    100  C   UNL A   1      43.906  31.955  33.441  1.00  0.00     0.037 A 
ATOM    101  C   UNL A   1      38.262  33.851  30.027  1.00  0.00     0.049 A 
ATOM    102  C   UNL A   1      42.998  33.097  33.337  1.00  0.00     0.074 A 
ATOM    103  C   UNL A   1      39.359  34.437  29.456  1.00  0.00    -0.036 A 
ATOM    104  N   UNL A   1      38.282  34.054  31.382  1.00  0.00    -0.354 N 
ATOM    105  N   UNL A   1      41.964  33.271  34.102  1.00  0.00    -0.248 NA
ATOM    106  C   UNL A   1      43.249  34.119  32.314  1.00  0.00    -0.034 C 
ATOM    107  C   UNL A   1      40.255  34.535  30.536  1.00  0.00    -0.036 A 
ATOM    108  H   UNL A   1      39.495  34.735  28.478  1.00  0.00     0.065 H 
ATOM    109  C   UNL A   1      39.588  34.250  31.733  1.00  0.00     0.049 A 
ATOM    110  H   UNL A   1      37.505  34.057  31.986  1.00  0.00     0.167 HD
ATOM    111  C   UNL A   1      41.265  34.217  33.402  1.00  0.00     0.074 A 
ATOM    112  C   UNL A   1      42.219  34.920  32.574  1.00  0.00    -0.034 C 
ATOM    113  H   UNL A   1      43.998  34.193  31.608  1.00  0.00     0.065 H 
ATOM    114  H   UNL A   1      41.254  34.781  30.458  1.00  0.00     0.065 H 
ATOM    115  C   UNL A   1      39.974  33.953  33.086  1.00  0.00     0.037 A 
ATOM    116  H   UNL A   1      42.118  35.891  32.237  1.00  0.00     0.065 H 
BRANCH  97 117
ATOM    117  C   UNL A   1      35.897  33.238  29.532  1.00  0.00     0.064 A 
ATOM    118  C   UNL A   1      35.371  33.790  28.334  1.00  0.00     0.173 A 
ATOM    119  C   UNL A   1      35.151  33.468  30.695  1.00  0.00     0.173 A 
ATOM    120  F   UNL A   1      35.976  33.579  27.154  1.00  0.00    -0.203 F 
ATOM    121  C   UNL A   1      34.288  34.665  28.338  1.00  0.00     0.198 A 
ATOM    122  C   UNL A   1      34.027  34.300  30.682  1.00  0.00     0.198 A 
ATOM    123  F   UNL A   1      35.543  32.992  31.882  1.00  0.00    -0.203 F 
ATOM    124  F   UNL A   1      33.941  35.305  27.211  1.00  0.00    -0.200 F 
ATOM    125  C   UNL A   1      33.630  34.939  29.520  1.00  0.00     0.200 A 
ATOM    126  F   UNL A   1      33.382  34.552  31.830  1.00  0.00    -0.200 F 
ATOM    127  F   UNL A   1      32.644  35.845  29.548  1.00  0.00    -0.200 F 
ENDBRANCH  97 117
BRANCH 100 128
ATOM    128  C   UNL A   1      45.235  32.302  34.123  1.00  0.00     0.064 A 
ATOM    129  C   UNL A   1      45.414  32.658  35.462  1.00  0.00     0.173 A 
ATOM    130  C   UNL A   1      46.471  32.179  33.401  1.00  0.00     0.173 A 
ATOM    131  F   UNL A   1      44.365  32.939  36.241  1.00  0.00    -0.203 F 
ATOM    132  C   UNL A   1      46.702  32.753  36.048  1.00  0.00     0.198 A 
ATOM    133  C   UNL A   1      47.736  32.205  33.990  1.00  0.00     0.198 A 
ATOM    134  F   UNL A   1      46.507  32.028  32.071  1.00  0.00    -0.203 F 
ATOM    135  F   UNL A   1      46.823  33.101  37.337  1.00  0.00    -0.200 F 
ATOM    136  C   UNL A   1      47.853  32.476  35.326  1.00  0.00     0.200 A 
ATOM    137  F   UNL A   1      48.824  31.947  33.247  1.00  0.00    -0.200 F 
ATOM    138  F   UNL A   1      49.061  32.486  35.907  1.00  0.00    -0.200 F 
ENDBRANCH 100 128
BRANCH 115 139
ATOM    139  C   UNL A   1      39.284  33.006  34.051  1.00  0.00     0.064 A 
ATOM    140  C   UNL A   1      39.114  33.389  35.392  1.00  0.00     0.173 A 
ATOM    141  C   UNL A   1      38.908  31.688  33.736  1.00  0.00     0.173 A 
ATOM    142  F   UNL A   1      39.427  34.637  35.774  1.00  0.00    -0.203 F 
ATOM    143  C   UNL A   1      38.626  32.503  36.356  1.00  0.00     0.198 A 
ATOM    144  C   UNL A   1      38.417  30.800  34.699  1.00  0.00     0.198 A 
ATOM    145  F   UNL A   1      39.009  31.230  32.490  1.00  0.00    -0.203 F 
ATOM    146  F   UNL A   1      38.486  32.911  37.626  1.00  0.00    -0.200 F 
ATOM    147  C   UNL A   1      38.282  31.207  36.011  1.00  0.00     0.200 A 
ATOM    148  F   UNL A   1      38.069  29.552  34.346  1.00  0.00    -0.200 F 
ATOM    149  F   UNL A   1      37.806  30.361  36.935  1.00  0.00    -0.200 F 
ENDBRANCH 115 139
ENDBRANCH  80  83
ENDBRANCH  70  73
ENDBRANCH  66  69
ENDBRANCH  63  66
ENDBRANCH  60  63
ENDBRANCH  57  60
ENDBRANCH  54  57
ENDBRANCH   1  54
TORSDOF 21
ENDMDL
MODEL 5
REMARK VINA RESULT:     -11.7      3.862      8.966
REMARK SMILES CN(C)S(=O)(=O)c1ccc(-n2c(CCC(=O)NCCCCCCNC(=O)c3ccc(-c4c5nc(c(-c6c(F)c(F)c(F)c(F)c6F)c6ccc([nH]6)c(-c6c(F)c(F)c(F)c(F)c6F)c6nc(c(-c7c(F)c(F)c(F)c(F)c7F)c7ccc4[nH]7)C=C6)C=C5)cc3)ccc2-c2ccc(F)cc2)cc1
REMARK SMILES IDX 18 1 17 4 15 5 16 6 14 8 13 11 12 14 11 15 92 16 90 17 91 18
REMARK SMILES IDX 10 21 7 22 8 23 101 24 9 25 100 27 4 31 5 32 6 33 2 34 1 35
REMARK SMILES IDX 3 39 93 43 94 44 99 45 95 46 98 48 96 50 97 53 19 54 20 57
REMARK SMILES IDX 21 60 22 63 23 66 24 69 25 70 26 72 27 73 28 74 89 75 29 76
REMARK SMILES IDX 88 78 30 80 31 83 32 84 82 85 33 86 87 87 81 88 83 89 34 90
REMARK SMILES IDX 86 91 80 93 79 95 35 97 67 100 47 101 66 102 48 103 51 104
REMARK SMILES IDX 65 105 84 106 49 107 50 109 64 111 85 112 52 115 36 117
REMARK SMILES IDX 37 118 45 119 38 120 39 121 43 122 46 123 40 124 41 125
REMARK SMILES IDX 44 126 42 127 68 128 69 129 77 130 70 131 71 132 75 133
REMARK SMILES IDX 78 134 72 135 73 136 76 137 74 138 53 139 54 140 62 141
REMARK SMILES IDX 55 142 56 143 60 144 63 145 57 146 58 147 61 148 59 149
REMARK H PARENT 18 2 18 3 17 7 14 9 14 10 13 12 13 13 90 19 91 20 8 26 101 28
REMARK H PARENT 9 29 100 30 1 36 1 37 1 38 3 40 3 41 3 42 94 47 99 49 95 51
REMARK H PARENT 98 52 19 55 19 56 20 58 20 59 21 61 21 62 22 64 22 65 23 67
REMARK H PARENT 23 68 24 71 28 77 89 79 29 81 88 82 87 92 81 94 83 96 86 98
REMARK H PARENT 80 99 48 108 51 110 84 113 49 114 85 116
REMARK Flexibility Score: inf
ROOT
ATOM      1  C   UNL A   1      41.328  21.671  26.663  1.00  0.00     0.017 C 
ATOM      2  H   UNL A   1      40.685  21.456  25.835  1.00  0.00     0.049 H 
ATOM      3  H   UNL A   1      40.916  21.319  27.585  1.00  0.00     0.049 H 
ENDROOT
BRANCH   1   4
ATOM      4  N   UNL A   1      41.480  23.115  26.773  1.00  0.00    -0.356 N 
ATOM      5  C   UNL A   1      40.583  24.079  27.129  1.00  0.00     0.220 C 
ATOM      6  O   UNL A   1      40.986  25.244  27.204  1.00  0.00    -0.275 OA
ATOM      7  H   UNL A   1      42.378  23.452  26.552  1.00  0.00     0.163 HD
BRANCH   5   8
ATOM      8  C   UNL A   1      39.123  23.760  27.406  1.00  0.00     0.032 C 
ATOM      9  H   UNL A   1      39.062  22.731  27.692  1.00  0.00     0.037 H 
ATOM     10  H   UNL A   1      38.818  24.447  28.167  1.00  0.00     0.037 H 
BRANCH   8  11
ATOM     11  C   UNL A   1      38.148  23.982  26.234  1.00  0.00    -0.003 C 
ATOM     12  H   UNL A   1      37.401  24.680  26.549  1.00  0.00     0.034 H 
ATOM     13  H   UNL A   1      38.736  24.337  25.414  1.00  0.00     0.034 H 
BRANCH  11  14
ATOM     14  C   UNL A   1      37.450  22.731  25.751  1.00  0.00     0.024 A 
ATOM     15  N   UNL A   1      36.066  22.431  25.757  1.00  0.00    -0.314 N 
ATOM     16  C   UNL A   1      35.938  21.113  25.215  1.00  0.00     0.053 A 
ATOM     17  C   UNL A   1      38.131  21.626  25.264  1.00  0.00    -0.040 A 
ATOM     18  C   UNL A   1      37.204  20.630  24.940  1.00  0.00    -0.036 A 
ATOM     19  H   UNL A   1      39.155  21.551  25.157  1.00  0.00     0.064 H 
ATOM     20  H   UNL A   1      37.426  19.696  24.562  1.00  0.00     0.065 H 
BRANCH  15  21
ATOM     21  C   UNL A   1      34.949  23.324  26.044  1.00  0.00     0.046 A 
ATOM     22  C   UNL A   1      32.476  24.688  26.135  1.00  0.00     0.082 A 
ATOM     23  C   UNL A   1      32.682  23.563  26.920  1.00  0.00    -0.040 A 
ATOM     24  C   UNL A   1      33.513  25.187  25.364  1.00  0.00    -0.040 A 
ATOM     25  C   UNL A   1      33.938  22.955  26.939  1.00  0.00    -0.037 A 
ATOM     26  H   UNL A   1      31.910  23.177  27.487  1.00  0.00     0.064 H 
ATOM     27  C   UNL A   1      34.732  24.503  25.329  1.00  0.00    -0.037 A 
ATOM     28  H   UNL A   1      33.387  26.054  24.821  1.00  0.00     0.064 H 
ATOM     29  H   UNL A   1      34.127  22.214  27.632  1.00  0.00     0.065 H 
ATOM     30  H   UNL A   1      35.500  24.884  24.754  1.00  0.00     0.065 H 
BRANCH  22  31
ATOM     31  S   UNL A   1      30.891  25.472  26.109  1.00  0.00     0.242 S 
ATOM     32  O   UNL A   1      31.038  26.793  26.676  1.00  0.00    -0.207 OA
ATOM     33  O   UNL A   1      29.926  24.535  26.651  1.00  0.00    -0.207 OA
BRANCH  31  34
ATOM     34  N   UNL A   1      30.592  25.627  24.432  1.00  0.00    -0.204 NA
BRANCH  34  35
ATOM     35  C   UNL A   1      30.615  24.336  23.717  1.00  0.00     0.002 C 
ATOM     36  H   UNL A   1      30.426  23.542  24.408  1.00  0.00     0.041 H 
ATOM     37  H   UNL A   1      31.574  24.195  23.265  1.00  0.00     0.041 H 
ATOM     38  H   UNL A   1      29.860  24.335  22.959  1.00  0.00     0.041 H 
ENDBRANCH  34  35
BRANCH  34  39
ATOM     39  C   UNL A   1      29.416  26.447  24.063  1.00  0.00     0.002 C 
ATOM     40  H   UNL A   1      28.794  26.586  24.923  1.00  0.00     0.041 H 
ATOM     41  H   UNL A   1      28.859  25.948  23.297  1.00  0.00     0.041 H 
ATOM     42  H   UNL A   1      29.745  27.399  23.702  1.00  0.00     0.041 H 
ENDBRANCH  34  39
ENDBRANCH  31  34
ENDBRANCH  22  31
ENDBRANCH  15  21
BRANCH  16  43
ATOM     43  C   UNL A   1      34.681  20.482  24.771  1.00  0.00    -0.001 A 
ATOM     44  C   UNL A   1      33.637  21.197  24.180  1.00  0.00    -0.050 A 
ATOM     45  C   UNL A   1      34.570  19.089  24.844  1.00  0.00    -0.050 A 
ATOM     46  C   UNL A   1      32.569  20.501  23.589  1.00  0.00    -0.026 A 
ATOM     47  H   UNL A   1      33.649  22.229  24.179  1.00  0.00     0.063 H 
ATOM     48  C   UNL A   1      33.522  18.388  24.256  1.00  0.00    -0.026 A 
ATOM     49  H   UNL A   1      35.295  18.560  25.354  1.00  0.00     0.063 H 
ATOM     50  C   UNL A   1      32.532  19.106  23.614  1.00  0.00     0.123 A 
ATOM     51  H   UNL A   1      31.807  21.026  23.132  1.00  0.00     0.065 H 
ATOM     52  H   UNL A   1      33.485  17.357  24.299  1.00  0.00     0.065 H 
ATOM     53  F   UNL A   1      31.488  18.455  23.087  1.00  0.00    -0.207 F 
ENDBRANCH  16  43
ENDBRANCH  11  14
ENDBRANCH   8  11
ENDBRANCH   5   8
ENDBRANCH   1   4
BRANCH   1  54
ATOM     54  C   UNL A   1      42.659  20.951  26.448  1.00  0.00    -0.036 C 
ATOM     55  H   UNL A   1      43.232  21.055  27.346  1.00  0.00     0.028 H 
ATOM     56  H   UNL A   1      43.090  21.413  25.584  1.00  0.00     0.028 H 
BRANCH  54  57
ATOM     57  C   UNL A   1      42.593  19.456  26.110  1.00  0.00    -0.052 C 
ATOM     58  H   UNL A   1      41.626  19.274  25.692  1.00  0.00     0.027 H 
ATOM     59  H   UNL A   1      42.822  18.982  27.042  1.00  0.00     0.027 H 
BRANCH  57  60
ATOM     60  C   UNL A   1      43.630  18.835  25.130  1.00  0.00    -0.052 C 
ATOM     61  H   UNL A   1      43.525  19.375  24.212  1.00  0.00     0.027 H 
ATOM     62  H   UNL A   1      43.371  17.798  25.176  1.00  0.00     0.027 H 
BRANCH  60  63
ATOM     63  C   UNL A   1      45.149  18.788  25.424  1.00  0.00    -0.036 C 
ATOM     64  H   UNL A   1      45.519  17.889  24.976  1.00  0.00     0.028 H 
ATOM     65  H   UNL A   1      45.188  18.871  26.490  1.00  0.00     0.028 H 
BRANCH  63  66
ATOM     66  C   UNL A   1      46.087  19.938  24.954  1.00  0.00     0.018 C 
ATOM     67  H   UNL A   1      47.003  19.505  24.610  1.00  0.00     0.049 H 
ATOM     68  H   UNL A   1      46.229  20.585  25.795  1.00  0.00     0.049 H 
BRANCH  66  69
ATOM     69  N   UNL A   1      45.533  20.754  23.879  1.00  0.00    -0.352 N 
ATOM     70  C   UNL A   1      44.903  21.984  23.841  1.00  0.00     0.251 C 
ATOM     71  H   UNL A   1      45.626  20.341  22.990  1.00  0.00     0.163 HD
ATOM     72  O   UNL A   1      44.160  22.178  22.874  1.00  0.00    -0.269 OA
BRANCH  70  73
ATOM     73  C   UNL A   1      45.064  23.117  24.813  1.00  0.00     0.039 A 
ATOM     74  C   UNL A   1      44.068  24.116  24.840  1.00  0.00    -0.049 A 
ATOM     75  C   UNL A   1      46.200  23.339  25.582  1.00  0.00    -0.049 A 
ATOM     76  C   UNL A   1      44.204  25.284  25.617  1.00  0.00    -0.053 A 
ATOM     77  H   UNL A   1      43.215  23.988  24.274  1.00  0.00     0.063 H 
ATOM     78  C   UNL A   1      46.384  24.546  26.296  1.00  0.00    -0.053 A 
ATOM     79  H   UNL A   1      46.926  22.607  25.633  1.00  0.00     0.063 H 
ATOM     80  C   UNL A   1      45.366  25.508  26.361  1.00  0.00    -0.014 A 
ATOM     81  H   UNL A   1      43.440  25.978  25.637  1.00  0.00     0.063 H 
ATOM     82  H   UNL A   1      47.281  24.720  26.777  1.00  0.00     0.063 H 
BRANCH  80  83
ATOM     83  C   UNL A   1      45.327  26.482  27.508  1.00  0.00     0.031 A 
ATOM     84  C   UNL A   1      45.863  27.876  27.034  1.00  0.00     0.074 A 
ATOM     85  C   UNL A   1      44.881  26.088  28.752  1.00  0.00     0.049 A 
ATOM     86  N   UNL A   1      46.286  28.896  27.719  1.00  0.00    -0.248 NA
ATOM     87  C   UNL A   1      45.970  28.166  25.572  1.00  0.00    -0.034 C 
ATOM     88  C   UNL A   1      44.319  24.757  29.073  1.00  0.00    -0.036 A 
ATOM     89  N   UNL A   1      44.800  26.707  30.001  1.00  0.00    -0.354 N 
ATOM     90  C   UNL A   1      46.479  29.973  26.815  1.00  0.00     0.074 A 
ATOM     91  C   UNL A   1      46.365  29.434  25.503  1.00  0.00    -0.034 C 
ATOM     92  H   UNL A   1      45.780  27.524  24.787  1.00  0.00     0.065 H 
ATOM     93  C   UNL A   1      44.052  24.637  30.399  1.00  0.00    -0.036 A 
ATOM     94  H   UNL A   1      44.151  24.013  28.377  1.00  0.00     0.065 H 
ATOM     95  C   UNL A   1      44.383  25.871  31.090  1.00  0.00     0.049 A 
ATOM     96  H   UNL A   1      45.018  27.659  30.128  1.00  0.00     0.167 HD
ATOM     97  C   UNL A   1      46.577  31.277  27.204  1.00  0.00     0.037 A 
ATOM     98  H   UNL A   1      46.559  29.950  24.630  1.00  0.00     0.065 H 
ATOM     99  H   UNL A   1      43.671  23.791  30.850  1.00  0.00     0.065 H 
ATOM    100  C   UNL A   1      44.332  26.142  32.443  1.00  0.00     0.037 A 
ATOM    101  C   UNL A   1      46.655  31.345  28.617  1.00  0.00     0.049 A 
ATOM    102  C   UNL A   1      44.547  27.586  32.539  1.00  0.00     0.074 A 
ATOM    103  C   UNL A   1      47.628  30.956  29.498  1.00  0.00    -0.036 A 
ATOM    104  N   UNL A   1      45.473  31.528  29.285  1.00  0.00    -0.354 N 
ATOM    105  N   UNL A   1      43.640  28.472  32.265  1.00  0.00    -0.248 NA
ATOM    106  C   UNL A   1      45.859  28.086  32.966  1.00  0.00    -0.034 C 
ATOM    107  C   UNL A   1      46.884  30.433  30.570  1.00  0.00    -0.036 A 
ATOM    108  H   UNL A   1      48.652  31.030  29.400  1.00  0.00     0.065 H 
ATOM    109  C   UNL A   1      45.531  30.753  30.409  1.00  0.00     0.049 A 
ATOM    110  H   UNL A   1      44.726  32.105  29.008  1.00  0.00     0.167 HD
ATOM    111  C   UNL A   1      44.397  29.607  32.141  1.00  0.00     0.074 A 
ATOM    112  C   UNL A   1      45.607  29.391  32.903  1.00  0.00    -0.034 C 
ATOM    113  H   UNL A   1      46.717  27.579  33.235  1.00  0.00     0.065 H 
ATOM    114  H   UNL A   1      47.276  29.894  31.358  1.00  0.00     0.065 H 
ATOM    115  C   UNL A   1      44.290  30.324  30.997  1.00  0.00     0.037 A 
ATOM    116  H   UNL A   1      46.184  30.132  33.331  1.00  0.00     0.065 H 
BRANCH  97 117
ATOM    117  C   UNL A   1      46.343  32.572  26.470  1.00  0.00     0.064 A 
ATOM    118  C   UNL A   1      47.391  33.529  26.473  1.00  0.00     0.173 A 
ATOM    119  C   UNL A   1      45.066  33.059  26.162  1.00  0.00     0.173 A 
ATOM    120  F   UNL A   1      48.662  33.159  26.698  1.00  0.00    -0.203 F 
ATOM    121  C   UNL A   1      47.143  34.896  26.367  1.00  0.00     0.198 A 
ATOM    122  C   UNL A   1      44.832  34.427  25.996  1.00  0.00     0.198 A 
ATOM    123  F   UNL A   1      44.001  32.250  26.121  1.00  0.00    -0.203 F 
ATOM    124  F   UNL A   1      48.139  35.773  26.561  1.00  0.00    -0.200 F 
ATOM    125  C   UNL A   1      45.856  35.346  26.153  1.00  0.00     0.200 A 
ATOM    126  F   UNL A   1      43.584  34.860  25.773  1.00  0.00    -0.200 F 
ATOM    127  F   UNL A   1      45.596  36.660  26.137  1.00  0.00    -0.200 F 
ENDBRANCH  97 117
BRANCH 100 128
ATOM    128  C   UNL A   1      44.135  25.471  33.808  1.00  0.00     0.064 A 
ATOM    129  C   UNL A   1      44.959  24.501  34.385  1.00  0.00     0.173 A 
ATOM    130  C   UNL A   1      43.073  25.898  34.676  1.00  0.00     0.173 A 
ATOM    131  F   UNL A   1      45.916  23.904  33.668  1.00  0.00    -0.203 F 
ATOM    132  C   UNL A   1      44.813  24.098  35.736  1.00  0.00     0.198 A 
ATOM    133  C   UNL A   1      42.969  25.554  36.024  1.00  0.00     0.198 A 
ATOM    134  F   UNL A   1      42.073  26.678  34.248  1.00  0.00    -0.203 F 
ATOM    135  F   UNL A   1      45.627  23.162  36.243  1.00  0.00    -0.200 F 
ATOM    136  C   UNL A   1      43.855  24.662  36.564  1.00  0.00     0.200 A 
ATOM    137  F   UNL A   1      42.013  26.113  36.784  1.00  0.00    -0.200 F 
ATOM    138  F   UNL A   1      43.775  24.337  37.863  1.00  0.00    -0.200 F 
ENDBRANCH 100 128
BRANCH 115 139
ATOM    139  C   UNL A   1      42.946  30.186  30.305  1.00  0.00     0.064 A 
ATOM    140  C   UNL A   1      41.785  30.642  30.953  1.00  0.00     0.173 A 
ATOM    141  C   UNL A   1      42.744  29.502  29.094  1.00  0.00     0.173 A 
ATOM    142  F   UNL A   1      41.889  31.324  32.104  1.00  0.00    -0.203 F 
ATOM    143  C   UNL A   1      40.510  30.404  30.435  1.00  0.00     0.198 A 
ATOM    144  C   UNL A   1      41.469  29.265  28.571  1.00  0.00     0.198 A 
ATOM    145  F   UNL A   1      43.777  29.046  28.388  1.00  0.00    -0.203 F 
ATOM    146  F   UNL A   1      39.430  30.853  31.091  1.00  0.00    -0.200 F 
ATOM    147  C   UNL A   1      40.350  29.712  29.247  1.00  0.00     0.200 A 
ATOM    148  F   UNL A   1      41.330  28.609  27.408  1.00  0.00    -0.200 F 
ATOM    149  F   UNL A   1      39.126  29.492  28.746  1.00  0.00    -0.200 F 
ENDBRANCH 115 139
ENDBRANCH  80  83
ENDBRANCH  70  73
ENDBRANCH  66  69
ENDBRANCH  63  66
ENDBRANCH  60  63
ENDBRANCH  57  60
ENDBRANCH  54  57
ENDBRANCH   1  54
TORSDOF 21
ENDMDL
MODEL 6
REMARK VINA RESULT:     -11.6      3.545      8.585
REMARK SMILES CN(C)S(=O)(=O)c1ccc(-n2c(CCC(=O)NCCCCCCNC(=O)c3ccc(-c4c5nc(c(-c6c(F)c(F)c(F)c(F)c6F)c6ccc([nH]6)c(-c6c(F)c(F)c(F)c(F)c6F)c6nc(c(-c7c(F)c(F)c(F)c(F)c7F)c7ccc4[nH]7)C=C6)C=C5)cc3)ccc2-c2ccc(F)cc2)cc1
REMARK SMILES IDX 18 1 17 4 15 5 16 6 14 8 13 11 12 14 11 15 92 16 90 17 91 18
REMARK SMILES IDX 10 21 7 22 8 23 101 24 9 25 100 27 4 31 5 32 6 33 2 34 1 35
REMARK SMILES IDX 3 39 93 43 94 44 99 45 95 46 98 48 96 50 97 53 19 54 20 57
REMARK SMILES IDX 21 60 22 63 23 66 24 69 25 70 26 72 27 73 28 74 89 75 29 76
REMARK SMILES IDX 88 78 30 80 31 83 32 84 82 85 33 86 87 87 81 88 83 89 34 90
REMARK SMILES IDX 86 91 80 93 79 95 35 97 67 100 47 101 66 102 48 103 51 104
REMARK SMILES IDX 65 105 84 106 49 107 50 109 64 111 85 112 52 115 36 117
REMARK SMILES IDX 37 118 45 119 38 120 39 121 43 122 46 123 40 124 41 125
REMARK SMILES IDX 44 126 42 127 68 128 69 129 77 130 70 131 71 132 75 133
REMARK SMILES IDX 78 134 72 135 73 136 76 137 74 138 53 139 54 140 62 141
REMARK SMILES IDX 55 142 56 143 60 144 63 145 57 146 58 147 61 148 59 149
REMARK H PARENT 18 2 18 3 17 7 14 9 14 10 13 12 13 13 90 19 91 20 8 26 101 28
REMARK H PARENT 9 29 100 30 1 36 1 37 1 38 3 40 3 41 3 42 94 47 99 49 95 51
REMARK H PARENT 98 52 19 55 19 56 20 58 20 59 21 61 21 62 22 64 22 65 23 67
REMARK H PARENT 23 68 24 71 28 77 89 79 29 81 88 82 87 92 81 94 83 96 86 98
REMARK H PARENT 80 99 48 108 51 110 84 113 49 114 85 116
REMARK Flexibility Score: inf
ROOT
ATOM      1  C   UNL A   1      32.506  20.678  25.170  1.00  0.00     0.017 C 
ATOM      2  H   UNL A   1      31.683  20.451  25.815  1.00  0.00     0.049 H 
ATOM      3  H   UNL A   1      32.751  21.719  25.193  1.00  0.00     0.049 H 
ENDROOT
BRANCH   1   4
ATOM      4  N   UNL A   1      32.132  20.344  23.802  1.00  0.00    -0.356 N 
ATOM      5  C   UNL A   1      32.192  21.084  22.658  1.00  0.00     0.220 C 
ATOM      6  O   UNL A   1      31.865  20.538  21.600  1.00  0.00    -0.275 OA
ATOM      7  H   UNL A   1      31.776  19.434  23.685  1.00  0.00     0.163 HD
BRANCH   5   8
ATOM      8  C   UNL A   1      32.619  22.542  22.663  1.00  0.00     0.032 C 
ATOM      9  H   UNL A   1      33.549  22.609  23.187  1.00  0.00     0.037 H 
ATOM     10  H   UNL A   1      32.673  22.829  21.634  1.00  0.00     0.037 H 
BRANCH   8  11
ATOM     11  C   UNL A   1      31.637  23.533  23.317  1.00  0.00    -0.003 C 
ATOM     12  H   UNL A   1      31.126  24.059  22.538  1.00  0.00     0.034 H 
ATOM     13  H   UNL A   1      30.981  22.950  23.929  1.00  0.00     0.034 H 
BRANCH  11  14
ATOM     14  C   UNL A   1      32.284  24.550  24.228  1.00  0.00     0.024 A 
ATOM     15  N   UNL A   1      32.092  25.953  24.267  1.00  0.00    -0.314 N 
ATOM     16  C   UNL A   1      32.957  26.450  25.292  1.00  0.00     0.053 A 
ATOM     17  C   UNL A   1      33.253  24.219  25.162  1.00  0.00    -0.040 A 
ATOM     18  C   UNL A   1      33.671  25.386  25.813  1.00  0.00    -0.036 A 
ATOM     19  H   UNL A   1      33.607  23.268  25.348  1.00  0.00     0.064 H 
ATOM     20  H   UNL A   1      34.390  25.442  26.551  1.00  0.00     0.065 H 
BRANCH  15  21
ATOM     21  C   UNL A   1      31.080  26.747  23.577  1.00  0.00     0.046 A 
ATOM     22  C   UNL A   1      29.242  28.720  22.732  1.00  0.00     0.082 A 
ATOM     23  C   UNL A   1      30.566  28.775  22.319  1.00  0.00    -0.040 A 
ATOM     24  C   UNL A   1      28.806  27.650  23.497  1.00  0.00    -0.040 A 
ATOM     25  C   UNL A   1      31.441  27.744  22.664  1.00  0.00    -0.037 A 
ATOM     26  H   UNL A   1      30.902  29.575  21.761  1.00  0.00     0.064 H 
ATOM     27  C   UNL A   1      29.725  26.679  23.907  1.00  0.00    -0.037 A 
ATOM     28  H   UNL A   1      27.813  27.571  23.761  1.00  0.00     0.064 H 
ATOM     29  H   UNL A   1      32.378  27.715  22.234  1.00  0.00     0.065 H 
ATOM     30  H   UNL A   1      29.390  25.885  24.474  1.00  0.00     0.065 H 
BRANCH  22  31
ATOM     31  S   UNL A   1      28.122  30.015  22.294  1.00  0.00     0.242 S 
ATOM     32  O   UNL A   1      26.965  29.915  23.153  1.00  0.00    -0.207 OA
ATOM     33  O   UNL A   1      27.979  30.005  20.850  1.00  0.00    -0.207 OA
BRANCH  31  34
ATOM     34  N   UNL A   1      29.004  31.416  22.726  1.00  0.00    -0.204 NA
BRANCH  34  35
ATOM     35  C   UNL A   1      28.491  32.645  22.090  1.00  0.00     0.002 C 
ATOM     36  H   UNL A   1      27.421  32.628  22.093  1.00  0.00     0.041 H 
ATOM     37  H   UNL A   1      28.844  32.700  21.082  1.00  0.00     0.041 H 
ATOM     38  H   UNL A   1      28.834  33.499  22.636  1.00  0.00     0.041 H 
ENDBRANCH  34  35
BRANCH  34  39
ATOM     39  C   UNL A   1      29.249  31.599  24.174  1.00  0.00     0.002 C 
ATOM     40  H   UNL A   1      28.327  31.830  24.666  1.00  0.00     0.041 H 
ATOM     41  H   UNL A   1      29.942  32.401  24.321  1.00  0.00     0.041 H 
ATOM     42  H   UNL A   1      29.655  30.697  24.583  1.00  0.00     0.041 H 
ENDBRANCH  34  39
ENDBRANCH  31  34
ENDBRANCH  22  31
ENDBRANCH  15  21
BRANCH  16  43
ATOM     43  C   UNL A   1      32.908  27.799  25.884  1.00  0.00    -0.001 A 
ATOM     44  C   UNL A   1      31.790  28.295  26.559  1.00  0.00    -0.050 A 
ATOM     45  C   UNL A   1      34.069  28.581  25.864  1.00  0.00    -0.050 A 
ATOM     46  C   UNL A   1      31.893  29.497  27.278  1.00  0.00    -0.026 A 
ATOM     47  H   UNL A   1      30.895  27.782  26.529  1.00  0.00     0.063 H 
ATOM     48  C   UNL A   1      34.185  29.769  26.578  1.00  0.00    -0.026 A 
ATOM     49  H   UNL A   1      34.871  28.263  25.297  1.00  0.00     0.063 H 
ATOM     50  C   UNL A   1      33.092  30.211  27.298  1.00  0.00     0.123 A 
ATOM     51  H   UNL A   1      31.075  29.855  27.797  1.00  0.00     0.065 H 
ATOM     52  H   UNL A   1      35.066  30.307  26.570  1.00  0.00     0.065 H 
ATOM     53  F   UNL A   1      33.166  31.377  27.951  1.00  0.00    -0.207 F 
ENDBRANCH  16  43
ENDBRANCH  11  14
ENDBRANCH   8  11
ENDBRANCH   5   8
ENDBRANCH   1   4
BRANCH   1  54
ATOM     54  C   UNL A   1      33.733  19.905  25.653  1.00  0.00    -0.036 C 
ATOM     55  H   UNL A   1      33.416  18.909  25.888  1.00  0.00     0.028 H 
ATOM     56  H   UNL A   1      34.108  20.465  26.484  1.00  0.00     0.028 H 
BRANCH  54  57
ATOM     57  C   UNL A   1      34.914  19.797  24.679  1.00  0.00    -0.052 C 
ATOM     58  H   UNL A   1      34.560  20.126  23.725  1.00  0.00     0.027 H 
ATOM     59  H   UNL A   1      35.212  18.773  24.765  1.00  0.00     0.027 H 
BRANCH  57  60
ATOM     60  C   UNL A   1      36.229  20.578  24.964  1.00  0.00    -0.052 C 
ATOM     61  H   UNL A   1      36.093  21.043  25.917  1.00  0.00     0.027 H 
ATOM     62  H   UNL A   1      36.316  21.176  24.081  1.00  0.00     0.027 H 
BRANCH  60  63
ATOM     63  C   UNL A   1      37.621  19.901  25.016  1.00  0.00    -0.036 C 
ATOM     64  H   UNL A   1      37.932  19.762  24.002  1.00  0.00     0.028 H 
ATOM     65  H   UNL A   1      37.439  19.030  25.610  1.00  0.00     0.028 H 
BRANCH  63  66
ATOM     66  C   UNL A   1      38.810  20.581  25.756  1.00  0.00     0.018 C 
ATOM     67  H   UNL A   1      38.450  20.966  26.687  1.00  0.00     0.049 H 
ATOM     68  H   UNL A   1      39.179  21.349  25.108  1.00  0.00     0.049 H 
BRANCH  66  69
ATOM     69  N   UNL A   1      39.928  19.684  26.032  1.00  0.00    -0.352 N 
ATOM     70  C   UNL A   1      41.296  19.862  26.117  1.00  0.00     0.251 C 
ATOM     71  H   UNL A   1      39.649  18.754  26.191  1.00  0.00     0.163 HD
ATOM     72  O   UNL A   1      41.982  18.857  25.906  1.00  0.00    -0.269 OA
BRANCH  70  73
ATOM     73  C   UNL A   1      42.027  21.121  26.484  1.00  0.00     0.039 A 
ATOM     74  C   UNL A   1      42.616  21.874  25.446  1.00  0.00    -0.049 A 
ATOM     75  C   UNL A   1      42.301  21.521  27.786  1.00  0.00    -0.049 A 
ATOM     76  C   UNL A   1      43.436  22.989  25.707  1.00  0.00    -0.053 A 
ATOM     77  H   UNL A   1      42.440  21.600  24.467  1.00  0.00     0.063 H 
ATOM     78  C   UNL A   1      43.192  22.584  28.059  1.00  0.00    -0.053 A 
ATOM     79  H   UNL A   1      41.845  21.031  28.571  1.00  0.00     0.063 H 
ATOM     80  C   UNL A   1      43.729  23.361  27.023  1.00  0.00    -0.014 A 
ATOM     81  H   UNL A   1      43.825  23.535  24.921  1.00  0.00     0.063 H 
ATOM     82  H   UNL A   1      43.451  22.792  29.037  1.00  0.00     0.063 H 
BRANCH  80  83
ATOM     83  C   UNL A   1      44.200  24.763  27.301  1.00  0.00     0.031 A 
ATOM     84  C   UNL A   1      42.964  25.712  27.462  1.00  0.00     0.074 A 
ATOM     85  C   UNL A   1      45.547  25.055  27.364  1.00  0.00     0.049 A 
ATOM     86  N   UNL A   1      42.880  27.008  27.410  1.00  0.00    -0.248 NA
ATOM     87  C   UNL A   1      41.609  25.125  27.692  1.00  0.00    -0.034 C 
ATOM     88  C   UNL A   1      46.638  24.059  27.273  1.00  0.00    -0.036 A 
ATOM     89  N   UNL A   1      46.285  26.230  27.518  1.00  0.00    -0.354 N 
ATOM     90  C   UNL A   1      41.568  27.373  27.808  1.00  0.00     0.074 A 
ATOM     91  C   UNL A   1      40.808  26.172  27.872  1.00  0.00    -0.034 C 
ATOM     92  H   UNL A   1      41.350  24.126  27.707  1.00  0.00     0.065 H 
ATOM     93  C   UNL A   1      47.857  24.657  27.277  1.00  0.00    -0.036 A 
ATOM     94  H   UNL A   1      46.492  23.039  27.214  1.00  0.00     0.065 H 
ATOM     95  C   UNL A   1      47.708  26.097  27.395  1.00  0.00     0.049 A 
ATOM     96  H   UNL A   1      45.855  27.097  27.699  1.00  0.00     0.167 HD
ATOM     97  C   UNL A   1      41.223  28.631  28.206  1.00  0.00     0.037 A 
ATOM     98  H   UNL A   1      39.790  26.120  28.034  1.00  0.00     0.065 H 
ATOM     99  H   UNL A   1      48.758  24.160  27.207  1.00  0.00     0.065 H 
ATOM    100  C   UNL A   1      48.687  27.071  27.363  1.00  0.00     0.037 A 
ATOM    101  C   UNL A   1      42.302  29.517  27.966  1.00  0.00     0.049 A 
ATOM    102  C   UNL A   1      47.997  28.301  27.754  1.00  0.00     0.074 A 
ATOM    103  C   UNL A   1      42.862  29.982  26.807  1.00  0.00    -0.036 A 
ATOM    104  N   UNL A   1      43.163  29.727  29.011  1.00  0.00    -0.354 N 
ATOM    105  N   UNL A   1      47.666  28.586  28.976  1.00  0.00    -0.248 NA
ATOM    106  C   UNL A   1      47.647  29.283  26.722  1.00  0.00    -0.034 C 
ATOM    107  C   UNL A   1      44.235  29.995  27.108  1.00  0.00    -0.036 A 
ATOM    108  H   UNL A   1      42.392  30.256  25.930  1.00  0.00     0.065 H 
ATOM    109  C   UNL A   1      44.421  29.789  28.480  1.00  0.00     0.049 A 
ATOM    110  H   UNL A   1      42.922  29.815  29.961  1.00  0.00     0.167 HD
ATOM    111  C   UNL A   1      46.760  29.595  28.783  1.00  0.00     0.074 A 
ATOM    112  C   UNL A   1      47.058  30.189  27.498  1.00  0.00    -0.034 C 
ATOM    113  H   UNL A   1      47.810  29.274  25.702  1.00  0.00     0.065 H 
ATOM    114  H   UNL A   1      44.993  30.135  26.422  1.00  0.00     0.065 H 
ATOM    115  C   UNL A   1      45.530  29.464  29.336  1.00  0.00     0.037 A 
ATOM    116  H   UNL A   1      46.847  31.162  27.226  1.00  0.00     0.065 H 
BRANCH  97 117
ATOM    117  C   UNL A   1      40.091  29.149  29.056  1.00  0.00     0.064 A 
ATOM    118  C   UNL A   1      40.103  28.822  30.437  1.00  0.00     0.173 A 
ATOM    119  C   UNL A   1      38.856  29.548  28.528  1.00  0.00     0.173 A 
ATOM    120  F   UNL A   1      41.245  28.484  31.056  1.00  0.00    -0.203 F 
ATOM    121  C   UNL A   1      38.929  28.717  31.181  1.00  0.00     0.198 A 
ATOM    122  C   UNL A   1      37.689  29.498  29.297  1.00  0.00     0.198 A 
ATOM    123  F   UNL A   1      38.723  29.886  27.241  1.00  0.00    -0.203 F 
ATOM    124  F   UNL A   1      38.971  28.227  32.429  1.00  0.00    -0.200 F 
ATOM    125  C   UNL A   1      37.718  29.033  30.601  1.00  0.00     0.200 A 
ATOM    126  F   UNL A   1      36.516  29.820  28.735  1.00  0.00    -0.200 F 
ATOM    127  F   UNL A   1      36.578  28.852  31.281  1.00  0.00    -0.200 F 
ENDBRANCH  97 117
BRANCH 100 128
ATOM    128  C   UNL A   1      50.177  27.283  27.070  1.00  0.00     0.064 A 
ATOM    129  C   UNL A   1      51.209  27.348  28.010  1.00  0.00     0.173 A 
ATOM    130  C   UNL A   1      50.645  27.336  25.713  1.00  0.00     0.173 A 
ATOM    131  F   UNL A   1      50.939  27.441  29.316  1.00  0.00    -0.203 F 
ATOM    132  C   UNL A   1      52.574  27.335  27.628  1.00  0.00     0.198 A 
ATOM    133  C   UNL A   1      51.987  27.254  25.337  1.00  0.00     0.198 A 
ATOM    134  F   UNL A   1      49.810  27.473  24.675  1.00  0.00    -0.203 F 
ATOM    135  F   UNL A   1      53.528  27.401  28.568  1.00  0.00    -0.200 F 
ATOM    136  C   UNL A   1      52.958  27.235  26.300  1.00  0.00     0.200 A 
ATOM    137  F   UNL A   1      52.312  27.177  24.036  1.00  0.00    -0.200 F 
ATOM    138  F   UNL A   1      54.249  27.138  25.951  1.00  0.00    -0.200 F 
ENDBRANCH 100 128
BRANCH 115 139
ATOM    139  C   UNL A   1      45.505  28.601  30.584  1.00  0.00     0.064 A 
ATOM    140  C   UNL A   1      44.823  27.372  30.560  1.00  0.00     0.173 A 
ATOM    141  C   UNL A   1      46.008  28.999  31.835  1.00  0.00     0.173 A 
ATOM    142  F   UNL A   1      44.330  26.906  29.402  1.00  0.00    -0.203 F 
ATOM    143  C   UNL A   1      44.636  26.609  31.715  1.00  0.00     0.198 A 
ATOM    144  C   UNL A   1      45.825  28.236  32.993  1.00  0.00     0.198 A 
ATOM    145  F   UNL A   1      46.688  30.136  31.965  1.00  0.00    -0.203 F 
ATOM    146  F   UNL A   1      43.974  25.445  31.646  1.00  0.00    -0.200 F 
ATOM    147  C   UNL A   1      45.132  27.042  32.933  1.00  0.00     0.200 A 
ATOM    148  F   UNL A   1      46.329  28.659  34.163  1.00  0.00    -0.200 F 
ATOM    149  F   UNL A   1      44.960  26.305  34.039  1.00  0.00    -0.200 F 
ENDBRANCH 115 139
ENDBRANCH  80  83
ENDBRANCH  70  73
ENDBRANCH  66  69
ENDBRANCH  63  66
ENDBRANCH  60  63
ENDBRANCH  57  60
ENDBRANCH  54  57
ENDBRANCH   1  54
TORSDOF 21
ENDMDL
MODEL 7
REMARK VINA RESULT:     -11.5      5.412     11.468
REMARK SMILES CN(C)S(=O)(=O)c1ccc(-n2c(CCC(=O)NCCCCCCNC(=O)c3ccc(-c4c5nc(c(-c6c(F)c(F)c(F)c(F)c6F)c6ccc([nH]6)c(-c6c(F)c(F)c(F)c(F)c6F)c6nc(c(-c7c(F)c(F)c(F)c(F)c7F)c7ccc4[nH]7)C=C6)C=C5)cc3)ccc2-c2ccc(F)cc2)cc1
REMARK SMILES IDX 18 1 17 4 15 5 16 6 14 8 13 11 12 14 11 15 92 16 90 17 91 18
REMARK SMILES IDX 10 21 7 22 8 23 101 24 9 25 100 27 4 31 5 32 6 33 2 34 1 35
REMARK SMILES IDX 3 39 93 43 94 44 99 45 95 46 98 48 96 50 97 53 19 54 20 57
REMARK SMILES IDX 21 60 22 63 23 66 24 69 25 70 26 72 27 73 28 74 89 75 29 76
REMARK SMILES IDX 88 78 30 80 31 83 32 84 82 85 33 86 87 87 81 88 83 89 34 90
REMARK SMILES IDX 86 91 80 93 79 95 35 97 67 100 47 101 66 102 48 103 51 104
REMARK SMILES IDX 65 105 84 106 49 107 50 109 64 111 85 112 52 115 36 117
REMARK SMILES IDX 37 118 45 119 38 120 39 121 43 122 46 123 40 124 41 125
REMARK SMILES IDX 44 126 42 127 68 128 69 129 77 130 70 131 71 132 75 133
REMARK SMILES IDX 78 134 72 135 73 136 76 137 74 138 53 139 54 140 62 141
REMARK SMILES IDX 55 142 56 143 60 144 63 145 57 146 58 147 61 148 59 149
REMARK H PARENT 18 2 18 3 17 7 14 9 14 10 13 12 13 13 90 19 91 20 8 26 101 28
REMARK H PARENT 9 29 100 30 1 36 1 37 1 38 3 40 3 41 3 42 94 47 99 49 95 51
REMARK H PARENT 98 52 19 55 19 56 20 58 20 59 21 61 21 62 22 64 22 65 23 67
REMARK H PARENT 23 68 24 71 28 77 89 79 29 81 88 82 87 92 81 94 83 96 86 98
REMARK H PARENT 80 99 48 108 51 110 84 113 49 114 85 116
REMARK Flexibility Score: inf
ROOT
ATOM      1  C   UNL A   1      41.842  29.204  34.517  1.00  0.00     0.017 C 
ATOM      2  H   UNL A   1      42.279  29.735  33.697  1.00  0.00     0.049 H 
ATOM      3  H   UNL A   1      42.403  28.327  34.765  1.00  0.00     0.049 H 
ENDROOT
BRANCH   1   4
ATOM      4  N   UNL A   1      40.504  28.776  34.135  1.00  0.00    -0.356 N 
ATOM      5  C   UNL A   1      40.000  28.410  32.921  1.00  0.00     0.220 C 
ATOM      6  O   UNL A   1      38.828  28.025  32.875  1.00  0.00    -0.275 OA
ATOM      7  H   UNL A   1      39.855  28.747  34.874  1.00  0.00     0.163 HD
BRANCH   5   8
ATOM      8  C   UNL A   1      40.826  28.490  31.649  1.00  0.00     0.032 C 
ATOM      9  H   UNL A   1      41.858  28.464  31.926  1.00  0.00     0.037 H 
ATOM     10  H   UNL A   1      40.511  27.662  31.049  1.00  0.00     0.037 H 
BRANCH   8  11
ATOM     11  C   UNL A   1      40.604  29.740  30.775  1.00  0.00    -0.003 C 
ATOM     12  H   UNL A   1      40.358  30.558  31.420  1.00  0.00     0.034 H 
ATOM     13  H   UNL A   1      41.511  29.894  30.230  1.00  0.00     0.034 H 
BRANCH  11  14
ATOM     14  C   UNL A   1      39.504  29.602  29.748  1.00  0.00     0.024 A 
ATOM     15  N   UNL A   1      38.176  30.092  29.802  1.00  0.00    -0.314 N 
ATOM     16  C   UNL A   1      37.542  29.670  28.591  1.00  0.00     0.053 A 
ATOM     17  C   UNL A   1      39.653  28.881  28.574  1.00  0.00    -0.040 A 
ATOM     18  C   UNL A   1      38.447  28.917  27.865  1.00  0.00    -0.036 A 
ATOM     19  H   UNL A   1      40.513  28.398  28.272  1.00  0.00     0.064 H 
ATOM     20  H   UNL A   1      38.264  28.460  26.958  1.00  0.00     0.065 H 
BRANCH  15  21
ATOM     21  C   UNL A   1      37.592  31.018  30.766  1.00  0.00     0.046 A 
ATOM     22  C   UNL A   1      36.948  32.584  33.028  1.00  0.00     0.082 A 
ATOM     23  C   UNL A   1      37.876  33.041  32.104  1.00  0.00    -0.040 A 
ATOM     24  C   UNL A   1      36.279  31.393  32.799  1.00  0.00    -0.040 A 
ATOM     25  C   UNL A   1      38.115  32.305  30.943  1.00  0.00    -0.037 A 
ATOM     26  H   UNL A   1      38.388  33.921  32.274  1.00  0.00     0.064 H 
ATOM     27  C   UNL A   1      36.606  30.628  31.674  1.00  0.00    -0.037 A 
ATOM     28  H   UNL A   1      35.547  31.074  33.451  1.00  0.00     0.064 H 
ATOM     29  H   UNL A   1      38.691  32.719  30.194  1.00  0.00     0.065 H 
ATOM     30  H   UNL A   1      36.100  29.743  31.510  1.00  0.00     0.065 H 
BRANCH  22  31
ATOM     31  S   UNL A   1      36.630  33.514  34.499  1.00  0.00     0.242 S 
ATOM     32  O   UNL A   1      35.201  33.545  34.707  1.00  0.00    -0.207 OA
ATOM     33  O   UNL A   1      37.396  34.743  34.418  1.00  0.00    -0.207 OA
BRANCH  31  34
ATOM     34  N   UNL A   1      37.338  32.531  35.707  1.00  0.00    -0.204 NA
BRANCH  34  35
ATOM     35  C   UNL A   1      38.531  31.800  35.236  1.00  0.00     0.002 C 
ATOM     36  H   UNL A   1      39.096  32.427  34.578  1.00  0.00     0.041 H 
ATOM     37  H   UNL A   1      38.226  30.918  34.714  1.00  0.00     0.041 H 
ATOM     38  H   UNL A   1      39.136  31.528  36.076  1.00  0.00     0.041 H 
ENDBRANCH  34  35
BRANCH  34  39
ATOM     39  C   UNL A   1      37.566  33.186  37.015  1.00  0.00     0.002 C 
ATOM     40  H   UNL A   1      37.768  34.226  36.862  1.00  0.00     0.041 H 
ATOM     41  H   UNL A   1      38.402  32.728  37.502  1.00  0.00     0.041 H 
ATOM     42  H   UNL A   1      36.694  33.077  37.625  1.00  0.00     0.041 H 
ENDBRANCH  34  39
ENDBRANCH  31  34
ENDBRANCH  22  31
ENDBRANCH  15  21
BRANCH  16  43
ATOM     43  C   UNL A   1      36.254  30.167  28.073  1.00  0.00    -0.001 A 
ATOM     44  C   UNL A   1      35.234  29.324  27.628  1.00  0.00    -0.050 A 
ATOM     45  C   UNL A   1      35.997  31.542  28.130  1.00  0.00    -0.050 A 
ATOM     46  C   UNL A   1      33.964  29.857  27.354  1.00  0.00    -0.026 A 
ATOM     47  H   UNL A   1      35.414  28.315  27.500  1.00  0.00     0.063 H 
ATOM     48  C   UNL A   1      34.741  32.081  27.870  1.00  0.00    -0.026 A 
ATOM     49  H   UNL A   1      36.769  32.181  28.376  1.00  0.00     0.063 H 
ATOM     50  C   UNL A   1      33.724  31.224  27.497  1.00  0.00     0.123 A 
ATOM     51  H   UNL A   1      33.201  29.232  27.047  1.00  0.00     0.065 H 
ATOM     52  H   UNL A   1      34.574  33.097  27.952  1.00  0.00     0.065 H 
ATOM     53  F   UNL A   1      32.522  31.728  27.192  1.00  0.00    -0.207 F 
ENDBRANCH  16  43
ENDBRANCH  11  14
ENDBRANCH   8  11
ENDBRANCH   5   8
ENDBRANCH   1   4
BRANCH   1  54
ATOM     54  C   UNL A   1      41.844  30.114  35.745  1.00  0.00    -0.036 C 
ATOM     55  H   UNL A   1      41.094  29.751  36.418  1.00  0.00     0.028 H 
ATOM     56  H   UNL A   1      41.668  31.098  35.364  1.00  0.00     0.028 H 
BRANCH  54  57
ATOM     57  C   UNL A   1      43.158  30.220  36.530  1.00  0.00    -0.052 C 
ATOM     58  H   UNL A   1      42.894  30.350  37.559  1.00  0.00     0.027 H 
ATOM     59  H   UNL A   1      43.669  31.027  36.049  1.00  0.00     0.027 H 
BRANCH  57  60
ATOM     60  C   UNL A   1      44.191  29.058  36.475  1.00  0.00    -0.052 C 
ATOM     61  H   UNL A   1      45.080  29.476  36.050  1.00  0.00     0.027 H 
ATOM     62  H   UNL A   1      43.641  28.310  35.942  1.00  0.00     0.027 H 
BRANCH  60  63
ATOM     63  C   UNL A   1      44.648  28.271  37.728  1.00  0.00    -0.036 C 
ATOM     64  H   UNL A   1      43.837  27.626  37.996  1.00  0.00     0.028 H 
ATOM     65  H   UNL A   1      44.920  29.048  38.411  1.00  0.00     0.028 H 
BRANCH  63  66
ATOM     66  C   UNL A   1      45.927  27.384  37.688  1.00  0.00     0.018 C 
ATOM     67  H   UNL A   1      46.460  27.522  38.606  1.00  0.00     0.049 H 
ATOM     68  H   UNL A   1      46.492  27.694  36.834  1.00  0.00     0.049 H 
BRANCH  66  69
ATOM     69  N   UNL A   1      45.656  25.959  37.524  1.00  0.00    -0.352 N 
ATOM     70  C   UNL A   1      44.976  25.220  36.575  1.00  0.00     0.251 C 
ATOM     71  H   UNL A   1      46.039  25.407  38.243  1.00  0.00     0.163 HD
ATOM     72  O   UNL A   1      44.540  24.129  36.955  1.00  0.00    -0.269 OA
BRANCH  70  73
ATOM     73  C   UNL A   1      44.757  25.575  35.133  1.00  0.00     0.039 A 
ATOM     74  C   UNL A   1      45.892  25.801  34.325  1.00  0.00    -0.049 A 
ATOM     75  C   UNL A   1      43.518  25.850  34.569  1.00  0.00    -0.049 A 
ATOM     76  C   UNL A   1      45.783  26.272  33.001  1.00  0.00    -0.053 A 
ATOM     77  H   UNL A   1      46.829  25.615  34.714  1.00  0.00     0.063 H 
ATOM     78  C   UNL A   1      43.403  26.405  33.274  1.00  0.00    -0.053 A 
ATOM     79  H   UNL A   1      42.662  25.645  35.108  1.00  0.00     0.063 H 
ATOM     80  C   UNL A   1      44.531  26.574  32.458  1.00  0.00    -0.014 A 
ATOM     81  H   UNL A   1      46.634  26.395  32.429  1.00  0.00     0.063 H 
ATOM     82  H   UNL A   1      42.474  26.689  32.923  1.00  0.00     0.063 H 
BRANCH  80  83
ATOM     83  C   UNL A   1      44.374  26.630  30.962  1.00  0.00     0.031 A 
ATOM     84  C   UNL A   1      44.338  28.123  30.491  1.00  0.00     0.074 A 
ATOM     85  C   UNL A   1      44.270  25.471  30.221  1.00  0.00     0.049 A 
ATOM     86  N   UNL A   1      43.928  28.649  29.375  1.00  0.00    -0.248 NA
ATOM     87  C   UNL A   1      44.806  29.200  31.417  1.00  0.00    -0.034 C 
ATOM     88  C   UNL A   1      44.395  24.100  30.763  1.00  0.00    -0.036 A 
ATOM     89  N   UNL A   1      44.041  25.193  28.872  1.00  0.00    -0.354 N 
ATOM     90  C   UNL A   1      44.289  30.022  29.386  1.00  0.00     0.074 A 
ATOM     91  C   UNL A   1      44.734  30.320  30.704  1.00  0.00    -0.034 C 
ATOM     92  H   UNL A   1      45.118  29.097  32.395  1.00  0.00     0.065 H 
ATOM     93  C   UNL A   1      44.156  23.165  29.808  1.00  0.00    -0.036 A 
ATOM     94  H   UNL A   1      44.634  23.881  31.743  1.00  0.00     0.065 H 
ATOM     95  C   UNL A   1      43.872  23.808  28.537  1.00  0.00     0.049 A 
ATOM     96  H   UNL A   1      43.997  25.904  28.192  1.00  0.00     0.167 HD
ATOM     97  C   UNL A   1      44.337  30.798  28.265  1.00  0.00     0.037 A 
ATOM     98  H   UNL A   1      44.966  31.263  31.053  1.00  0.00     0.065 H 
ATOM     99  H   UNL A   1      44.172  22.145  29.963  1.00  0.00     0.065 H 
ATOM    100  C   UNL A   1      43.508  23.227  27.338  1.00  0.00     0.037 A 
ATOM    101  C   UNL A   1      43.792  30.083  27.170  1.00  0.00     0.049 A 
ATOM    102  C   UNL A   1      43.579  24.316  26.363  1.00  0.00     0.074 A 
ATOM    103  C   UNL A   1      42.516  29.672  26.892  1.00  0.00    -0.036 A 
ATOM    104  N   UNL A   1      44.680  29.392  26.389  1.00  0.00    -0.354 N 
ATOM    105  N   UNL A   1      44.689  24.775  25.873  1.00  0.00    -0.248 NA
ATOM    106  C   UNL A   1      42.336  24.941  25.898  1.00  0.00    -0.034 C 
ATOM    107  C   UNL A   1      42.717  28.401  26.323  1.00  0.00    -0.036 A 
ATOM    108  H   UNL A   1      41.628  30.171  27.057  1.00  0.00     0.065 H 
ATOM    109  C   UNL A   1      44.077  28.213  26.053  1.00  0.00     0.049 A 
ATOM    110  H   UNL A   1      45.580  29.687  26.122  1.00  0.00     0.167 HD
ATOM    111  C   UNL A   1      44.276  25.966  25.337  1.00  0.00     0.074 A 
ATOM    112  C   UNL A   1      42.861  25.839  25.069  1.00  0.00    -0.034 C 
ATOM    113  H   UNL A   1      41.352  24.744  26.141  1.00  0.00     0.065 H 
ATOM    114  H   UNL A   1      41.973  27.712  26.133  1.00  0.00     0.065 H 
ATOM    115  C   UNL A   1      44.920  27.096  25.718  1.00  0.00     0.037 A 
ATOM    116  H   UNL A   1      42.340  26.363  24.347  1.00  0.00     0.065 H 
BRANCH  97 117
ATOM    117  C   UNL A   1      45.075  32.072  27.948  1.00  0.00     0.064 A 
ATOM    118  C   UNL A   1      44.303  33.242  27.720  1.00  0.00     0.173 A 
ATOM    119  C   UNL A   1      46.388  32.097  27.459  1.00  0.00     0.173 A 
ATOM    120  F   UNL A   1      43.053  33.346  28.199  1.00  0.00    -0.203 F 
ATOM    121  C   UNL A   1      44.750  34.272  26.898  1.00  0.00     0.198 A 
ATOM    122  C   UNL A   1      46.852  33.163  26.683  1.00  0.00     0.198 A 
ATOM    123  F   UNL A   1      47.213  31.056  27.619  1.00  0.00    -0.203 F 
ATOM    124  F   UNL A   1      43.917  35.269  26.562  1.00  0.00    -0.200 F 
ATOM    125  C   UNL A   1      46.019  34.221  26.359  1.00  0.00     0.200 A 
ATOM    126  F   UNL A   1      48.091  33.116  26.173  1.00  0.00    -0.200 F 
ATOM    127  F   UNL A   1      46.425  35.164  25.498  1.00  0.00    -0.200 F 
ENDBRANCH  97 117
BRANCH 100 128
ATOM    128  C   UNL A   1      43.075  21.892  26.720  1.00  0.00     0.064 A 
ATOM    129  C   UNL A   1      43.804  21.121  25.811  1.00  0.00     0.173 A 
ATOM    130  C   UNL A   1      41.854  21.264  27.141  1.00  0.00     0.173 A 
ATOM    131  F   UNL A   1      44.899  21.613  25.222  1.00  0.00    -0.203 F 
ATOM    132  C   UNL A   1      43.415  19.804  25.462  1.00  0.00     0.198 A 
ATOM    133  C   UNL A   1      41.504  19.944  26.852  1.00  0.00     0.198 A 
ATOM    134  F   UNL A   1      40.929  21.913  27.859  1.00  0.00    -0.203 F 
ATOM    135  F   UNL A   1      44.147  19.104  24.583  1.00  0.00    -0.200 F 
ATOM    136  C   UNL A   1      42.299  19.201  26.022  1.00  0.00     0.200 A 
ATOM    137  F   UNL A   1      40.403  19.409  27.404  1.00  0.00    -0.200 F 
ATOM    138  F   UNL A   1      41.983  17.927  25.751  1.00  0.00    -0.200 F 
ENDBRANCH 100 128
BRANCH 115 139
ATOM    139  C   UNL A   1      46.359  26.872  26.144  1.00  0.00     0.064 A 
ATOM    140  C   UNL A   1      47.311  26.487  25.185  1.00  0.00     0.173 A 
ATOM    141  C   UNL A   1      46.804  26.891  27.478  1.00  0.00     0.173 A 
ATOM    142  F   UNL A   1      46.977  26.464  23.886  1.00  0.00    -0.203 F 
ATOM    143  C   UNL A   1      48.611  26.121  25.542  1.00  0.00     0.198 A 
ATOM    144  C   UNL A   1      48.105  26.527  27.838  1.00  0.00     0.198 A 
ATOM    145  F   UNL A   1      45.988  27.261  28.463  1.00  0.00    -0.203 F 
ATOM    146  F   UNL A   1      49.485  25.755  24.593  1.00  0.00    -0.200 F 
ATOM    147  C   UNL A   1      49.008  26.135  26.868  1.00  0.00     0.200 A 
ATOM    148  F   UNL A   1      48.482  26.565  29.126  1.00  0.00    -0.200 F 
ATOM    149  F   UNL A   1      50.258  25.792  27.209  1.00  0.00    -0.200 F 
ENDBRANCH 115 139
ENDBRANCH  80  83
ENDBRANCH  70  73
ENDBRANCH  66  69
ENDBRANCH  63  66
ENDBRANCH  60  63
ENDBRANCH  57  60
ENDBRANCH  54  57
ENDBRANCH   1  54
TORSDOF 21
ENDMDL
MODEL 8
REMARK VINA RESULT:     -11.4      5.484     11.407
REMARK SMILES CN(C)S(=O)(=O)c1ccc(-n2c(CCC(=O)NCCCCCCNC(=O)c3ccc(-c4c5nc(c(-c6c(F)c(F)c(F)c(F)c6F)c6ccc([nH]6)c(-c6c(F)c(F)c(F)c(F)c6F)c6nc(c(-c7c(F)c(F)c(F)c(F)c7F)c7ccc4[nH]7)C=C6)C=C5)cc3)ccc2-c2ccc(F)cc2)cc1
REMARK SMILES IDX 18 1 17 4 15 5 16 6 14 8 13 11 12 14 11 15 92 16 90 17 91 18
REMARK SMILES IDX 10 21 7 22 8 23 101 24 9 25 100 27 4 31 5 32 6 33 2 34 1 35
REMARK SMILES IDX 3 39 93 43 94 44 99 45 95 46 98 48 96 50 97 53 19 54 20 57
REMARK SMILES IDX 21 60 22 63 23 66 24 69 25 70 26 72 27 73 28 74 89 75 29 76
REMARK SMILES IDX 88 78 30 80 31 83 32 84 82 85 33 86 87 87 81 88 83 89 34 90
REMARK SMILES IDX 86 91 80 93 79 95 35 97 67 100 47 101 66 102 48 103 51 104
REMARK SMILES IDX 65 105 84 106 49 107 50 109 64 111 85 112 52 115 36 117
REMARK SMILES IDX 37 118 45 119 38 120 39 121 43 122 46 123 40 124 41 125
REMARK SMILES IDX 44 126 42 127 68 128 69 129 77 130 70 131 71 132 75 133
REMARK SMILES IDX 78 134 72 135 73 136 76 137 74 138 53 139 54 140 62 141
REMARK SMILES IDX 55 142 56 143 60 144 63 145 57 146 58 147 61 148 59 149
REMARK H PARENT 18 2 18 3 17 7 14 9 14 10 13 12 13 13 90 19 91 20 8 26 101 28
REMARK H PARENT 9 29 100 30 1 36 1 37 1 38 3 40 3 41 3 42 94 47 99 49 95 51
REMARK H PARENT 98 52 19 55 19 56 20 58 20 59 21 61 21 62 22 64 22 65 23 67
REMARK H PARENT 23 68 24 71 28 77 89 79 29 81 88 82 87 92 81 94 83 96 86 98
REMARK H PARENT 80 99 48 108 51 110 84 113 49 114 85 116
REMARK Flexibility Score: inf
ROOT
ATOM      1  C   UNL A   1      41.202  34.226  33.478  1.00  0.00     0.017 C 
ATOM      2  H   UNL A   1      41.364  34.549  32.471  1.00  0.00     0.049 H 
ATOM      3  H   UNL A   1      40.510  33.411  33.525  1.00  0.00     0.049 H 
ENDROOT
BRANCH   1   4
ATOM      4  N   UNL A   1      40.632  35.331  34.236  1.00  0.00    -0.356 N 
ATOM      5  C   UNL A   1      40.061  35.359  35.475  1.00  0.00     0.220 C 
ATOM      6  O   UNL A   1      39.707  36.453  35.923  1.00  0.00    -0.275 OA
ATOM      7  H   UNL A   1      40.663  36.201  33.779  1.00  0.00     0.163 HD
BRANCH   5   8
ATOM      8  C   UNL A   1      39.836  34.095  36.287  1.00  0.00     0.032 C 
ATOM      9  H   UNL A   1      40.737  33.520  36.256  1.00  0.00     0.037 H 
ATOM     10  H   UNL A   1      39.560  34.427  37.266  1.00  0.00     0.037 H 
BRANCH   8  11
ATOM     11  C   UNL A   1      38.682  33.187  35.819  1.00  0.00    -0.003 C 
ATOM     12  H   UNL A   1      38.093  32.928  36.674  1.00  0.00     0.034 H 
ATOM     13  H   UNL A   1      38.136  33.744  35.087  1.00  0.00     0.034 H 
BRANCH  11  14
ATOM     14  C   UNL A   1      39.122  31.908  35.145  1.00  0.00     0.024 A 
ATOM     15  N   UNL A   1      38.673  31.351  33.923  1.00  0.00    -0.314 N 
ATOM     16  C   UNL A   1      39.389  30.124  33.752  1.00  0.00     0.053 A 
ATOM     17  C   UNL A   1      40.040  31.035  35.708  1.00  0.00    -0.040 A 
ATOM     18  C   UNL A   1      40.200  29.936  34.855  1.00  0.00    -0.036 A 
ATOM     19  H   UNL A   1      40.526  31.173  36.607  1.00  0.00     0.064 H 
ATOM     20  H   UNL A   1      40.817  29.126  35.023  1.00  0.00     0.065 H 
BRANCH  15  21
ATOM     21  C   UNL A   1      37.821  31.964  32.909  1.00  0.00     0.046 A 
ATOM     22  C   UNL A   1      36.218  32.551  30.657  1.00  0.00     0.082 A 
ATOM     23  C   UNL A   1      35.649  31.990  31.792  1.00  0.00    -0.040 A 
ATOM     24  C   UNL A   1      37.559  32.895  30.659  1.00  0.00    -0.040 A 
ATOM     25  C   UNL A   1      36.431  31.794  32.931  1.00  0.00    -0.037 A 
ATOM     26  H   UNL A   1      34.654  31.718  31.793  1.00  0.00     0.064 H 
ATOM     27  C   UNL A   1      38.342  32.600  31.781  1.00  0.00    -0.037 A 
ATOM     28  H   UNL A   1      37.977  33.364  29.842  1.00  0.00     0.064 H 
ATOM     29  H   UNL A   1      35.974  31.516  33.813  1.00  0.00     0.065 H 
ATOM     30  H   UNL A   1      39.340  32.863  31.774  1.00  0.00     0.065 H 
BRANCH  22  31
ATOM     31  S   UNL A   1      35.235  32.813  29.211  1.00  0.00     0.242 S 
ATOM     32  O   UNL A   1      36.070  33.434  28.209  1.00  0.00    -0.207 OA
ATOM     33  O   UNL A   1      33.991  33.432  29.629  1.00  0.00    -0.207 OA
BRANCH  31  34
ATOM     34  N   UNL A   1      34.886  31.212  28.717  1.00  0.00    -0.204 NA
BRANCH  34  35
ATOM     35  C   UNL A   1      33.909  31.146  27.613  1.00  0.00     0.002 C 
ATOM     36  H   UNL A   1      33.057  30.578  27.923  1.00  0.00     0.041 H 
ATOM     37  H   UNL A   1      34.361  30.677  26.764  1.00  0.00     0.041 H 
ATOM     38  H   UNL A   1      33.600  32.137  27.351  1.00  0.00     0.041 H 
ENDBRANCH  34  35
BRANCH  34  39
ATOM     39  C   UNL A   1      36.061  30.345  28.475  1.00  0.00     0.002 C 
ATOM     40  H   UNL A   1      35.740  29.330  28.368  1.00  0.00     0.041 H 
ATOM     41  H   UNL A   1      36.736  30.421  29.302  1.00  0.00     0.041 H 
ATOM     42  H   UNL A   1      36.558  30.659  27.580  1.00  0.00     0.041 H 
ENDBRANCH  34  39
ENDBRANCH  31  34
ENDBRANCH  22  31
ENDBRANCH  15  21
BRANCH  16  43
ATOM     43  C   UNL A   1      39.463  29.335  32.508  1.00  0.00    -0.001 A 
ATOM     44  C   UNL A   1      38.520  28.364  32.164  1.00  0.00    -0.050 A 
ATOM     45  C   UNL A   1      40.461  29.646  31.577  1.00  0.00    -0.050 A 
ATOM     46  C   UNL A   1      38.534  27.811  30.873  1.00  0.00    -0.026 A 
ATOM     47  H   UNL A   1      37.817  28.055  32.855  1.00  0.00     0.063 H 
ATOM     48  C   UNL A   1      40.482  29.111  30.293  1.00  0.00    -0.026 A 
ATOM     49  H   UNL A   1      41.211  30.298  31.854  1.00  0.00     0.063 H 
ATOM     50  C   UNL A   1      39.500  28.203  29.945  1.00  0.00     0.123 A 
ATOM     51  H   UNL A   1      37.824  27.109  30.609  1.00  0.00     0.065 H 
ATOM     52  H   UNL A   1      41.213  29.384  29.618  1.00  0.00     0.065 H 
ATOM     53  F   UNL A   1      39.532  27.638  28.732  1.00  0.00    -0.207 F 
ENDBRANCH  16  43
ENDBRANCH  11  14
ENDBRANCH   8  11
ENDBRANCH   5   8
ENDBRANCH   1   4
BRANCH   1  54
ATOM     54  C   UNL A   1      42.530  33.735  34.054  1.00  0.00    -0.036 C 
ATOM     55  H   UNL A   1      42.484  33.854  35.117  1.00  0.00     0.028 H 
ATOM     56  H   UNL A   1      43.280  34.323  33.568  1.00  0.00     0.028 H 
BRANCH  54  57
ATOM     57  C   UNL A   1      42.916  32.278  33.767  1.00  0.00    -0.052 C 
ATOM     58  H   UNL A   1      43.222  32.235  32.743  1.00  0.00     0.027 H 
ATOM     59  H   UNL A   1      42.038  31.731  34.040  1.00  0.00     0.027 H 
BRANCH  57  60
ATOM     60  C   UNL A   1      44.038  31.594  34.601  1.00  0.00    -0.052 C 
ATOM     61  H   UNL A   1      44.890  32.237  34.529  1.00  0.00     0.027 H 
ATOM     62  H   UNL A   1      44.062  30.619  34.163  1.00  0.00     0.027 H 
BRANCH  60  63
ATOM     63  C   UNL A   1      43.887  31.254  36.104  1.00  0.00    -0.036 C 
ATOM     64  H   UNL A   1      43.025  30.626  36.190  1.00  0.00     0.028 H 
ATOM     65  H   UNL A   1      43.854  32.220  36.564  1.00  0.00     0.028 H 
BRANCH  63  66
ATOM     66  C   UNL A   1      45.035  30.543  36.878  1.00  0.00     0.018 C 
ATOM     67  H   UNL A   1      45.262  31.121  37.749  1.00  0.00     0.049 H 
ATOM     68  H   UNL A   1      45.864  30.470  36.205  1.00  0.00     0.049 H 
BRANCH  66  69
ATOM     69  N   UNL A   1      44.712  29.183  37.301  1.00  0.00    -0.352 N 
ATOM     70  C   UNL A   1      44.150  28.094  36.663  1.00  0.00     0.251 C 
ATOM     71  H   UNL A   1      44.942  29.005  38.241  1.00  0.00     0.163 HD
ATOM     72  O   UNL A   1      43.597  27.268  37.398  1.00  0.00    -0.269 OA
BRANCH  70  73
ATOM     73  C   UNL A   1      44.184  27.783  35.195  1.00  0.00     0.039 A 
ATOM     74  C   UNL A   1      42.955  27.646  34.516  1.00  0.00    -0.049 A 
ATOM     75  C   UNL A   1      45.335  27.466  34.484  1.00  0.00    -0.049 A 
ATOM     76  C   UNL A   1      42.887  27.220  33.175  1.00  0.00    -0.053 A 
ATOM     77  H   UNL A   1      42.079  27.865  35.016  1.00  0.00     0.063 H 
ATOM     78  C   UNL A   1      45.272  26.954  33.167  1.00  0.00    -0.053 A 
ATOM     79  H   UNL A   1      46.256  27.606  34.928  1.00  0.00     0.063 H 
ATOM     80  C   UNL A   1      44.052  26.874  32.482  1.00  0.00    -0.014 A 
ATOM     81  H   UNL A   1      41.972  27.162  32.700  1.00  0.00     0.063 H 
ATOM     82  H   UNL A   1      46.139  26.636  32.704  1.00  0.00     0.063 H 
BRANCH  80  83
ATOM     83  C   UNL A   1      44.035  26.867  30.977  1.00  0.00     0.031 A 
ATOM     84  C   UNL A   1      44.048  28.339  30.442  1.00  0.00     0.074 A 
ATOM     85  C   UNL A   1      43.995  25.678  30.279  1.00  0.00     0.049 A 
ATOM     86  N   UNL A   1      43.745  28.817  29.272  1.00  0.00    -0.248 NA
ATOM     87  C   UNL A   1      44.432  29.454  31.361  1.00  0.00    -0.034 C 
ATOM     88  C   UNL A   1      44.065  24.331  30.887  1.00  0.00    -0.036 A 
ATOM     89  N   UNL A   1      43.892  25.343  28.927  1.00  0.00    -0.354 N 
ATOM     90  C   UNL A   1      44.108  30.189  29.258  1.00  0.00     0.074 A 
ATOM     91  C   UNL A   1      44.431  30.543  30.598  1.00  0.00    -0.034 C 
ATOM     92  H   UNL A   1      44.651  29.392  32.368  1.00  0.00     0.065 H 
ATOM     93  C   UNL A   1      43.912  23.357  29.954  1.00  0.00    -0.036 A 
ATOM     94  H   UNL A   1      44.211  24.154  31.893  1.00  0.00     0.065 H 
ATOM     95  C   UNL A   1      43.750  23.945  28.636  1.00  0.00     0.049 A 
ATOM     96  H   UNL A   1      43.914  26.024  28.216  1.00  0.00     0.167 HD
ATOM     97  C   UNL A   1      44.263  30.917  28.115  1.00  0.00     0.037 A 
ATOM     98  H   UNL A   1      44.633  31.500  30.927  1.00  0.00     0.065 H 
ATOM     99  H   UNL A   1      43.910  22.344  30.153  1.00  0.00     0.065 H 
ATOM    100  C   UNL A   1      43.496  23.314  27.435  1.00  0.00     0.037 A 
ATOM    101  C   UNL A   1      43.819  30.156  27.005  1.00  0.00     0.049 A 
ATOM    102  C   UNL A   1      43.662  24.360  26.426  1.00  0.00     0.074 A 
ATOM    103  C   UNL A   1      42.573  29.733  26.628  1.00  0.00    -0.036 A 
ATOM    104  N   UNL A   1      44.773  29.433  26.339  1.00  0.00    -0.354 N 
ATOM    105  N   UNL A   1      44.814  24.799  26.022  1.00  0.00    -0.248 NA
ATOM    106  C   UNL A   1      42.469  24.965  25.821  1.00  0.00    -0.034 C 
ATOM    107  C   UNL A   1      42.821  28.440  26.134  1.00  0.00    -0.036 A 
ATOM    108  H   UNL A   1      41.676  30.239  26.689  1.00  0.00     0.065 H 
ATOM    109  C   UNL A   1      44.200  28.241  25.999  1.00  0.00     0.049 A 
ATOM    110  H   UNL A   1      45.695  29.718  26.145  1.00  0.00     0.167 HD
ATOM    111  C   UNL A   1      44.457  25.966  25.400  1.00  0.00     0.074 A 
ATOM    112  C   UNL A   1      43.072  25.828  25.007  1.00  0.00    -0.034 C 
ATOM    113  H   UNL A   1      41.466  24.778  25.980  1.00  0.00     0.065 H 
ATOM    114  H   UNL A   1      42.096  27.743  25.904  1.00  0.00     0.065 H 
ATOM    115  C   UNL A   1      45.066  27.111  25.791  1.00  0.00     0.037 A 
ATOM    116  H   UNL A   1      42.622  26.320  24.219  1.00  0.00     0.065 H 
BRANCH  97 117
ATOM    117  C   UNL A   1      45.032  32.178  27.815  1.00  0.00     0.064 A 
ATOM    118  C   UNL A   1      44.286  33.357  27.551  1.00  0.00     0.173 A 
ATOM    119  C   UNL A   1      46.361  32.178  27.372  1.00  0.00     0.173 A 
ATOM    120  F   UNL A   1      43.022  33.484  27.984  1.00  0.00    -0.203 F 
ATOM    121  C   UNL A   1      44.779  34.374  26.737  1.00  0.00     0.198 A 
ATOM    122  C   UNL A   1      46.869  33.231  26.605  1.00  0.00     0.198 A 
ATOM    123  F   UNL A   1      47.163  31.126  27.569  1.00  0.00    -0.203 F 
ATOM    124  F   UNL A   1      43.973  35.380  26.364  1.00  0.00    -0.200 F 
ATOM    125  C   UNL A   1      46.065  34.298  26.243  1.00  0.00     0.200 A 
ATOM    126  F   UNL A   1      48.124  33.160  26.140  1.00  0.00    -0.200 F 
ATOM    127  F   UNL A   1      46.515  35.228  25.390  1.00  0.00    -0.200 F 
ENDBRANCH  97 117
BRANCH 100 128
ATOM    128  C   UNL A   1      43.118  21.954  26.836  1.00  0.00     0.064 A 
ATOM    129  C   UNL A   1      43.806  21.267  25.832  1.00  0.00     0.173 A 
ATOM    130  C   UNL A   1      42.014  21.209  27.375  1.00  0.00     0.173 A 
ATOM    131  F   UNL A   1      44.777  21.866  25.136  1.00  0.00    -0.203 F 
ATOM    132  C   UNL A   1      43.499  19.924  25.495  1.00  0.00     0.198 A 
ATOM    133  C   UNL A   1      41.755  19.867  27.094  1.00  0.00     0.198 A 
ATOM    134  F   UNL A   1      41.123  21.759  28.209  1.00  0.00    -0.203 F 
ATOM    135  F   UNL A   1      44.186  19.308  24.523  1.00  0.00    -0.200 F 
ATOM    136  C   UNL A   1      42.513  19.213  26.162  1.00  0.00     0.200 A 
ATOM    137  F   UNL A   1      40.777  19.224  27.753  1.00  0.00    -0.200 F 
ATOM    138  F   UNL A   1      42.284  17.919  25.897  1.00  0.00    -0.200 F 
ENDBRANCH 100 128
BRANCH 115 139
ATOM    139  C   UNL A   1      46.459  26.906  26.358  1.00  0.00     0.064 A 
ATOM    140  C   UNL A   1      47.477  26.409  25.526  1.00  0.00     0.173 A 
ATOM    141  C   UNL A   1      46.792  27.053  27.716  1.00  0.00     0.173 A 
ATOM    142  F   UNL A   1      47.250  26.259  24.213  1.00  0.00    -0.203 F 
ATOM    143  C   UNL A   1      48.732  26.057  26.027  1.00  0.00     0.198 A 
ATOM    144  C   UNL A   1      48.050  26.704  28.219  1.00  0.00     0.198 A 
ATOM    145  F   UNL A   1      45.908  27.536  28.586  1.00  0.00    -0.203 F 
ATOM    146  F   UNL A   1      49.671  25.580  25.197  1.00  0.00    -0.200 F 
ATOM    147  C   UNL A   1      49.018  26.200  27.374  1.00  0.00     0.200 A 
ATOM    148  F   UNL A   1      48.319  26.866  29.525  1.00  0.00    -0.200 F 
ATOM    149  F   UNL A   1      50.227  25.871  27.852  1.00  0.00    -0.200 F 
ENDBRANCH 115 139
ENDBRANCH  80  83
ENDBRANCH  70  73
ENDBRANCH  66  69
ENDBRANCH  63  66
ENDBRANCH  60  63
ENDBRANCH  57  60
ENDBRANCH  54  57
ENDBRANCH   1  54
TORSDOF 21
ENDMDL
MODEL 9
REMARK VINA RESULT:     -11.3      3.983      9.055
REMARK SMILES CN(C)S(=O)(=O)c1ccc(-n2c(CCC(=O)NCCCCCCNC(=O)c3ccc(-c4c5nc(c(-c6c(F)c(F)c(F)c(F)c6F)c6ccc([nH]6)c(-c6c(F)c(F)c(F)c(F)c6F)c6nc(c(-c7c(F)c(F)c(F)c(F)c7F)c7ccc4[nH]7)C=C6)C=C5)cc3)ccc2-c2ccc(F)cc2)cc1
REMARK SMILES IDX 18 1 17 4 15 5 16 6 14 8 13 11 12 14 11 15 92 16 90 17 91 18
REMARK SMILES IDX 10 21 7 22 8 23 101 24 9 25 100 27 4 31 5 32 6 33 2 34 1 35
REMARK SMILES IDX 3 39 93 43 94 44 99 45 95 46 98 48 96 50 97 53 19 54 20 57
REMARK SMILES IDX 21 60 22 63 23 66 24 69 25 70 26 72 27 73 28 74 89 75 29 76
REMARK SMILES IDX 88 78 30 80 31 83 32 84 82 85 33 86 87 87 81 88 83 89 34 90
REMARK SMILES IDX 86 91 80 93 79 95 35 97 67 100 47 101 66 102 48 103 51 104
REMARK SMILES IDX 65 105 84 106 49 107 50 109 64 111 85 112 52 115 36 117
REMARK SMILES IDX 37 118 45 119 38 120 39 121 43 122 46 123 40 124 41 125
REMARK SMILES IDX 44 126 42 127 68 128 69 129 77 130 70 131 71 132 75 133
REMARK SMILES IDX 78 134 72 135 73 136 76 137 74 138 53 139 54 140 62 141
REMARK SMILES IDX 55 142 56 143 60 144 63 145 57 146 58 147 61 148 59 149
REMARK H PARENT 18 2 18 3 17 7 14 9 14 10 13 12 13 13 90 19 91 20 8 26 101 28
REMARK H PARENT 9 29 100 30 1 36 1 37 1 38 3 40 3 41 3 42 94 47 99 49 95 51
REMARK H PARENT 98 52 19 55 19 56 20 58 20 59 21 61 21 62 22 64 22 65 23 67
REMARK H PARENT 23 68 24 71 28 77 89 79 29 81 88 82 87 92 81 94 83 96 86 98
REMARK H PARENT 80 99 48 108 51 110 84 113 49 114 85 116
REMARK Flexibility Score: inf
ROOT
ATOM      1  C   UNL A   1      33.543  20.387  25.586  1.00  0.00     0.017 C 
ATOM      2  H   UNL A   1      33.683  19.385  25.936  1.00  0.00     0.049 H 
ATOM      3  H   UNL A   1      32.823  20.915  26.175  1.00  0.00     0.049 H 
ENDROOT
BRANCH   1   4
ATOM      4  N   UNL A   1      33.043  20.338  24.219  1.00  0.00    -0.356 N 
ATOM      5  C   UNL A   1      32.280  21.227  23.520  1.00  0.00     0.220 C 
ATOM      6  O   UNL A   1      32.040  20.973  22.335  1.00  0.00    -0.275 OA
ATOM      7  H   UNL A   1      33.296  19.530  23.718  1.00  0.00     0.163 HD
BRANCH   5   8
ATOM      8  C   UNL A   1      31.712  22.481  24.161  1.00  0.00     0.032 C 
ATOM      9  H   UNL A   1      30.650  22.369  24.215  1.00  0.00     0.037 H 
ATOM     10  H   UNL A   1      32.194  22.561  25.113  1.00  0.00     0.037 H 
BRANCH   8  11
ATOM     11  C   UNL A   1      32.009  23.806  23.434  1.00  0.00    -0.003 C 
ATOM     12  H   UNL A   1      32.688  23.603  22.633  1.00  0.00     0.034 H 
ATOM     13  H   UNL A   1      31.067  24.187  23.100  1.00  0.00     0.034 H 
BRANCH  11  14
ATOM     14  C   UNL A   1      32.619  24.879  24.307  1.00  0.00     0.024 A 
ATOM     15  N   UNL A   1      32.366  26.272  24.306  1.00  0.00    -0.314 N 
ATOM     16  C   UNL A   1      33.219  26.837  25.306  1.00  0.00     0.053 A 
ATOM     17  C   UNL A   1      33.612  24.619  25.239  1.00  0.00    -0.040 A 
ATOM     18  C   UNL A   1      33.985  25.822  25.850  1.00  0.00    -0.036 A 
ATOM     19  H   UNL A   1      34.010  23.691  25.450  1.00  0.00     0.064 H 
ATOM     20  H   UNL A   1      34.707  25.933  26.578  1.00  0.00     0.065 H 
BRANCH  15  21
ATOM     21  C   UNL A   1      31.313  26.999  23.605  1.00  0.00     0.046 A 
ATOM     22  C   UNL A   1      29.353  28.844  22.745  1.00  0.00     0.082 A 
ATOM     23  C   UNL A   1      30.677  29.002  22.361  1.00  0.00    -0.040 A 
ATOM     24  C   UNL A   1      28.981  27.735  23.486  1.00  0.00    -0.040 A 
ATOM     25  C   UNL A   1      31.618  28.034  22.712  1.00  0.00    -0.037 A 
ATOM     26  H   UNL A   1      30.965  29.833  21.821  1.00  0.00     0.064 H 
ATOM     27  C   UNL A   1      29.960  26.828  23.904  1.00  0.00    -0.037 A 
ATOM     28  H   UNL A   1      27.991  27.579  23.727  1.00  0.00     0.064 H 
ATOM     29  H   UNL A   1      32.564  28.080  22.302  1.00  0.00     0.065 H 
ATOM     30  H   UNL A   1      29.673  26.003  24.454  1.00  0.00     0.065 H 
BRANCH  22  31
ATOM     31  S   UNL A   1      28.150  30.060  22.298  1.00  0.00     0.242 S 
ATOM     32  O   UNL A   1      27.032  29.936  23.205  1.00  0.00    -0.207 OA
ATOM     33  O   UNL A   1      27.954  29.981  20.863  1.00  0.00    -0.207 OA
BRANCH  31  34
ATOM     34  N   UNL A   1      28.971  31.522  22.638  1.00  0.00    -0.204 NA
BRANCH  34  35
ATOM     35  C   UNL A   1      28.399  32.686  21.936  1.00  0.00     0.002 C 
ATOM     36  H   UNL A   1      27.422  32.441  21.575  1.00  0.00     0.041 H 
ATOM     37  H   UNL A   1      29.027  32.952  21.113  1.00  0.00     0.041 H 
ATOM     38  H   UNL A   1      28.330  33.512  22.614  1.00  0.00     0.041 H 
ENDBRANCH  34  35
BRANCH  34  39
ATOM     39  C   UNL A   1      29.218  31.801  24.071  1.00  0.00     0.002 C 
ATOM     40  H   UNL A   1      30.206  32.192  24.194  1.00  0.00     0.041 H 
ATOM     41  H   UNL A   1      29.122  30.894  24.632  1.00  0.00     0.041 H 
ATOM     42  H   UNL A   1      28.504  32.516  24.423  1.00  0.00     0.041 H 
ENDBRANCH  34  39
ENDBRANCH  31  34
ENDBRANCH  22  31
ENDBRANCH  15  21
BRANCH  16  43
ATOM     43  C   UNL A   1      33.116  28.201  25.857  1.00  0.00    -0.001 A 
ATOM     44  C   UNL A   1      31.896  28.814  26.151  1.00  0.00    -0.050 A 
ATOM     45  C   UNL A   1      34.293  28.873  26.204  1.00  0.00    -0.050 A 
ATOM     46  C   UNL A   1      31.882  30.020  26.871  1.00  0.00    -0.026 A 
ATOM     47  H   UNL A   1      31.010  28.384  25.841  1.00  0.00     0.063 H 
ATOM     48  C   UNL A   1      34.293  30.064  26.924  1.00  0.00    -0.026 A 
ATOM     49  H   UNL A   1      35.199  28.469  25.915  1.00  0.00     0.063 H 
ATOM     50  C   UNL A   1      33.078  30.622  27.268  1.00  0.00     0.123 A 
ATOM     51  H   UNL A   1      30.981  30.464  27.110  1.00  0.00     0.065 H 
ATOM     52  H   UNL A   1      35.180  30.519  27.193  1.00  0.00     0.065 H 
ATOM     53  F   UNL A   1      33.055  31.793  27.915  1.00  0.00    -0.207 F 
ENDBRANCH  16  43
ENDBRANCH  11  14
ENDBRANCH   8  11
ENDBRANCH   5   8
ENDBRANCH   1   4
BRANCH   1  54
ATOM     54  C   UNL A   1      34.871  21.134  25.703  1.00  0.00    -0.036 C 
ATOM     55  H   UNL A   1      35.579  20.468  26.153  1.00  0.00     0.028 H 
ATOM     56  H   UNL A   1      34.651  22.009  26.278  1.00  0.00     0.028 H 
BRANCH  54  57
ATOM     57  C   UNL A   1      35.492  21.658  24.401  1.00  0.00    -0.052 C 
ATOM     58  H   UNL A   1      34.955  22.545  24.138  1.00  0.00     0.027 H 
ATOM     59  H   UNL A   1      35.414  20.822  23.737  1.00  0.00     0.027 H 
BRANCH  57  60
ATOM     60  C   UNL A   1      37.004  22.016  24.351  1.00  0.00    -0.052 C 
ATOM     61  H   UNL A   1      37.077  23.031  24.680  1.00  0.00     0.027 H 
ATOM     62  H   UNL A   1      37.250  21.759  23.342  1.00  0.00     0.027 H 
BRANCH  60  63
ATOM     63  C   UNL A   1      38.085  21.235  25.139  1.00  0.00    -0.036 C 
ATOM     64  H   UNL A   1      38.699  20.745  24.413  1.00  0.00     0.028 H 
ATOM     65  H   UNL A   1      37.504  20.627  25.800  1.00  0.00     0.028 H 
BRANCH  63  66
ATOM     66  C   UNL A   1      39.051  21.974  26.111  1.00  0.00     0.018 C 
ATOM     67  H   UNL A   1      38.809  21.681  27.112  1.00  0.00     0.049 H 
ATOM     68  H   UNL A   1      38.914  23.023  25.946  1.00  0.00     0.049 H 
BRANCH  66  69
ATOM     69  N   UNL A   1      40.463  21.689  25.877  1.00  0.00    -0.352 N 
ATOM     70  C   UNL A   1      41.617  22.444  25.966  1.00  0.00     0.251 C 
ATOM     71  H   UNL A   1      40.629  20.761  25.594  1.00  0.00     0.163 HD
ATOM     72  O   UNL A   1      42.565  22.059  25.273  1.00  0.00    -0.269 OA
BRANCH  70  73
ATOM     73  C   UNL A   1      41.856  23.638  26.844  1.00  0.00     0.039 A 
ATOM     74  C   UNL A   1      42.346  24.817  26.243  1.00  0.00    -0.049 A 
ATOM     75  C   UNL A   1      41.778  23.623  28.231  1.00  0.00    -0.049 A 
ATOM     76  C   UNL A   1      42.729  25.938  27.005  1.00  0.00    -0.053 A 
ATOM     77  H   UNL A   1      42.424  24.860  25.215  1.00  0.00     0.063 H 
ATOM     78  C   UNL A   1      42.243  24.709  29.008  1.00  0.00    -0.053 A 
ATOM     79  H   UNL A   1      41.374  22.800  28.705  1.00  0.00     0.063 H 
ATOM     80  C   UNL A   1      42.675  25.897  28.402  1.00  0.00    -0.014 A 
ATOM     81  H   UNL A   1      43.053  26.795  26.529  1.00  0.00     0.063 H 
ATOM     82  H   UNL A   1      42.262  24.626  30.038  1.00  0.00     0.063 H 
BRANCH  80  83
ATOM     83  C   UNL A   1      42.641  27.190  29.173  1.00  0.00     0.031 A 
ATOM     84  C   UNL A   1      43.990  27.379  29.945  1.00  0.00     0.074 A 
ATOM     85  C   UNL A   1      41.523  27.998  29.144  1.00  0.00     0.049 A 
ATOM     86  N   UNL A   1      44.293  28.157  30.942  1.00  0.00    -0.248 NA
ATOM     87  C   UNL A   1      45.179  26.556  29.565  1.00  0.00    -0.034 C 
ATOM     88  C   UNL A   1      40.322  27.759  28.313  1.00  0.00    -0.036 A 
ATOM     89  N   UNL A   1      41.156  29.179  29.791  1.00  0.00    -0.354 N 
ATOM     90  C   UNL A   1      45.696  28.080  31.139  1.00  0.00     0.074 A 
ATOM     91  C   UNL A   1      46.168  27.008  30.331  1.00  0.00    -0.034 C 
ATOM     92  H   UNL A   1      45.223  25.801  28.862  1.00  0.00     0.065 H 
ATOM     93  C   UNL A   1      39.354  28.676  28.566  1.00  0.00    -0.036 A 
ATOM     94  H   UNL A   1      40.231  26.993  27.628  1.00  0.00     0.065 H 
ATOM     95  C   UNL A   1      39.812  29.627  29.564  1.00  0.00     0.049 A 
ATOM     96  H   UNL A   1      41.780  29.674  30.370  1.00  0.00     0.167 HD
ATOM     97  C   UNL A   1      46.410  29.002  31.848  1.00  0.00     0.037 A 
ATOM     98  H   UNL A   1      47.131  26.638  30.338  1.00  0.00     0.065 H 
ATOM     99  H   UNL A   1      38.426  28.695  28.115  1.00  0.00     0.065 H 
ATOM    100  C   UNL A   1      39.115  30.664  30.152  1.00  0.00     0.037 A 
ATOM    101  C   UNL A   1      45.520  29.895  32.494  1.00  0.00     0.049 A 
ATOM    102  C   UNL A   1      40.127  31.415  30.895  1.00  0.00     0.074 A 
ATOM    103  C   UNL A   1      44.634  29.716  33.522  1.00  0.00    -0.036 A 
ATOM    104  N   UNL A   1      45.225  31.053  31.825  1.00  0.00    -0.354 N 
ATOM    105  N   UNL A   1      40.980  32.220  30.342  1.00  0.00    -0.248 NA
ATOM    106  C   UNL A   1      40.202  31.263  32.353  1.00  0.00    -0.034 C 
ATOM    107  C   UNL A   1      43.538  30.503  33.126  1.00  0.00    -0.036 A 
ATOM    108  H   UNL A   1      44.744  29.147  34.376  1.00  0.00     0.065 H 
ATOM    109  C   UNL A   1      43.898  31.303  32.036  1.00  0.00     0.049 A 
ATOM    110  H   UNL A   1      45.848  31.599  31.294  1.00  0.00     0.167 HD
ATOM    111  C   UNL A   1      41.902  32.370  31.344  1.00  0.00     0.074 A 
ATOM    112  C   UNL A   1      41.222  32.085  32.588  1.00  0.00    -0.034 C 
ATOM    113  H   UNL A   1      39.636  30.692  33.000  1.00  0.00     0.065 H 
ATOM    114  H   UNL A   1      42.607  30.492  33.572  1.00  0.00     0.065 H 
ATOM    115  C   UNL A   1      43.200  32.101  31.063  1.00  0.00     0.037 A 
ATOM    116  H   UNL A   1      41.485  32.461  33.513  1.00  0.00     0.065 H 
BRANCH  97 117
ATOM    117  C   UNL A   1      47.868  29.383  31.830  1.00  0.00     0.064 A 
ATOM    118  C   UNL A   1      48.571  29.352  33.063  1.00  0.00     0.173 A 
ATOM    119  C   UNL A   1      48.448  30.148  30.810  1.00  0.00     0.173 A 
ATOM    120  F   UNL A   1      48.134  28.603  34.087  1.00  0.00    -0.203 F 
ATOM    121  C   UNL A   1      49.665  30.179  33.309  1.00  0.00     0.198 A 
ATOM    122  C   UNL A   1      49.583  30.930  31.046  1.00  0.00     0.198 A 
ATOM    123  F   UNL A   1      47.880  30.247  29.603  1.00  0.00    -0.203 F 
ATOM    124  F   UNL A   1      50.183  30.251  34.545  1.00  0.00    -0.200 F 
ATOM    125  C   UNL A   1      50.156  30.987  32.305  1.00  0.00     0.200 A 
ATOM    126  F   UNL A   1      50.065  31.703  30.063  1.00  0.00    -0.200 F 
ATOM    127  F   UNL A   1      51.151  31.848  32.558  1.00  0.00    -0.200 F 
ENDBRANCH  97 117
BRANCH 100 128
ATOM    128  C   UNL A   1      37.708  31.260  30.280  1.00  0.00     0.064 A 
ATOM    129  C   UNL A   1      36.912  31.275  31.428  1.00  0.00     0.173 A 
ATOM    130  C   UNL A   1      37.124  31.974  29.178  1.00  0.00     0.173 A 
ATOM    131  F   UNL A   1      37.247  30.552  32.501  1.00  0.00    -0.203 F 
ATOM    132  C   UNL A   1      35.717  32.035  31.504  1.00  0.00     0.198 A 
ATOM    133  C   UNL A   1      35.986  32.776  29.272  1.00  0.00     0.198 A 
ATOM    134  F   UNL A   1      37.637  31.922  27.943  1.00  0.00    -0.203 F 
ATOM    135  F   UNL A   1      34.986  32.015  32.627  1.00  0.00    -0.200 F 
ATOM    136  C   UNL A   1      35.287  32.823  30.447  1.00  0.00     0.200 A 
ATOM    137  F   UNL A   1      35.596  33.508  28.216  1.00  0.00    -0.200 F 
ATOM    138  F   UNL A   1      34.202  33.603  30.554  1.00  0.00    -0.200 F 
ENDBRANCH 100 128
BRANCH 115 139
ATOM    139  C   UNL A   1      43.571  32.304  29.606  1.00  0.00     0.064 A 
ATOM    140  C   UNL A   1      43.524  33.596  29.054  1.00  0.00     0.173 A 
ATOM    141  C   UNL A   1      43.837  31.260  28.702  1.00  0.00     0.173 A 
ATOM    142  F   UNL A   1      43.298  34.652  29.850  1.00  0.00    -0.203 F 
ATOM    143  C   UNL A   1      43.706  33.822  27.688  1.00  0.00     0.198 A 
ATOM    144  C   UNL A   1      44.021  31.483  27.334  1.00  0.00     0.198 A 
ATOM    145  F   UNL A   1      43.923  30.000  29.123  1.00  0.00    -0.203 F 
ATOM    146  F   UNL A   1      43.647  35.071  27.205  1.00  0.00    -0.200 F 
ATOM    147  C   UNL A   1      43.949  32.765  26.826  1.00  0.00     0.200 A 
ATOM    148  F   UNL A   1      44.276  30.452  26.513  1.00  0.00    -0.200 F 
ATOM    149  F   UNL A   1      44.132  32.984  25.516  1.00  0.00    -0.200 F 
ENDBRANCH 115 139
ENDBRANCH  80  83
ENDBRANCH  70  73
ENDBRANCH  66  69
ENDBRANCH  63  66
ENDBRANCH  60  63
ENDBRANCH  57  60
ENDBRANCH  54  57
ENDBRANCH   1  54
TORSDOF 21
ENDMDL
MODEL 10
REMARK VINA RESULT:     -11.1      5.518     11.219
REMARK SMILES CN(C)S(=O)(=O)c1ccc(-n2c(CCC(=O)NCCCCCCNC(=O)c3ccc(-c4c5nc(c(-c6c(F)c(F)c(F)c(F)c6F)c6ccc([nH]6)c(-c6c(F)c(F)c(F)c(F)c6F)c6nc(c(-c7c(F)c(F)c(F)c(F)c7F)c7ccc4[nH]7)C=C6)C=C5)cc3)ccc2-c2ccc(F)cc2)cc1
REMARK SMILES IDX 18 1 17 4 15 5 16 6 14 8 13 11 12 14 11 15 92 16 90 17 91 18
REMARK SMILES IDX 10 21 7 22 8 23 101 24 9 25 100 27 4 31 5 32 6 33 2 34 1 35
REMARK SMILES IDX 3 39 93 43 94 44 99 45 95 46 98 48 96 50 97 53 19 54 20 57
REMARK SMILES IDX 21 60 22 63 23 66 24 69 25 70 26 72 27 73 28 74 89 75 29 76
REMARK SMILES IDX 88 78 30 80 31 83 32 84 82 85 33 86 87 87 81 88 83 89 34 90
REMARK SMILES IDX 86 91 80 93 79 95 35 97 67 100 47 101 66 102 48 103 51 104
REMARK SMILES IDX 65 105 84 106 49 107 50 109 64 111 85 112 52 115 36 117
REMARK SMILES IDX 37 118 45 119 38 120 39 121 43 122 46 123 40 124 41 125
REMARK SMILES IDX 44 126 42 127 68 128 69 129 77 130 70 131 71 132 75 133
REMARK SMILES IDX 78 134 72 135 73 136 76 137 74 138 53 139 54 140 62 141
REMARK SMILES IDX 55 142 56 143 60 144 63 145 57 146 58 147 61 148 59 149
REMARK H PARENT 18 2 18 3 17 7 14 9 14 10 13 12 13 13 90 19 91 20 8 26 101 28
REMARK H PARENT 9 29 100 30 1 36 1 37 1 38 3 40 3 41 3 42 94 47 99 49 95 51
REMARK H PARENT 98 52 19 55 19 56 20 58 20 59 21 61 21 62 22 64 22 65 23 67
REMARK H PARENT 23 68 24 71 28 77 89 79 29 81 88 82 87 92 81 94 83 96 86 98
REMARK H PARENT 80 99 48 108 51 110 84 113 49 114 85 116
REMARK Flexibility Score: inf
ROOT
ATOM      1  C   UNL A   1      46.609  29.789  27.021  1.00  0.00     0.017 C 
ATOM      2  H   UNL A   1      47.263  30.312  26.355  1.00  0.00     0.049 H 
ATOM      3  H   UNL A   1      46.719  28.729  26.933  1.00  0.00     0.049 H 
ENDROOT
BRANCH   1   4
ATOM      4  N   UNL A   1      45.233  30.118  26.674  1.00  0.00    -0.356 N 
ATOM      5  C   UNL A   1      44.077  29.418  26.863  1.00  0.00     0.220 C 
ATOM      6  O   UNL A   1      43.017  29.955  26.528  1.00  0.00    -0.275 OA
ATOM      7  H   UNL A   1      45.118  30.988  26.229  1.00  0.00     0.163 HD
BRANCH   5   8
ATOM      8  C   UNL A   1      44.070  28.014  27.442  1.00  0.00     0.032 C 
ATOM      9  H   UNL A   1      43.726  27.347  26.680  1.00  0.00     0.037 H 
ATOM     10  H   UNL A   1      45.074  27.831  27.764  1.00  0.00     0.037 H 
BRANCH   8  11
ATOM     11  C   UNL A   1      43.191  27.799  28.688  1.00  0.00    -0.003 C 
ATOM     12  H   UNL A   1      43.764  27.259  29.412  1.00  0.00     0.034 H 
ATOM     13  H   UNL A   1      42.900  28.772  29.025  1.00  0.00     0.034 H 
BRANCH  11  14
ATOM     14  C   UNL A   1      41.913  27.033  28.432  1.00  0.00     0.024 A 
ATOM     15  N   UNL A   1      41.710  25.900  27.608  1.00  0.00    -0.314 N 
ATOM     16  C   UNL A   1      40.318  25.581  27.697  1.00  0.00     0.053 A 
ATOM     17  C   UNL A   1      40.689  27.408  28.964  1.00  0.00    -0.040 A 
ATOM     18  C   UNL A   1      39.708  26.520  28.509  1.00  0.00    -0.036 A 
ATOM     19  H   UNL A   1      40.528  28.209  29.593  1.00  0.00     0.064 H 
ATOM     20  H   UNL A   1      38.703  26.559  28.738  1.00  0.00     0.065 H 
BRANCH  15  21
ATOM     21  C   UNL A   1      42.714  25.065  26.955  1.00  0.00     0.046 A 
ATOM     22  C   UNL A   1      44.163  22.999  25.684  1.00  0.00     0.082 A 
ATOM     23  C   UNL A   1      43.404  23.884  24.933  1.00  0.00    -0.040 A 
ATOM     24  C   UNL A   1      44.272  23.179  27.053  1.00  0.00    -0.040 A 
ATOM     25  C   UNL A   1      42.770  24.957  25.561  1.00  0.00    -0.037 A 
ATOM     26  H   UNL A   1      43.307  23.749  23.914  1.00  0.00     0.064 H 
ATOM     27  C   UNL A   1      43.550  24.206  27.670  1.00  0.00    -0.037 A 
ATOM     28  H   UNL A   1      44.879  22.561  27.612  1.00  0.00     0.064 H 
ATOM     29  H   UNL A   1      42.332  25.691  24.982  1.00  0.00     0.065 H 
ATOM     30  H   UNL A   1      43.640  24.334  28.691  1.00  0.00     0.065 H 
BRANCH  22  31
ATOM     31  S   UNL A   1      44.978  21.641  24.898  1.00  0.00     0.242 S 
ATOM     32  O   UNL A   1      46.068  21.221  25.749  1.00  0.00    -0.207 OA
ATOM     33  O   UNL A   1      45.215  22.009  23.515  1.00  0.00    -0.207 OA
BRANCH  31  34
ATOM     34  N   UNL A   1      43.768  20.432  24.922  1.00  0.00    -0.204 NA
BRANCH  34  35
ATOM     35  C   UNL A   1      44.242  19.127  24.423  1.00  0.00     0.002 C 
ATOM     36  H   UNL A   1      45.310  19.088  24.481  1.00  0.00     0.041 H 
ATOM     37  H   UNL A   1      43.936  19.000  23.406  1.00  0.00     0.041 H 
ATOM     38  H   UNL A   1      43.825  18.343  25.022  1.00  0.00     0.041 H 
ENDBRANCH  34  35
BRANCH  34  39
ATOM     39  C   UNL A   1      43.014  20.304  26.189  1.00  0.00     0.002 C 
ATOM     40  H   UNL A   1      42.797  21.278  26.575  1.00  0.00     0.041 H 
ATOM     41  H   UNL A   1      43.602  19.761  26.901  1.00  0.00     0.041 H 
ATOM     42  H   UNL A   1      42.099  19.779  26.008  1.00  0.00     0.041 H 
ENDBRANCH  34  39
ENDBRANCH  31  34
ENDBRANCH  22  31
ENDBRANCH  15  21
BRANCH  16  43
ATOM     43  C   UNL A   1      39.689  24.329  27.237  1.00  0.00    -0.001 A 
ATOM     44  C   UNL A   1      38.504  24.298  26.500  1.00  0.00    -0.050 A 
ATOM     45  C   UNL A   1      40.365  23.123  27.454  1.00  0.00    -0.050 A 
ATOM     46  C   UNL A   1      38.083  23.092  25.915  1.00  0.00    -0.026 A 
ATOM     47  H   UNL A   1      37.940  25.156  26.386  1.00  0.00     0.063 H 
ATOM     48  C   UNL A   1      39.963  21.924  26.874  1.00  0.00    -0.026 A 
ATOM     49  H   UNL A   1      41.194  23.122  28.069  1.00  0.00     0.063 H 
ATOM     50  C   UNL A   1      38.826  21.923  26.089  1.00  0.00     0.123 A 
ATOM     51  H   UNL A   1      37.219  23.071  25.350  1.00  0.00     0.065 H 
ATOM     52  H   UNL A   1      40.501  21.056  27.026  1.00  0.00     0.065 H 
ATOM     53  F   UNL A   1      38.393  20.771  25.564  1.00  0.00    -0.207 F 
ENDBRANCH  16  43
ENDBRANCH  11  14
ENDBRANCH   8  11
ENDBRANCH   5   8
ENDBRANCH   1   4
BRANCH   1  54
ATOM     54  C   UNL A   1      46.965  30.173  28.456  1.00  0.00    -0.036 C 
ATOM     55  H   UNL A   1      48.024  30.067  28.566  1.00  0.00     0.028 H 
ATOM     56  H   UNL A   1      46.381  29.521  29.073  1.00  0.00     0.028 H 
BRANCH  54  57
ATOM     57  C   UNL A   1      46.592  31.591  28.910  1.00  0.00    -0.052 C 
ATOM     58  H   UNL A   1      46.216  31.508  29.908  1.00  0.00     0.027 H 
ATOM     59  H   UNL A   1      45.910  31.921  28.154  1.00  0.00     0.027 H 
BRANCH  57  60
ATOM     60  C   UNL A   1      47.674  32.709  28.929  1.00  0.00    -0.052 C 
ATOM     61  H   UNL A   1      48.616  32.205  28.972  1.00  0.00     0.027 H 
ATOM     62  H   UNL A   1      47.346  33.307  29.753  1.00  0.00     0.027 H 
BRANCH  60  63
ATOM     63  C   UNL A   1      47.811  33.772  27.812  1.00  0.00    -0.036 C 
ATOM     64  H   UNL A   1      46.911  33.728  27.235  1.00  0.00     0.028 H 
ATOM     65  H   UNL A   1      48.729  33.498  27.335  1.00  0.00     0.028 H 
BRANCH  63  66
ATOM     66  C   UNL A   1      48.041  35.271  28.164  1.00  0.00     0.018 C 
ATOM     67  H   UNL A   1      48.977  35.575  27.746  1.00  0.00     0.049 H 
ATOM     68  H   UNL A   1      48.024  35.345  29.232  1.00  0.00     0.049 H 
BRANCH  66  69
ATOM     69  N   UNL A   1      47.001  36.165  27.661  1.00  0.00    -0.352 N 
ATOM     70  C   UNL A   1      45.638  36.035  27.478  1.00  0.00     0.251 C 
ATOM     71  H   UNL A   1      47.345  37.048  27.395  1.00  0.00     0.163 HD
ATOM     72  O   UNL A   1      45.138  36.777  26.626  1.00  0.00    -0.269 OA
BRANCH  70  73
ATOM     73  C   UNL A   1      44.702  35.135  28.230  1.00  0.00     0.039 A 
ATOM     74  C   UNL A   1      44.577  35.321  29.624  1.00  0.00    -0.049 A 
ATOM     75  C   UNL A   1      44.063  34.028  27.684  1.00  0.00    -0.049 A 
ATOM     76  C   UNL A   1      43.831  34.439  30.431  1.00  0.00    -0.053 A 
ATOM     77  H   UNL A   1      45.044  36.129  30.065  1.00  0.00     0.063 H 
ATOM     78  C   UNL A   1      43.387  33.089  28.497  1.00  0.00    -0.053 A 
ATOM     79  H   UNL A   1      44.085  33.888  26.662  1.00  0.00     0.063 H 
ATOM     80  C   UNL A   1      43.221  33.312  29.871  1.00  0.00    -0.014 A 
ATOM     81  H   UNL A   1      43.736  34.626  31.442  1.00  0.00     0.063 H 
ATOM     82  H   UNL A   1      43.009  32.228  28.071  1.00  0.00     0.063 H 
BRANCH  80  83
ATOM     83  C   UNL A   1      42.087  32.651  30.608  1.00  0.00     0.031 A 
ATOM     84  C   UNL A   1      42.607  31.359  31.324  1.00  0.00     0.074 A 
ATOM     85  C   UNL A   1      40.816  33.184  30.570  1.00  0.00     0.049 A 
ATOM     86  N   UNL A   1      41.959  30.340  31.806  1.00  0.00    -0.248 NA
ATOM     87  C   UNL A   1      44.077  31.159  31.510  1.00  0.00    -0.034 C 
ATOM     88  C   UNL A   1      40.448  34.462  29.920  1.00  0.00    -0.036 A 
ATOM     89  N   UNL A   1      39.573  32.781  31.061  1.00  0.00    -0.354 N 
ATOM     90  C   UNL A   1      42.887  29.535  32.517  1.00  0.00     0.074 A 
ATOM     91  C   UNL A   1      44.184  30.037  32.215  1.00  0.00    -0.034 C 
ATOM     92  H   UNL A   1      44.842  31.761  31.166  1.00  0.00     0.065 H 
ATOM     93  C   UNL A   1      39.109  34.677  29.971  1.00  0.00    -0.036 A 
ATOM     94  H   UNL A   1      41.124  35.108  29.483  1.00  0.00     0.065 H 
ATOM     95  C   UNL A   1      38.452  33.589  30.674  1.00  0.00     0.049 A 
ATOM     96  H   UNL A   1      39.471  31.989  31.638  1.00  0.00     0.167 HD
ATOM     97  C   UNL A   1      42.522  28.591  33.432  1.00  0.00     0.037 A 
ATOM     98  H   UNL A   1      45.073  29.596  32.500  1.00  0.00     0.065 H 
ATOM     99  H   UNL A   1      38.626  35.496  29.568  1.00  0.00     0.065 H 
ATOM    100  C   UNL A   1      37.102  33.384  30.880  1.00  0.00     0.037 A 
ATOM    101  C   UNL A   1      41.116  28.419  33.399  1.00  0.00     0.049 A 
ATOM    102  C   UNL A   1      37.038  32.275  31.831  1.00  0.00     0.074 A 
ATOM    103  C   UNL A   1      40.282  27.894  32.448  1.00  0.00    -0.036 A 
ATOM    104  N   UNL A   1      40.389  29.161  34.292  1.00  0.00    -0.354 N 
ATOM    105  N   UNL A   1      37.276  32.396  33.101  1.00  0.00    -0.248 NA
ATOM    106  C   UNL A   1      36.686  30.935  31.344  1.00  0.00    -0.034 C 
ATOM    107  C   UNL A   1      39.165  28.746  32.511  1.00  0.00    -0.036 A 
ATOM    108  H   UNL A   1      40.435  27.076  31.839  1.00  0.00     0.065 H 
ATOM    109  C   UNL A   1      39.259  29.568  33.640  1.00  0.00     0.049 A 
ATOM    110  H   UNL A   1      40.634  29.363  35.223  1.00  0.00     0.167 HD
ATOM    111  C   UNL A   1      37.454  31.089  33.470  1.00  0.00     0.074 A 
ATOM    112  C   UNL A   1      36.754  30.278  32.499  1.00  0.00    -0.034 C 
ATOM    113  H   UNL A   1      36.456  30.605  30.394  1.00  0.00     0.065 H 
ATOM    114  H   UNL A   1      38.392  28.763  31.828  1.00  0.00     0.065 H 
ATOM    115  C   UNL A   1      38.601  30.757  34.111  1.00  0.00     0.037 A 
ATOM    116  H   UNL A   1      36.368  29.337  32.674  1.00  0.00     0.065 H 
BRANCH  97 117
ATOM    117  C   UNL A   1      43.260  27.959  34.583  1.00  0.00     0.064 A 
ATOM    118  C   UNL A   1      43.082  26.566  34.794  1.00  0.00     0.173 A 
ATOM    119  C   UNL A   1      43.749  28.689  35.674  1.00  0.00     0.173 A 
ATOM    120  F   UNL A   1      42.674  25.765  33.798  1.00  0.00    -0.203 F 
ATOM    121  C   UNL A   1      43.200  25.991  36.057  1.00  0.00     0.198 A 
ATOM    122  C   UNL A   1      43.924  28.092  36.926  1.00  0.00     0.198 A 
ATOM    123  F   UNL A   1      43.964  30.007  35.593  1.00  0.00    -0.203 F 
ATOM    124  F   UNL A   1      42.843  24.711  36.244  1.00  0.00    -0.200 F 
ATOM    125  C   UNL A   1      43.598  26.761  37.130  1.00  0.00     0.200 A 
ATOM    126  F   UNL A   1      44.325  28.841  37.963  1.00  0.00    -0.200 F 
ATOM    127  F   UNL A   1      43.630  26.237  38.362  1.00  0.00    -0.200 F 
ENDBRANCH  97 117
BRANCH 100 128
ATOM    128  C   UNL A   1      35.720  33.905  30.467  1.00  0.00     0.064 A 
ATOM    129  C   UNL A   1      34.826  34.620  31.268  1.00  0.00     0.173 A 
ATOM    130  C   UNL A   1      35.272  33.762  29.109  1.00  0.00     0.173 A 
ATOM    131  F   UNL A   1      35.029  34.733  32.584  1.00  0.00    -0.203 F 
ATOM    132  C   UNL A   1      33.668  35.238  30.733  1.00  0.00     0.198 A 
ATOM    133  C   UNL A   1      34.170  34.426  28.568  1.00  0.00     0.198 A 
ATOM    134  F   UNL A   1      35.890  32.958  28.235  1.00  0.00    -0.203 F 
ATOM    135  F   UNL A   1      32.839  35.912  31.544  1.00  0.00    -0.200 F 
ATOM    136  C   UNL A   1      33.372  35.184  29.380  1.00  0.00     0.200 A 
ATOM    137  F   UNL A   1      33.912  34.329  27.253  1.00  0.00    -0.200 F 
ATOM    138  F   UNL A   1      32.321  35.841  28.867  1.00  0.00    -0.200 F 
ENDBRANCH 100 128
BRANCH 115 139
ATOM    139  C   UNL A   1      39.219  31.898  34.899  1.00  0.00     0.064 A 
ATOM    140  C   UNL A   1      38.528  32.431  36.000  1.00  0.00     0.173 A 
ATOM    141  C   UNL A   1      40.397  32.570  34.530  1.00  0.00     0.173 A 
ATOM    142  F   UNL A   1      37.405  31.837  36.433  1.00  0.00    -0.203 F 
ATOM    143  C   UNL A   1      38.972  33.575  36.667  1.00  0.00     0.198 A 
ATOM    144  C   UNL A   1      40.847  33.714  35.198  1.00  0.00     0.198 A 
ATOM    145  F   UNL A   1      41.140  32.136  33.514  1.00  0.00    -0.203 F 
ATOM    146  F   UNL A   1      38.277  34.052  37.709  1.00  0.00    -0.200 F 
ATOM    147  C   UNL A   1      40.129  34.220  36.263  1.00  0.00     0.200 A 
ATOM    148  F   UNL A   1      41.981  34.318  34.807  1.00  0.00    -0.200 F 
ATOM    149  F   UNL A   1      40.560  35.312  36.910  1.00  0.00    -0.200 F 
ENDBRANCH 115 139
ENDBRANCH  80  83
ENDBRANCH  70  73
ENDBRANCH  66  69
ENDBRANCH  63  66
ENDBRANCH  60  63
ENDBRANCH  57  60
ENDBRANCH  54  57
ENDBRANCH   1  54
TORSDOF 21
ENDMDL
