MODEL 1
REMARK VINA RESULT:      -9.7      0.000      0.000
REMARK SMILES CC/C=C/C/C=C/C/C=C/C/C=C/CCSCCCC(=O)NCCCCCCNC(=O)c1ccc(-c2c3nc(c(-c4c(F)c(F)c(F)c(F)c4F)c4ccc([nH]4)c(-c4c(F)c(F)c(F)c(F)c4F)c4nc(c(-c5c(F)c(F)c(F)c(F)c5F)c5ccc2[nH]5)C=C4)C=C3)cc1
REMARK SMILES IDX 17 1 16 4 15 5 14 8 13 11 12 12 11 15 10 18 9 19 8 22 7 25
REMARK SMILES IDX 6 26 5 29 4 32 3 33 2 36 1 39 18 43 19 46 20 49 21 50 22 51
REMARK SMILES IDX 23 53 24 56 25 59 26 62 27 65 28 68 29 71 30 72 31 74 32 75
REMARK SMILES IDX 33 76 94 77 34 78 93 80 35 82 36 85 37 86 87 87 38 88 92 89
REMARK SMILES IDX 86 90 88 91 39 92 91 93 85 95 84 97 40 99 72 102 52 103
REMARK SMILES IDX 71 104 53 105 56 106 70 107 89 108 54 109 55 111 69 113
REMARK SMILES IDX 90 114 57 117 41 119 42 120 50 121 43 122 44 123 48 124
REMARK SMILES IDX 51 125 45 126 46 127 49 128 47 129 73 130 74 131 82 132
REMARK SMILES IDX 75 133 76 134 80 135 83 136 77 137 78 138 81 139 79 140
REMARK SMILES IDX 58 141 59 142 67 143 60 144 61 145 65 146 68 147 62 148
REMARK SMILES IDX 63 149 66 150 64 151
REMARK H PARENT 17 2 17 3 15 6 15 7 14 9 14 10 12 13 13 14 11 16 11 17 9 20
REMARK H PARENT 10 21 8 23 8 24 6 27 7 28 5 30 5 31 3 34 4 35 2 37 2 38 1 40
REMARK H PARENT 1 41 1 42 18 44 18 45 19 47 19 48 22 52 23 54 23 55 24 57
REMARK H PARENT 24 58 25 60 25 61 26 63 26 64 27 66 27 67 28 69 28 70 29 73
REMARK H PARENT 33 79 94 81 34 83 93 84 92 94 86 96 88 98 91 100 85 101 53 110
REMARK H PARENT 56 112 89 115 54 116 90 118
REMARK Flexibility Score: inf
ROOT
ATOM      1  C   UNL A   1      34.670  22.880  26.645  1.00  0.00    -0.006 C 
ATOM      2  H   UNL A   1      35.084  22.714  27.618  1.00  0.00     0.038 H 
ATOM      3  H   UNL A   1      33.634  22.786  26.394  1.00  0.00     0.038 H 
ENDROOT
BRANCH   1   4
ATOM      4  S   UNL A   1      35.325  21.486  25.617  1.00  0.00    -0.162 SA
BRANCH   4   5
ATOM      5  C   UNL A   1      36.405  22.104  24.251  1.00  0.00    -0.003 C 
ATOM      6  H   UNL A   1      37.168  22.705  24.696  1.00  0.00     0.038 H 
ATOM      7  H   UNL A   1      36.742  21.217  23.755  1.00  0.00     0.038 H 
BRANCH   5   8
ATOM      8  C   UNL A   1      35.746  22.951  23.124  1.00  0.00    -0.026 C 
ATOM      9  H   UNL A   1      36.249  23.895  23.089  1.00  0.00     0.032 H 
ATOM     10  H   UNL A   1      35.843  22.366  22.233  1.00  0.00     0.032 H 
BRANCH   8  11
ATOM     11  C   UNL A   1      34.271  23.221  23.268  1.00  0.00    -0.087 C 
ATOM     12  C   UNL A   1      33.292  22.989  22.374  1.00  0.00    -0.085 C 
ATOM     13  H   UNL A   1      33.550  22.833  21.388  1.00  0.00     0.058 H 
ATOM     14  H   UNL A   1      33.974  23.635  24.166  1.00  0.00     0.057 H 
BRANCH  12  15
ATOM     15  C   UNL A   1      31.822  22.949  22.758  1.00  0.00    -0.017 C 
ATOM     16  H   UNL A   1      31.265  22.646  21.896  1.00  0.00     0.035 H 
ATOM     17  H   UNL A   1      31.751  22.266  23.578  1.00  0.00     0.035 H 
BRANCH  15  18
ATOM     18  C   UNL A   1      31.249  24.247  23.247  1.00  0.00    -0.084 C 
ATOM     19  C   UNL A   1      30.654  24.384  24.445  1.00  0.00    -0.084 C 
ATOM     20  H   UNL A   1      30.630  23.563  25.070  1.00  0.00     0.058 H 
ATOM     21  H   UNL A   1      31.316  25.075  22.635  1.00  0.00     0.058 H 
BRANCH  19  22
ATOM     22  C   UNL A   1      30.020  25.659  24.931  1.00  0.00    -0.017 C 
ATOM     23  H   UNL A   1      28.955  25.568  24.900  1.00  0.00     0.035 H 
ATOM     24  H   UNL A   1      30.317  25.857  25.940  1.00  0.00     0.035 H 
BRANCH  22  25
ATOM     25  C   UNL A   1      30.462  26.774  24.033  1.00  0.00    -0.084 C 
ATOM     26  C   UNL A   1      29.633  27.635  23.424  1.00  0.00    -0.084 C 
ATOM     27  H   UNL A   1      28.642  27.647  23.710  1.00  0.00     0.058 H 
ATOM     28  H   UNL A   1      31.474  26.888  23.872  1.00  0.00     0.058 H 
BRANCH  26  29
ATOM     29  C   UNL A   1      30.079  28.581  22.348  1.00  0.00    -0.017 C 
ATOM     30  H   UNL A   1      31.146  28.650  22.349  1.00  0.00     0.035 H 
ATOM     31  H   UNL A   1      29.751  28.225  21.393  1.00  0.00     0.035 H 
BRANCH  29  32
ATOM     32  C   UNL A   1      29.488  29.936  22.613  1.00  0.00    -0.085 C 
ATOM     33  C   UNL A   1      28.272  30.141  23.141  1.00  0.00    -0.089 C 
ATOM     34  H   UNL A   1      27.734  29.320  23.459  1.00  0.00     0.057 H 
ATOM     35  H   UNL A   1      30.056  30.765  22.374  1.00  0.00     0.058 H 
BRANCH  33  36
ATOM     36  C   UNL A   1      27.652  31.498  23.295  1.00  0.00    -0.038 C 
ATOM     37  H   UNL A   1      26.892  31.625  22.552  1.00  0.00     0.031 H 
ATOM     38  H   UNL A   1      27.228  31.577  24.274  1.00  0.00     0.031 H 
BRANCH  36  39
ATOM     39  C   UNL A   1      28.703  32.587  23.125  1.00  0.00    -0.062 C 
ATOM     40  H   UNL A   1      28.936  32.697  22.086  1.00  0.00     0.023 H 
ATOM     41  H   UNL A   1      29.587  32.314  23.662  1.00  0.00     0.023 H 
ATOM     42  H   UNL A   1      28.324  33.511  23.506  1.00  0.00     0.023 H 
ENDBRANCH  36  39
ENDBRANCH  33  36
ENDBRANCH  29  32
ENDBRANCH  26  29
ENDBRANCH  22  25
ENDBRANCH  19  22
ENDBRANCH  15  18
ENDBRANCH  12  15
ENDBRANCH   8  11
ENDBRANCH   5   8
ENDBRANCH   4   5
ENDBRANCH   1   4
BRANCH   1  43
ATOM     43  C   UNL A   1      34.820  24.382  26.417  1.00  0.00    -0.035 C 
ATOM     44  H   UNL A   1      35.511  24.504  25.611  1.00  0.00     0.028 H 
ATOM     45  H   UNL A   1      35.115  24.747  27.379  1.00  0.00     0.028 H 
BRANCH  43  46
ATOM     46  C   UNL A   1      33.608  25.222  26.085  1.00  0.00     0.027 C 
ATOM     47  H   UNL A   1      33.113  25.437  27.010  1.00  0.00     0.037 H 
ATOM     48  H   UNL A   1      33.069  24.625  25.380  1.00  0.00     0.037 H 
BRANCH  46  49
ATOM     49  C   UNL A   1      33.800  26.547  25.366  1.00  0.00     0.220 C 
ATOM     50  O   UNL A   1      34.024  26.544  24.150  1.00  0.00    -0.275 OA
ATOM     51  N   UNL A   1      33.681  27.767  25.947  1.00  0.00    -0.356 N 
ATOM     52  H   UNL A   1      34.112  28.490  25.436  1.00  0.00     0.163 HD
BRANCH  51  53
ATOM     53  C   UNL A   1      33.046  28.217  27.169  1.00  0.00     0.017 C 
ATOM     54  H   UNL A   1      33.729  28.856  27.689  1.00  0.00     0.049 H 
ATOM     55  H   UNL A   1      32.798  27.344  27.736  1.00  0.00     0.049 H 
BRANCH  53  56
ATOM     56  C   UNL A   1      31.751  28.983  26.931  1.00  0.00    -0.036 C 
ATOM     57  H   UNL A   1      31.602  29.673  27.736  1.00  0.00     0.028 H 
ATOM     58  H   UNL A   1      30.947  28.280  26.880  1.00  0.00     0.028 H 
BRANCH  56  59
ATOM     59  C   UNL A   1      31.797  29.763  25.608  1.00  0.00    -0.052 C 
ATOM     60  H   UNL A   1      31.359  29.149  24.849  1.00  0.00     0.027 H 
ATOM     61  H   UNL A   1      32.829  29.990  25.435  1.00  0.00     0.027 H 
BRANCH  59  62
ATOM     62  C   UNL A   1      31.062  31.110  25.613  1.00  0.00    -0.052 C 
ATOM     63  H   UNL A   1      30.018  30.915  25.488  1.00  0.00     0.027 H 
ATOM     64  H   UNL A   1      31.494  31.682  24.818  1.00  0.00     0.027 H 
BRANCH  62  65
ATOM     65  C   UNL A   1      31.234  31.955  26.876  1.00  0.00    -0.036 C 
ATOM     66  H   UNL A   1      31.163  31.304  27.722  1.00  0.00     0.028 H 
ATOM     67  H   UNL A   1      30.465  32.698  26.847  1.00  0.00     0.028 H 
BRANCH  65  68
ATOM     68  C   UNL A   1      32.554  32.709  26.968  1.00  0.00     0.018 C 
ATOM     69  H   UNL A   1      32.980  32.769  25.989  1.00  0.00     0.049 H 
ATOM     70  H   UNL A   1      33.183  32.171  27.645  1.00  0.00     0.049 H 
BRANCH  68  71
ATOM     71  N   UNL A   1      32.401  34.056  27.490  1.00  0.00    -0.352 N 
ATOM     72  C   UNL A   1      33.090  34.677  28.501  1.00  0.00     0.251 C 
ATOM     73  H   UNL A   1      31.703  34.601  27.058  1.00  0.00     0.163 HD
ATOM     74  O   UNL A   1      32.745  35.783  28.896  1.00  0.00    -0.269 OA
BRANCH  72  75
ATOM     75  C   UNL A   1      34.242  33.995  29.128  1.00  0.00     0.039 A 
ATOM     76  C   UNL A   1      35.530  34.452  28.838  1.00  0.00    -0.049 A 
ATOM     77  C   UNL A   1      34.059  32.903  29.981  1.00  0.00    -0.049 A 
ATOM     78  C   UNL A   1      36.632  33.830  29.425  1.00  0.00    -0.053 A 
ATOM     79  H   UNL A   1      35.665  35.247  28.193  1.00  0.00     0.063 H 
ATOM     80  C   UNL A   1      35.151  32.343  30.634  1.00  0.00    -0.053 A 
ATOM     81  H   UNL A   1      33.115  32.513  30.125  1.00  0.00     0.063 H 
ATOM     82  C   UNL A   1      36.450  32.780  30.339  1.00  0.00    -0.014 A 
ATOM     83  H   UNL A   1      37.586  34.142  29.185  1.00  0.00     0.063 H 
ATOM     84  H   UNL A   1      35.005  31.603  31.339  1.00  0.00     0.063 H 
BRANCH  82  85
ATOM     85  C   UNL A   1      37.614  32.090  30.948  1.00  0.00     0.031 A 
ATOM     86  C   UNL A   1      38.063  32.463  32.335  1.00  0.00     0.074 A 
ATOM     87  C   UNL A   1      38.280  31.155  30.245  1.00  0.00     0.049 A 
ATOM     88  N   UNL A   1      39.060  31.990  33.040  1.00  0.00    -0.248 NA
ATOM     89  C   UNL A   1      37.311  33.533  33.010  1.00  0.00    -0.034 C 
ATOM     90  C   UNL A   1      37.968  30.743  28.876  1.00  0.00    -0.036 A 
ATOM     91  N   UNL A   1      39.359  30.379  30.588  1.00  0.00    -0.354 N 
ATOM     92  C   UNL A   1      39.062  32.713  34.224  1.00  0.00     0.074 A 
ATOM     93  C   UNL A   1      38.012  33.702  34.119  1.00  0.00    -0.034 C 
ATOM     94  H   UNL A   1      36.458  34.025  32.698  1.00  0.00     0.065 H 
ATOM     95  C   UNL A   1      38.810  29.765  28.509  1.00  0.00    -0.036 A 
ATOM     96  H   UNL A   1      37.220  31.142  28.287  1.00  0.00     0.065 H 
ATOM     97  C   UNL A   1      39.743  29.505  29.600  1.00  0.00     0.049 A 
ATOM     98  H   UNL A   1      39.814  30.443  31.458  1.00  0.00     0.167 HD
ATOM     99  C   UNL A   1      39.849  32.551  35.314  1.00  0.00     0.037 A 
ATOM    100  H   UNL A   1      37.833  34.441  34.818  1.00  0.00     0.065 H 
ATOM    101  H   UNL A   1      38.800  29.275  27.600  1.00  0.00     0.065 H 
ATOM    102  C   UNL A   1      40.735  28.594  29.585  1.00  0.00     0.037 A 
ATOM    103  C   UNL A   1      40.872  31.545  35.422  1.00  0.00     0.049 A 
ATOM    104  C   UNL A   1      41.595  28.432  30.811  1.00  0.00     0.074 A 
ATOM    105  C   UNL A   1      41.685  31.251  36.502  1.00  0.00    -0.036 A 
ATOM    106  N   UNL A   1      41.225  30.668  34.406  1.00  0.00    -0.354 N 
ATOM    107  N   UNL A   1      41.537  29.068  31.955  1.00  0.00    -0.248 NA
ATOM    108  C   UNL A   1      42.651  27.413  30.744  1.00  0.00    -0.034 C 
ATOM    109  C   UNL A   1      42.568  30.236  36.120  1.00  0.00    -0.036 A 
ATOM    110  H   UNL A   1      41.645  31.702  37.430  1.00  0.00     0.065 H 
ATOM    111  C   UNL A   1      42.261  29.850  34.826  1.00  0.00     0.049 A 
ATOM    112  H   UNL A   1      40.802  30.634  33.517  1.00  0.00     0.167 HD
ATOM    113  C   UNL A   1      42.517  28.498  32.759  1.00  0.00     0.074 A 
ATOM    114  C   UNL A   1      43.146  27.458  31.972  1.00  0.00    -0.034 C 
ATOM    115  H   UNL A   1      42.932  26.817  29.950  1.00  0.00     0.065 H 
ATOM    116  H   UNL A   1      43.322  29.842  36.705  1.00  0.00     0.065 H 
ATOM    117  C   UNL A   1      42.863  28.807  34.034  1.00  0.00     0.037 A 
ATOM    118  H   UNL A   1      43.886  26.831  32.324  1.00  0.00     0.065 H 
BRANCH  99 119
ATOM    119  C   UNL A   1      39.637  33.485  36.472  1.00  0.00     0.064 A 
ATOM    120  C   UNL A   1      38.791  33.158  37.544  1.00  0.00     0.173 A 
ATOM    121  C   UNL A   1      40.309  34.716  36.524  1.00  0.00     0.173 A 
ATOM    122  F   UNL A   1      38.114  31.999  37.542  1.00  0.00    -0.203 F 
ATOM    123  C   UNL A   1      38.597  34.042  38.603  1.00  0.00     0.198 A 
ATOM    124  C   UNL A   1      40.141  35.582  37.602  1.00  0.00     0.198 A 
ATOM    125  F   UNL A   1      41.134  35.079  35.530  1.00  0.00    -0.203 F 
ATOM    126  F   UNL A   1      37.736  33.734  39.582  1.00  0.00    -0.200 F 
ATOM    127  C   UNL A   1      39.278  35.250  38.633  1.00  0.00     0.200 A 
ATOM    128  F   UNL A   1      40.812  36.741  37.638  1.00  0.00    -0.200 F 
ATOM    129  F   UNL A   1      39.095  36.097  39.657  1.00  0.00    -0.200 F 
ENDBRANCH  99 119
BRANCH 102 130
ATOM    130  C   UNL A   1      40.942  27.735  28.390  1.00  0.00     0.064 A 
ATOM    131  C   UNL A   1      41.783  28.145  27.345  1.00  0.00     0.173 A 
ATOM    132  C   UNL A   1      40.297  26.496  28.258  1.00  0.00     0.173 A 
ATOM    133  F   UNL A   1      42.408  29.329  27.414  1.00  0.00    -0.203 F 
ATOM    134  C   UNL A   1      41.947  27.364  26.203  1.00  0.00     0.198 A 
ATOM    135  C   UNL A   1      40.488  25.701  27.129  1.00  0.00     0.198 A 
ATOM    136  F   UNL A   1      39.488  26.053  29.231  1.00  0.00    -0.203 F 
ATOM    137  F   UNL A   1      42.712  27.807  25.195  1.00  0.00    -0.200 F 
ATOM    138  C   UNL A   1      41.303  26.141  26.097  1.00  0.00     0.200 A 
ATOM    139  F   UNL A   1      39.877  24.513  27.040  1.00  0.00    -0.200 F 
ATOM    140  F   UNL A   1      41.462  25.390  24.999  1.00  0.00    -0.200 F 
ENDBRANCH 102 130
BRANCH 117 141
ATOM    141  C   UNL A   1      43.931  27.968  34.679  1.00  0.00     0.064 A 
ATOM    142  C   UNL A   1      45.285  28.331  34.644  1.00  0.00     0.173 A 
ATOM    143  C   UNL A   1      43.584  26.796  35.368  1.00  0.00     0.173 A 
ATOM    144  F   UNL A   1      45.672  29.436  33.989  1.00  0.00    -0.203 F 
ATOM    145  C   UNL A   1      46.255  27.530  35.241  1.00  0.00     0.198 A 
ATOM    146  C   UNL A   1      44.552  26.018  35.996  1.00  0.00     0.198 A 
ATOM    147  F   UNL A   1      42.301  26.408  35.442  1.00  0.00    -0.203 F 
ATOM    148  F   UNL A   1      47.550  27.863  35.140  1.00  0.00    -0.200 F 
ATOM    149  C   UNL A   1      45.888  26.380  35.922  1.00  0.00     0.200 A 
ATOM    150  F   UNL A   1      44.192  24.917  36.670  1.00  0.00    -0.200 F 
ATOM    151  F   UNL A   1      46.823  25.613  36.500  1.00  0.00    -0.200 F 
ENDBRANCH 117 141
ENDBRANCH  82  85
ENDBRANCH  72  75
ENDBRANCH  68  71
ENDBRANCH  65  68
ENDBRANCH  62  65
ENDBRANCH  59  62
ENDBRANCH  56  59
ENDBRANCH  53  56
ENDBRANCH  51  53
ENDBRANCH  46  49
ENDBRANCH  43  46
ENDBRANCH   1  43
TORSDOF 27
ENDMDL
MODEL 2
REMARK VINA RESULT:      -9.5      0.605      7.330
REMARK SMILES CC/C=C/C/C=C/C/C=C/C/C=C/CCSCCCC(=O)NCCCCCCNC(=O)c1ccc(-c2c3nc(c(-c4c(F)c(F)c(F)c(F)c4F)c4ccc([nH]4)c(-c4c(F)c(F)c(F)c(F)c4F)c4nc(c(-c5c(F)c(F)c(F)c(F)c5F)c5ccc2[nH]5)C=C4)C=C3)cc1
REMARK SMILES IDX 17 1 16 4 15 5 14 8 13 11 12 12 11 15 10 18 9 19 8 22 7 25
REMARK SMILES IDX 6 26 5 29 4 32 3 33 2 36 1 39 18 43 19 46 20 49 21 50 22 51
REMARK SMILES IDX 23 53 24 56 25 59 26 62 27 65 28 68 29 71 30 72 31 74 32 75
REMARK SMILES IDX 33 76 94 77 34 78 93 80 35 82 36 85 37 86 87 87 38 88 92 89
REMARK SMILES IDX 86 90 88 91 39 92 91 93 85 95 84 97 40 99 72 102 52 103
REMARK SMILES IDX 71 104 53 105 56 106 70 107 89 108 54 109 55 111 69 113
REMARK SMILES IDX 90 114 57 117 41 119 42 120 50 121 43 122 44 123 48 124
REMARK SMILES IDX 51 125 45 126 46 127 49 128 47 129 73 130 74 131 82 132
REMARK SMILES IDX 75 133 76 134 80 135 83 136 77 137 78 138 81 139 79 140
REMARK SMILES IDX 58 141 59 142 67 143 60 144 61 145 65 146 68 147 62 148
REMARK SMILES IDX 63 149 66 150 64 151
REMARK H PARENT 17 2 17 3 15 6 15 7 14 9 14 10 12 13 13 14 11 16 11 17 9 20
REMARK H PARENT 10 21 8 23 8 24 6 27 7 28 5 30 5 31 3 34 4 35 2 37 2 38 1 40
REMARK H PARENT 1 41 1 42 18 44 18 45 19 47 19 48 22 52 23 54 23 55 24 57
REMARK H PARENT 24 58 25 60 25 61 26 63 26 64 27 66 27 67 28 69 28 70 29 73
REMARK H PARENT 33 79 94 81 34 83 93 84 92 94 86 96 88 98 91 100 85 101 53 110
REMARK H PARENT 56 112 89 115 54 116 90 118
REMARK Flexibility Score: inf
ROOT
ATOM      1  C   UNL A   1      34.661  22.890  26.660  1.00  0.00    -0.006 C 
ATOM      2  H   UNL A   1      35.078  22.716  27.630  1.00  0.00     0.038 H 
ATOM      3  H   UNL A   1      33.624  22.807  26.413  1.00  0.00     0.038 H 
ENDROOT
BRANCH   1   4
ATOM      4  S   UNL A   1      35.298  21.492  25.624  1.00  0.00    -0.162 SA
BRANCH   4   5
ATOM      5  C   UNL A   1      36.369  22.105  24.248  1.00  0.00    -0.003 C 
ATOM      6  H   UNL A   1      37.142  22.699  24.687  1.00  0.00     0.038 H 
ATOM      7  H   UNL A   1      36.693  21.217  23.746  1.00  0.00     0.038 H 
BRANCH   5   8
ATOM      8  C   UNL A   1      35.704  22.962  23.131  1.00  0.00    -0.026 C 
ATOM      9  H   UNL A   1      36.218  23.899  23.090  1.00  0.00     0.032 H 
ATOM     10  H   UNL A   1      35.783  22.376  22.238  1.00  0.00     0.032 H 
BRANCH   8  11
ATOM     11  C   UNL A   1      34.235  23.248  23.295  1.00  0.00    -0.087 C 
ATOM     12  C   UNL A   1      33.240  23.021  22.416  1.00  0.00    -0.085 C 
ATOM     13  H   UNL A   1      33.483  22.854  21.428  1.00  0.00     0.058 H 
ATOM     14  H   UNL A   1      33.956  23.672  24.193  1.00  0.00     0.057 H 
BRANCH  12  15
ATOM     15  C   UNL A   1      31.776  22.999  22.822  1.00  0.00    -0.017 C 
ATOM     16  H   UNL A   1      31.203  22.692  21.972  1.00  0.00     0.035 H 
ATOM     17  H   UNL A   1      31.710  22.326  23.650  1.00  0.00     0.035 H 
BRANCH  15  18
ATOM     18  C   UNL A   1      31.223  24.308  23.305  1.00  0.00    -0.084 C 
ATOM     19  C   UNL A   1      30.647  24.464  24.510  1.00  0.00    -0.084 C 
ATOM     20  H   UNL A   1      30.624  23.650  25.144  1.00  0.00     0.058 H 
ATOM     21  H   UNL A   1      31.289  25.129  22.683  1.00  0.00     0.058 H 
BRANCH  19  22
ATOM     22  C   UNL A   1      30.033  25.750  24.991  1.00  0.00    -0.017 C 
ATOM     23  H   UNL A   1      28.966  25.671  24.970  1.00  0.00     0.035 H 
ATOM     24  H   UNL A   1      30.341  25.953  25.995  1.00  0.00     0.035 H 
BRANCH  22  25
ATOM     25  C   UNL A   1      30.479  26.853  24.080  1.00  0.00    -0.084 C 
ATOM     26  C   UNL A   1      29.654  27.707  23.457  1.00  0.00    -0.084 C 
ATOM     27  H   UNL A   1      28.662  27.725  23.739  1.00  0.00     0.058 H 
ATOM     28  H   UNL A   1      31.492  26.962  23.920  1.00  0.00     0.058 H 
BRANCH  26  29
ATOM     29  C   UNL A   1      30.105  28.638  22.369  1.00  0.00    -0.017 C 
ATOM     30  H   UNL A   1      31.173  28.702  22.371  1.00  0.00     0.035 H 
ATOM     31  H   UNL A   1      29.776  28.272  21.419  1.00  0.00     0.035 H 
BRANCH  29  32
ATOM     32  C   UNL A   1      29.520  29.999  22.618  1.00  0.00    -0.085 C 
ATOM     33  C   UNL A   1      28.300  30.216  23.133  1.00  0.00    -0.089 C 
ATOM     34  H   UNL A   1      27.755  29.400  23.454  1.00  0.00     0.057 H 
ATOM     35  H   UNL A   1      30.094  30.822  22.377  1.00  0.00     0.058 H 
BRANCH  33  36
ATOM     36  C   UNL A   1      27.686  31.577  23.269  1.00  0.00    -0.038 C 
ATOM     37  H   UNL A   1      26.944  31.707  22.509  1.00  0.00     0.031 H 
ATOM     38  H   UNL A   1      27.241  31.661  24.238  1.00  0.00     0.031 H 
BRANCH  36  39
ATOM     39  C   UNL A   1      28.749  32.658  23.121  1.00  0.00    -0.062 C 
ATOM     40  H   UNL A   1      29.006  32.764  22.088  1.00  0.00     0.023 H 
ATOM     41  H   UNL A   1      29.618  32.381  23.679  1.00  0.00     0.023 H 
ATOM     42  H   UNL A   1      28.368  33.586  23.491  1.00  0.00     0.023 H 
ENDBRANCH  36  39
ENDBRANCH  33  36
ENDBRANCH  29  32
ENDBRANCH  26  29
ENDBRANCH  22  25
ENDBRANCH  19  22
ENDBRANCH  15  18
ENDBRANCH  12  15
ENDBRANCH   8  11
ENDBRANCH   5   8
ENDBRANCH   4   5
ENDBRANCH   1   4
BRANCH   1  43
ATOM     43  C   UNL A   1      34.826  24.390  26.437  1.00  0.00    -0.035 C 
ATOM     44  H   UNL A   1      35.506  24.508  25.621  1.00  0.00     0.028 H 
ATOM     45  H   UNL A   1      35.139  24.747  27.396  1.00  0.00     0.028 H 
BRANCH  43  46
ATOM     46  C   UNL A   1      33.619  25.246  26.126  1.00  0.00     0.027 C 
ATOM     47  H   UNL A   1      33.137  25.456  27.059  1.00  0.00     0.037 H 
ATOM     48  H   UNL A   1      33.066  24.662  25.422  1.00  0.00     0.037 H 
BRANCH  46  49
ATOM     49  C   UNL A   1      33.817  26.576  25.419  1.00  0.00     0.220 C 
ATOM     50  O   UNL A   1      34.028  26.583  24.201  1.00  0.00    -0.275 OA
ATOM     51  N   UNL A   1      33.715  27.791  26.012  1.00  0.00    -0.356 N 
ATOM     52  H   UNL A   1      34.148  28.515  25.505  1.00  0.00     0.163 HD
BRANCH  51  53
ATOM     53  C   UNL A   1      33.096  28.236  27.245  1.00  0.00     0.017 C 
ATOM     54  H   UNL A   1      33.798  28.845  27.776  1.00  0.00     0.049 H 
ATOM     55  H   UNL A   1      32.825  27.359  27.796  1.00  0.00     0.049 H 
BRANCH  53  56
ATOM     56  C   UNL A   1      31.823  29.042  27.027  1.00  0.00    -0.036 C 
ATOM     57  H   UNL A   1      31.690  29.714  27.849  1.00  0.00     0.028 H 
ATOM     58  H   UNL A   1      31.000  28.362  26.956  1.00  0.00     0.028 H 
BRANCH  56  59
ATOM     59  C   UNL A   1      31.891  29.854  25.724  1.00  0.00    -0.052 C 
ATOM     60  H   UNL A   1      31.473  29.257  24.941  1.00  0.00     0.027 H 
ATOM     61  H   UNL A   1      32.925  30.091  25.579  1.00  0.00     0.027 H 
BRANCH  59  62
ATOM     62  C   UNL A   1      31.147  31.197  25.747  1.00  0.00    -0.052 C 
ATOM     63  H   UNL A   1      30.105  30.997  25.611  1.00  0.00     0.027 H 
ATOM     64  H   UNL A   1      31.581  31.784  24.964  1.00  0.00     0.027 H 
BRANCH  62  65
ATOM     65  C   UNL A   1      31.306  32.021  27.024  1.00  0.00    -0.036 C 
ATOM     66  H   UNL A   1      31.312  31.348  27.855  1.00  0.00     0.028 H 
ATOM     67  H   UNL A   1      30.487  32.709  27.041  1.00  0.00     0.028 H 
BRANCH  65  68
ATOM     68  C   UNL A   1      32.573  32.864  27.089  1.00  0.00     0.018 C 
ATOM     69  H   UNL A   1      32.970  32.959  26.101  1.00  0.00     0.049 H 
ATOM     70  H   UNL A   1      33.254  32.369  27.748  1.00  0.00     0.049 H 
BRANCH  68  71
ATOM     71  N   UNL A   1      32.340  34.196  27.624  1.00  0.00    -0.352 N 
ATOM     72  C   UNL A   1      32.960  34.830  28.671  1.00  0.00     0.251 C 
ATOM     73  H   UNL A   1      31.637  34.716  27.171  1.00  0.00     0.163 HD
ATOM     74  O   UNL A   1      32.551  35.914  29.066  1.00  0.00    -0.269 OA
BRANCH  72  75
ATOM     75  C   UNL A   1      34.114  34.189  29.335  1.00  0.00     0.039 A 
ATOM     76  C   UNL A   1      33.879  33.381  30.450  1.00  0.00    -0.049 A 
ATOM     77  C   UNL A   1      35.418  34.395  28.878  1.00  0.00    -0.049 A 
ATOM     78  C   UNL A   1      34.952  32.758  31.090  1.00  0.00    -0.053 A 
ATOM     79  H   UNL A   1      32.917  33.245  30.800  1.00  0.00     0.063 H 
ATOM     80  C   UNL A   1      36.475  33.703  29.460  1.00  0.00    -0.053 A 
ATOM     81  H   UNL A   1      35.597  35.059  28.110  1.00  0.00     0.063 H 
ATOM     82  C   UNL A   1      36.256  32.902  30.590  1.00  0.00    -0.014 A 
ATOM     83  H   UNL A   1      34.786  32.189  31.934  1.00  0.00     0.063 H 
ATOM     84  H   UNL A   1      37.422  33.778  29.058  1.00  0.00     0.063 H 
BRANCH  82  85
ATOM     85  C   UNL A   1      37.409  32.270  31.277  1.00  0.00     0.031 A 
ATOM     86  C   UNL A   1      38.167  31.160  30.599  1.00  0.00     0.074 A 
ATOM     87  C   UNL A   1      37.752  32.671  32.515  1.00  0.00     0.049 A 
ATOM     88  N   UNL A   1      39.193  30.471  31.031  1.00  0.00    -0.248 NA
ATOM     89  C   UNL A   1      37.689  30.747  29.269  1.00  0.00    -0.034 C 
ATOM     90  C   UNL A   1      37.065  33.704  33.291  1.00  0.00    -0.036 A 
ATOM     91  N   UNL A   1      38.771  32.260  33.337  1.00  0.00    -0.354 N 
ATOM     92  C   UNL A   1      39.467  29.540  30.039  1.00  0.00     0.074 A 
ATOM     93  C   UNL A   1      38.462  29.705  29.013  1.00  0.00    -0.034 C 
ATOM     94  H   UNL A   1      36.944  31.163  28.688  1.00  0.00     0.065 H 
ATOM     95  C   UNL A   1      37.702  33.871  34.461  1.00  0.00    -0.036 A 
ATOM     96  H   UNL A   1      36.224  34.220  32.988  1.00  0.00     0.065 H 
ATOM     97  C   UNL A   1      38.820  32.936  34.532  1.00  0.00     0.049 A 
ATOM     98  H   UNL A   1      39.405  31.547  33.095  1.00  0.00     0.167 HD
ATOM     99  C   UNL A   1      40.482  28.646  29.974  1.00  0.00     0.037 A 
ATOM    100  H   UNL A   1      38.363  29.091  28.188  1.00  0.00     0.065 H 
ATOM    101  H   UNL A   1      37.443  34.552  35.192  1.00  0.00     0.065 H 
ATOM    102  C   UNL A   1      39.676  32.813  35.564  1.00  0.00     0.037 A 
ATOM    103  C   UNL A   1      41.496  28.509  30.987  1.00  0.00     0.049 A 
ATOM    104  C   UNL A   1      40.798  31.813  35.466  1.00  0.00     0.074 A 
ATOM    105  C   UNL A   1      42.604  27.681  30.993  1.00  0.00    -0.036 A 
ATOM    106  N   UNL A   1      41.521  29.220  32.179  1.00  0.00    -0.354 N 
ATOM    107  N   UNL A   1      41.096  30.992  34.489  1.00  0.00    -0.248 NA
ATOM    108  C   UNL A   1      41.712  31.734  36.614  1.00  0.00    -0.034 C 
ATOM    109  C   UNL A   1      43.266  27.848  32.214  1.00  0.00    -0.036 A 
ATOM    110  H   UNL A   1      42.893  27.049  30.230  1.00  0.00     0.065 H 
ATOM    111  C   UNL A   1      42.611  28.830  32.939  1.00  0.00     0.049 A 
ATOM    112  H   UNL A   1      40.860  29.900  32.444  1.00  0.00     0.167 HD
ATOM    113  C   UNL A   1      42.252  30.331  34.884  1.00  0.00     0.074 A 
ATOM    114  C   UNL A   1      42.607  30.857  36.185  1.00  0.00    -0.034 C 
ATOM    115  H   UNL A   1      41.668  32.233  37.517  1.00  0.00     0.065 H 
ATOM    116  H   UNL A   1      44.102  27.327  32.522  1.00  0.00     0.065 H 
ATOM    117  C   UNL A   1      42.959  29.377  34.226  1.00  0.00     0.037 A 
ATOM    118  H   UNL A   1      43.451  30.582  36.713  1.00  0.00     0.065 H 
BRANCH  99 119
ATOM    119  C   UNL A   1      40.543  27.746  28.773  1.00  0.00     0.064 A 
ATOM    120  C   UNL A   1      41.324  28.059  27.649  1.00  0.00     0.173 A 
ATOM    121  C   UNL A   1      39.827  26.538  28.754  1.00  0.00     0.173 A 
ATOM    122  F   UNL A   1      42.020  29.205  27.608  1.00  0.00    -0.203 F 
ATOM    123  C   UNL A   1      41.357  27.217  26.540  1.00  0.00     0.198 A 
ATOM    124  C   UNL A   1      39.891  25.682  27.657  1.00  0.00     0.198 A 
ATOM    125  F   UNL A   1      39.067  26.185  29.801  1.00  0.00    -0.203 F 
ATOM    126  F   UNL A   1      42.062  27.569  25.455  1.00  0.00    -0.200 F 
ATOM    127  C   UNL A   1      40.647  26.027  26.548  1.00  0.00     0.200 A 
ATOM    128  F   UNL A   1      39.216  24.524  27.673  1.00  0.00    -0.200 F 
ATOM    129  F   UNL A   1      40.684  25.215  25.481  1.00  0.00    -0.200 F 
ENDBRANCH  99 119
BRANCH 102 130
ATOM    130  C   UNL A   1      39.537  33.688  36.758  1.00  0.00     0.064 A 
ATOM    131  C   UNL A   1      38.711  33.318  37.829  1.00  0.00     0.173 A 
ATOM    132  C   UNL A   1      40.213  34.914  36.850  1.00  0.00     0.173 A 
ATOM    133  F   UNL A   1      38.029  32.164  37.782  1.00  0.00    -0.203 F 
ATOM    134  C   UNL A   1      38.542  34.154  38.931  1.00  0.00     0.198 A 
ATOM    135  C   UNL A   1      40.068  35.734  37.968  1.00  0.00     0.198 A 
ATOM    136  F   UNL A   1      41.021  35.312  35.857  1.00  0.00    -0.203 F 
ATOM    137  F   UNL A   1      37.702  33.800  39.915  1.00  0.00    -0.200 F 
ATOM    138  C   UNL A   1      39.224  35.359  39.003  1.00  0.00     0.200 A 
ATOM    139  F   UNL A   1      40.742  36.889  38.040  1.00  0.00    -0.200 F 
ATOM    140  F   UNL A   1      39.062  36.162  40.063  1.00  0.00    -0.200 F 
ENDBRANCH 102 130
BRANCH 117 141
ATOM    141  C   UNL A   1      44.220  28.885  34.877  1.00  0.00     0.064 A 
ATOM    142  C   UNL A   1      44.234  27.766  35.723  1.00  0.00     0.173 A 
ATOM    143  C   UNL A   1      45.441  29.531  34.624  1.00  0.00     0.173 A 
ATOM    144  F   UNL A   1      43.093  27.119  36.006  1.00  0.00    -0.203 F 
ATOM    145  C   UNL A   1      45.416  27.337  36.322  1.00  0.00     0.198 A 
ATOM    146  C   UNL A   1      46.626  29.076  35.195  1.00  0.00     0.198 A 
ATOM    147  F   UNL A   1      45.487  30.599  33.814  1.00  0.00    -0.203 F 
ATOM    148  F   UNL A   1      45.394  26.304  37.177  1.00  0.00    -0.200 F 
ATOM    149  C   UNL A   1      46.610  27.986  36.051  1.00  0.00     0.200 A 
ATOM    150  F   UNL A   1      47.782  29.694  34.916  1.00  0.00    -0.200 F 
ATOM    151  F   UNL A   1      47.747  27.569  36.625  1.00  0.00    -0.200 F 
ENDBRANCH 117 141
ENDBRANCH  82  85
ENDBRANCH  72  75
ENDBRANCH  68  71
ENDBRANCH  65  68
ENDBRANCH  62  65
ENDBRANCH  59  62
ENDBRANCH  56  59
ENDBRANCH  53  56
ENDBRANCH  51  53
ENDBRANCH  46  49
ENDBRANCH  43  46
ENDBRANCH   1  43
TORSDOF 27
ENDMDL
MODEL 3
REMARK VINA RESULT:      -9.0      0.850      2.411
REMARK SMILES CC/C=C/C/C=C/C/C=C/C/C=C/CCSCCCC(=O)NCCCCCCNC(=O)c1ccc(-c2c3nc(c(-c4c(F)c(F)c(F)c(F)c4F)c4ccc([nH]4)c(-c4c(F)c(F)c(F)c(F)c4F)c4nc(c(-c5c(F)c(F)c(F)c(F)c5F)c5ccc2[nH]5)C=C4)C=C3)cc1
REMARK SMILES IDX 17 1 16 4 15 5 14 8 13 11 12 12 11 15 10 18 9 19 8 22 7 25
REMARK SMILES IDX 6 26 5 29 4 32 3 33 2 36 1 39 18 43 19 46 20 49 21 50 22 51
REMARK SMILES IDX 23 53 24 56 25 59 26 62 27 65 28 68 29 71 30 72 31 74 32 75
REMARK SMILES IDX 33 76 94 77 34 78 93 80 35 82 36 85 37 86 87 87 38 88 92 89
REMARK SMILES IDX 86 90 88 91 39 92 91 93 85 95 84 97 40 99 72 102 52 103
REMARK SMILES IDX 71 104 53 105 56 106 70 107 89 108 54 109 55 111 69 113
REMARK SMILES IDX 90 114 57 117 41 119 42 120 50 121 43 122 44 123 48 124
REMARK SMILES IDX 51 125 45 126 46 127 49 128 47 129 73 130 74 131 82 132
REMARK SMILES IDX 75 133 76 134 80 135 83 136 77 137 78 138 81 139 79 140
REMARK SMILES IDX 58 141 59 142 67 143 60 144 61 145 65 146 68 147 62 148
REMARK SMILES IDX 63 149 66 150 64 151
REMARK H PARENT 17 2 17 3 15 6 15 7 14 9 14 10 12 13 13 14 11 16 11 17 9 20
REMARK H PARENT 10 21 8 23 8 24 6 27 7 28 5 30 5 31 3 34 4 35 2 37 2 38 1 40
REMARK H PARENT 1 41 1 42 18 44 18 45 19 47 19 48 22 52 23 54 23 55 24 57
REMARK H PARENT 24 58 25 60 25 61 26 63 26 64 27 66 27 67 28 69 28 70 29 73
REMARK H PARENT 33 79 94 81 34 83 93 84 92 94 86 96 88 98 91 100 85 101 53 110
REMARK H PARENT 56 112 89 115 54 116 90 118
REMARK Flexibility Score: inf
ROOT
ATOM      1  C   UNL A   1      34.921  22.727  26.539  1.00  0.00    -0.006 C 
ATOM      2  H   UNL A   1      35.071  22.540  27.581  1.00  0.00     0.038 H 
ATOM      3  H   UNL A   1      33.998  22.587  26.016  1.00  0.00     0.038 H 
ENDROOT
BRANCH   1   4
ATOM      4  S   UNL A   1      35.917  21.420  25.684  1.00  0.00    -0.162 SA
BRANCH   4   5
ATOM      5  C   UNL A   1      36.717  22.075  24.152  1.00  0.00    -0.003 C 
ATOM      6  H   UNL A   1      37.472  22.767  24.459  1.00  0.00     0.038 H 
ATOM      7  H   UNL A   1      37.066  21.202  23.639  1.00  0.00     0.038 H 
BRANCH   5   8
ATOM      8  C   UNL A   1      35.817  22.802  23.110  1.00  0.00    -0.026 C 
ATOM      9  H   UNL A   1      36.149  23.816  23.045  1.00  0.00     0.032 H 
ATOM     10  H   UNL A   1      35.922  22.243  22.203  1.00  0.00     0.032 H 
BRANCH   8  11
ATOM     11  C   UNL A   1      34.339  22.819  23.403  1.00  0.00    -0.087 C 
ATOM     12  C   UNL A   1      33.319  22.707  22.533  1.00  0.00    -0.085 C 
ATOM     13  H   UNL A   1      33.505  22.859  21.530  1.00  0.00     0.058 H 
ATOM     14  H   UNL A   1      34.077  22.931  24.394  1.00  0.00     0.057 H 
BRANCH  12  15
ATOM     15  C   UNL A   1      31.903  22.364  22.967  1.00  0.00    -0.017 C 
ATOM     16  H   UNL A   1      31.325  22.176  22.088  1.00  0.00     0.035 H 
ATOM     17  H   UNL A   1      31.990  21.518  23.614  1.00  0.00     0.035 H 
BRANCH  15  18
ATOM     18  C   UNL A   1      31.201  23.425  23.764  1.00  0.00    -0.084 C 
ATOM     19  C   UNL A   1      30.959  23.316  25.082  1.00  0.00    -0.084 C 
ATOM     20  H   UNL A   1      31.312  22.479  25.572  1.00  0.00     0.058 H 
ATOM     21  H   UNL A   1      30.890  24.280  23.277  1.00  0.00     0.058 H 
BRANCH  19  22
ATOM     22  C   UNL A   1      30.205  24.338  25.889  1.00  0.00    -0.017 C 
ATOM     23  H   UNL A   1      29.168  24.078  25.925  1.00  0.00     0.035 H 
ATOM     24  H   UNL A   1      30.584  24.372  26.889  1.00  0.00     0.035 H 
BRANCH  22  25
ATOM     25  C   UNL A   1      30.371  25.673  25.228  1.00  0.00    -0.084 C 
ATOM     26  C   UNL A   1      29.439  26.270  24.472  1.00  0.00    -0.084 C 
ATOM     27  H   UNL A   1      28.484  25.877  24.469  1.00  0.00     0.058 H 
ATOM     28  H   UNL A   1      31.267  26.167  25.363  1.00  0.00     0.058 H 
BRANCH  26  29
ATOM     29  C   UNL A   1      29.716  27.481  23.629  1.00  0.00    -0.017 C 
ATOM     30  H   UNL A   1      28.967  27.569  22.870  1.00  0.00     0.035 H 
ATOM     31  H   UNL A   1      29.700  28.359  24.241  1.00  0.00     0.035 H 
BRANCH  29  32
ATOM     32  C   UNL A   1      31.066  27.332  22.989  1.00  0.00    -0.085 C 
ATOM     33  C   UNL A   1      31.294  26.650  21.855  1.00  0.00    -0.089 C 
ATOM     34  H   UNL A   1      30.483  26.267  21.345  1.00  0.00     0.057 H 
ATOM     35  H   UNL A   1      31.871  27.784  23.450  1.00  0.00     0.058 H 
BRANCH  33  36
ATOM     36  C   UNL A   1      32.663  26.416  21.290  1.00  0.00    -0.038 C 
ATOM     37  H   UNL A   1      33.028  27.326  20.860  1.00  0.00     0.031 H 
ATOM     38  H   UNL A   1      33.312  26.092  22.076  1.00  0.00     0.031 H 
BRANCH  36  39
ATOM     39  C   UNL A   1      32.618  25.338  20.215  1.00  0.00    -0.062 C 
ATOM     40  H   UNL A   1      31.780  24.696  20.390  1.00  0.00     0.023 H 
ATOM     41  H   UNL A   1      33.520  24.764  20.248  1.00  0.00     0.023 H 
ATOM     42  H   UNL A   1      32.522  25.798  19.254  1.00  0.00     0.023 H 
ENDBRANCH  36  39
ENDBRANCH  33  36
ENDBRANCH  29  32
ENDBRANCH  26  29
ENDBRANCH  22  25
ENDBRANCH  19  22
ENDBRANCH  15  18
ENDBRANCH  12  15
ENDBRANCH   8  11
ENDBRANCH   5   8
ENDBRANCH   4   5
ENDBRANCH   1   4
BRANCH   1  43
ATOM     43  C   UNL A   1      35.026  24.244  26.403  1.00  0.00    -0.035 C 
ATOM     44  H   UNL A   1      35.719  24.435  25.611  1.00  0.00     0.028 H 
ATOM     45  H   UNL A   1      35.303  24.559  27.387  1.00  0.00     0.028 H 
BRANCH  43  46
ATOM     46  C   UNL A   1      33.791  25.066  26.111  1.00  0.00     0.027 C 
ATOM     47  H   UNL A   1      33.345  25.305  27.054  1.00  0.00     0.037 H 
ATOM     48  H   UNL A   1      33.220  24.444  25.454  1.00  0.00     0.037 H 
BRANCH  46  49
ATOM     49  C   UNL A   1      33.934  26.369  25.343  1.00  0.00     0.220 C 
ATOM     50  O   UNL A   1      34.191  26.329  24.134  1.00  0.00    -0.275 OA
ATOM     51  N   UNL A   1      33.734  27.603  25.869  1.00  0.00    -0.356 N 
ATOM     52  H   UNL A   1      34.141  28.327  25.340  1.00  0.00     0.163 HD
BRANCH  51  53
ATOM     53  C   UNL A   1      33.042  28.067  27.054  1.00  0.00     0.017 C 
ATOM     54  H   UNL A   1      33.673  28.765  27.564  1.00  0.00     0.049 H 
ATOM     55  H   UNL A   1      32.827  27.205  27.652  1.00  0.00     0.049 H 
BRANCH  53  56
ATOM     56  C   UNL A   1      31.713  28.748  26.752  1.00  0.00    -0.036 C 
ATOM     57  H   UNL A   1      31.336  29.191  27.650  1.00  0.00     0.028 H 
ATOM     58  H   UNL A   1      31.034  28.011  26.378  1.00  0.00     0.028 H 
BRANCH  56  59
ATOM     59  C   UNL A   1      31.876  29.841  25.685  1.00  0.00    -0.052 C 
ATOM     60  H   UNL A   1      31.467  29.471  24.768  1.00  0.00     0.027 H 
ATOM     61  H   UNL A   1      32.924  30.051  25.634  1.00  0.00     0.027 H 
BRANCH  59  62
ATOM     62  C   UNL A   1      31.191  31.178  26.004  1.00  0.00    -0.052 C 
ATOM     63  H   UNL A   1      30.154  30.983  26.179  1.00  0.00     0.027 H 
ATOM     64  H   UNL A   1      31.377  31.810  25.161  1.00  0.00     0.027 H 
BRANCH  62  65
ATOM     65  C   UNL A   1      31.739  31.930  27.218  1.00  0.00    -0.036 C 
ATOM     66  H   UNL A   1      32.242  31.225  27.845  1.00  0.00     0.028 H 
ATOM     67  H   UNL A   1      30.897  32.393  27.689  1.00  0.00     0.028 H 
BRANCH  65  68
ATOM     68  C   UNL A   1      32.715  33.052  26.889  1.00  0.00     0.018 C 
ATOM     69  H   UNL A   1      32.666  33.250  25.839  1.00  0.00     0.049 H 
ATOM     70  H   UNL A   1      33.689  32.728  27.190  1.00  0.00     0.049 H 
BRANCH  68  71
ATOM     71  N   UNL A   1      32.424  34.283  27.606  1.00  0.00    -0.352 N 
ATOM     72  C   UNL A   1      33.030  34.798  28.724  1.00  0.00     0.251 C 
ATOM     73  H   UNL A   1      31.688  34.823  27.237  1.00  0.00     0.163 HD
ATOM     74  O   UNL A   1      32.573  35.794  29.271  1.00  0.00    -0.269 OA
BRANCH  72  75
ATOM     75  C   UNL A   1      34.226  34.132  29.281  1.00  0.00     0.039 A 
ATOM     76  C   UNL A   1      34.054  33.178  30.286  1.00  0.00    -0.049 A 
ATOM     77  C   UNL A   1      35.509  34.458  28.833  1.00  0.00    -0.049 A 
ATOM     78  C   UNL A   1      35.168  32.530  30.822  1.00  0.00    -0.053 A 
ATOM     79  H   UNL A   1      33.107  32.952  30.630  1.00  0.00     0.063 H 
ATOM     80  C   UNL A   1      36.609  33.748  29.303  1.00  0.00    -0.053 A 
ATOM     81  H   UNL A   1      35.640  35.224  28.155  1.00  0.00     0.063 H 
ATOM     82  C   UNL A   1      36.452  32.799  30.323  1.00  0.00    -0.014 A 
ATOM     83  H   UNL A   1      35.046  31.850  31.588  1.00  0.00     0.063 H 
ATOM     84  H   UNL A   1      37.543  33.920  28.899  1.00  0.00     0.063 H 
BRANCH  82  85
ATOM     85  C   UNL A   1      37.648  32.140  30.904  1.00  0.00     0.031 A 
ATOM     86  C   UNL A   1      38.123  32.529  32.278  1.00  0.00     0.074 A 
ATOM     87  C   UNL A   1      38.318  31.219  30.186  1.00  0.00     0.049 A 
ATOM     88  N   UNL A   1      39.149  32.083  32.958  1.00  0.00    -0.248 NA
ATOM     89  C   UNL A   1      37.363  33.583  32.969  1.00  0.00    -0.034 C 
ATOM     90  C   UNL A   1      37.981  30.795  28.827  1.00  0.00    -0.036 A 
ATOM     91  N   UNL A   1      39.424  30.471  30.504  1.00  0.00    -0.354 N 
ATOM     92  C   UNL A   1      39.163  32.811  34.140  1.00  0.00     0.074 A 
ATOM     93  C   UNL A   1      38.088  33.773  34.059  1.00  0.00    -0.034 C 
ATOM     94  H   UNL A   1      36.490  34.052  32.678  1.00  0.00     0.065 H 
ATOM     95  C   UNL A   1      38.838  29.836  28.442  1.00  0.00    -0.036 A 
ATOM     96  H   UNL A   1      37.209  31.172  28.257  1.00  0.00     0.065 H 
ATOM     97  C   UNL A   1      39.804  29.603  29.510  1.00  0.00     0.049 A 
ATOM     98  H   UNL A   1      39.900  30.550  31.362  1.00  0.00     0.167 HD
ATOM     99  C   UNL A   1      39.982  32.671  35.210  1.00  0.00     0.037 A 
ATOM    100  H   UNL A   1      37.908  34.509  34.760  1.00  0.00     0.065 H 
ATOM    101  H   UNL A   1      38.816  29.342  27.535  1.00  0.00     0.065 H 
ATOM    102  C   UNL A   1      40.818  28.717  29.472  1.00  0.00     0.037 A 
ATOM    103  C   UNL A   1      41.032  31.691  35.294  1.00  0.00     0.049 A 
ATOM    104  C   UNL A   1      41.712  28.580  30.676  1.00  0.00     0.074 A 
ATOM    105  C   UNL A   1      41.879  31.421  36.354  1.00  0.00    -0.036 A 
ATOM    106  N   UNL A   1      41.380  30.819  34.272  1.00  0.00    -0.354 N 
ATOM    107  N   UNL A   1      41.669  29.219  31.819  1.00  0.00    -0.248 NA
ATOM    108  C   UNL A   1      42.791  27.587  30.585  1.00  0.00    -0.034 C 
ATOM    109  C   UNL A   1      42.777  30.427  35.953  1.00  0.00    -0.036 A 
ATOM    110  H   UNL A   1      41.852  31.874  37.281  1.00  0.00     0.065 H 
ATOM    111  C   UNL A   1      42.446  30.028  34.668  1.00  0.00     0.049 A 
ATOM    112  H   UNL A   1      40.936  30.771  33.394  1.00  0.00     0.167 HD
ATOM    113  C   UNL A   1      42.683  28.676  32.599  1.00  0.00     0.074 A 
ATOM    114  C   UNL A   1      43.316  27.648  31.799  1.00  0.00    -0.034 C 
ATOM    115  H   UNL A   1      43.066  26.995  29.785  1.00  0.00     0.065 H 
ATOM    116  H   UNL A   1      43.555  30.054  36.519  1.00  0.00     0.065 H 
ATOM    117  C   UNL A   1      43.054  28.998  33.864  1.00  0.00     0.037 A 
ATOM    118  H   UNL A   1      44.081  27.041  32.134  1.00  0.00     0.065 H 
BRANCH  99 119
ATOM    119  C   UNL A   1      39.777  33.604  36.370  1.00  0.00     0.064 A 
ATOM    120  C   UNL A   1      40.417  34.851  36.442  1.00  0.00     0.173 A 
ATOM    121  C   UNL A   1      38.908  33.255  37.416  1.00  0.00     0.173 A 
ATOM    122  F   UNL A   1      41.267  35.232  35.476  1.00  0.00    -0.203 F 
ATOM    123  C   UNL A   1      40.223  35.697  37.533  1.00  0.00     0.198 A 
ATOM    124  C   UNL A   1      38.689  34.118  38.487  1.00  0.00     0.198 A 
ATOM    125  F   UNL A   1      38.266  32.077  37.398  1.00  0.00    -0.203 F 
ATOM    126  F   UNL A   1      40.894  36.855  37.608  1.00  0.00    -0.200 F 
ATOM    127  C   UNL A   1      39.355  35.332  38.550  1.00  0.00     0.200 A 
ATOM    128  F   UNL A   1      37.837  33.772  39.461  1.00  0.00    -0.200 F 
ATOM    129  F   UNL A   1      39.165  36.149  39.596  1.00  0.00    -0.200 F 
ENDBRANCH  99 119
BRANCH 102 130
ATOM    130  C   UNL A   1      41.015  27.859  28.274  1.00  0.00     0.064 A 
ATOM    131  C   UNL A   1      40.442  26.581  28.201  1.00  0.00     0.173 A 
ATOM    132  C   UNL A   1      41.789  28.288  27.185  1.00  0.00     0.173 A 
ATOM    133  F   UNL A   1      39.708  26.118  29.224  1.00  0.00    -0.203 F 
ATOM    134  C   UNL A   1      40.659  25.755  27.101  1.00  0.00     0.198 A 
ATOM    135  C   UNL A   1      41.979  27.472  26.071  1.00  0.00     0.198 A 
ATOM    136  F   UNL A   1      42.354  29.503  27.200  1.00  0.00    -0.203 F 
ATOM    137  F   UNL A   1      40.144  24.517  27.083  1.00  0.00    -0.200 F 
ATOM    138  C   UNL A   1      41.423  26.202  26.034  1.00  0.00     0.200 A 
ATOM    139  F   UNL A   1      42.704  27.915  25.036  1.00  0.00    -0.200 F 
ATOM    140  F   UNL A   1      41.631  25.407  24.975  1.00  0.00    -0.200 F 
ENDBRANCH 102 130
BRANCH 117 141
ATOM    141  C   UNL A   1      44.158  28.188  34.484  1.00  0.00     0.064 A 
ATOM    142  C   UNL A   1      43.910  26.979  35.150  1.00  0.00     0.173 A 
ATOM    143  C   UNL A   1      45.490  28.619  34.381  1.00  0.00     0.173 A 
ATOM    144  F   UNL A   1      42.654  26.527  35.287  1.00  0.00    -0.203 F 
ATOM    145  C   UNL A   1      44.950  26.253  35.725  1.00  0.00     0.198 A 
ATOM    146  C   UNL A   1      46.530  27.872  34.923  1.00  0.00     0.198 A 
ATOM    147  F   UNL A   1      45.784  29.763  33.744  1.00  0.00    -0.203 F 
ATOM    148  F   UNL A   1      44.683  25.134  36.413  1.00  0.00    -0.200 F 
ATOM    149  C   UNL A   1      46.259  26.696  35.605  1.00  0.00     0.200 A 
ATOM    150  F   UNL A   1      47.796  28.292  34.788  1.00  0.00    -0.200 F 
ATOM    151  F   UNL A   1      47.259  25.993  36.154  1.00  0.00    -0.200 F 
ENDBRANCH 117 141
ENDBRANCH  82  85
ENDBRANCH  72  75
ENDBRANCH  68  71
ENDBRANCH  65  68
ENDBRANCH  62  65
ENDBRANCH  59  62
ENDBRANCH  56  59
ENDBRANCH  53  56
ENDBRANCH  51  53
ENDBRANCH  46  49
ENDBRANCH  43  46
ENDBRANCH   1  43
TORSDOF 27
ENDMDL
MODEL 4
REMARK VINA RESULT:      -8.7      1.675      8.741
REMARK SMILES CC/C=C/C/C=C/C/C=C/C/C=C/CCSCCCC(=O)NCCCCCCNC(=O)c1ccc(-c2c3nc(c(-c4c(F)c(F)c(F)c(F)c4F)c4ccc([nH]4)c(-c4c(F)c(F)c(F)c(F)c4F)c4nc(c(-c5c(F)c(F)c(F)c(F)c5F)c5ccc2[nH]5)C=C4)C=C3)cc1
REMARK SMILES IDX 17 1 16 4 15 5 14 8 13 11 12 12 11 15 10 18 9 19 8 22 7 25
REMARK SMILES IDX 6 26 5 29 4 32 3 33 2 36 1 39 18 43 19 46 20 49 21 50 22 51
REMARK SMILES IDX 23 53 24 56 25 59 26 62 27 65 28 68 29 71 30 72 31 74 32 75
REMARK SMILES IDX 33 76 94 77 34 78 93 80 35 82 36 85 37 86 87 87 38 88 92 89
REMARK SMILES IDX 86 90 88 91 39 92 91 93 85 95 84 97 40 99 72 102 52 103
REMARK SMILES IDX 71 104 53 105 56 106 70 107 89 108 54 109 55 111 69 113
REMARK SMILES IDX 90 114 57 117 41 119 42 120 50 121 43 122 44 123 48 124
REMARK SMILES IDX 51 125 45 126 46 127 49 128 47 129 73 130 74 131 82 132
REMARK SMILES IDX 75 133 76 134 80 135 83 136 77 137 78 138 81 139 79 140
REMARK SMILES IDX 58 141 59 142 67 143 60 144 61 145 65 146 68 147 62 148
REMARK SMILES IDX 63 149 66 150 64 151
REMARK H PARENT 17 2 17 3 15 6 15 7 14 9 14 10 12 13 13 14 11 16 11 17 9 20
REMARK H PARENT 10 21 8 23 8 24 6 27 7 28 5 30 5 31 3 34 4 35 2 37 2 38 1 40
REMARK H PARENT 1 41 1 42 18 44 18 45 19 47 19 48 22 52 23 54 23 55 24 57
REMARK H PARENT 24 58 25 60 25 61 26 63 26 64 27 66 27 67 28 69 28 70 29 73
REMARK H PARENT 33 79 94 81 34 83 93 84 92 94 86 96 88 98 91 100 85 101 53 110
REMARK H PARENT 56 112 89 115 54 116 90 118
REMARK Flexibility Score: inf
ROOT
ATOM      1  C   UNL A   1      32.707  25.126  22.020  1.00  0.00    -0.006 C 
ATOM      2  H   UNL A   1      31.745  25.233  22.477  1.00  0.00     0.038 H 
ATOM      3  H   UNL A   1      32.910  25.251  20.978  1.00  0.00     0.038 H 
ENDROOT
BRANCH   1   4
ATOM      4  S   UNL A   1      33.086  23.318  22.155  1.00  0.00    -0.162 SA
BRANCH   4   5
ATOM      5  C   UNL A   1      32.803  22.695  23.872  1.00  0.00    -0.003 C 
ATOM      6  H   UNL A   1      32.834  23.541  24.526  1.00  0.00     0.038 H 
ATOM      7  H   UNL A   1      31.865  22.182  23.819  1.00  0.00     0.038 H 
BRANCH   5   8
ATOM      8  C   UNL A   1      33.794  21.635  24.437  1.00  0.00    -0.026 C 
ATOM      9  H   UNL A   1      33.413  21.305  25.381  1.00  0.00     0.032 H 
ATOM     10  H   UNL A   1      33.849  20.870  23.692  1.00  0.00     0.032 H 
BRANCH   8  11
ATOM     11  C   UNL A   1      35.213  22.094  24.648  1.00  0.00    -0.087 C 
ATOM     12  C   UNL A   1      35.661  23.349  24.840  1.00  0.00    -0.085 C 
ATOM     13  H   UNL A   1      35.043  24.137  24.593  1.00  0.00     0.058 H 
ATOM     14  H   UNL A   1      35.931  21.354  24.643  1.00  0.00     0.057 H 
BRANCH  12  15
ATOM     15  C   UNL A   1      37.038  23.651  25.406  1.00  0.00    -0.017 C 
ATOM     16  H   UNL A   1      37.458  24.456  24.841  1.00  0.00     0.035 H 
ATOM     17  H   UNL A   1      36.888  23.883  26.439  1.00  0.00     0.035 H 
BRANCH  15  18
ATOM     18  C   UNL A   1      38.011  22.508  25.376  1.00  0.00    -0.084 C 
ATOM     19  C   UNL A   1      38.926  22.294  26.337  1.00  0.00    -0.084 C 
ATOM     20  H   UNL A   1      38.928  22.927  27.153  1.00  0.00     0.058 H 
ATOM     21  H   UNL A   1      37.974  21.853  24.579  1.00  0.00     0.058 H 
BRANCH  19  22
ATOM     22  C   UNL A   1      39.949  21.192  26.298  1.00  0.00    -0.017 C 
ATOM     23  H   UNL A   1      39.460  20.243  26.353  1.00  0.00     0.035 H 
ATOM     24  H   UNL A   1      40.506  21.238  25.385  1.00  0.00     0.035 H 
BRANCH  22  25
ATOM     25  C   UNL A   1      40.865  21.361  27.472  1.00  0.00    -0.084 C 
ATOM     26  C   UNL A   1      41.399  22.528  27.861  1.00  0.00    -0.084 C 
ATOM     27  H   UNL A   1      41.037  23.397  27.438  1.00  0.00     0.058 H 
ATOM     28  H   UNL A   1      41.103  20.519  28.019  1.00  0.00     0.058 H 
BRANCH  26  29
ATOM     29  C   UNL A   1      42.495  22.631  28.881  1.00  0.00    -0.017 C 
ATOM     30  H   UNL A   1      42.107  22.396  29.850  1.00  0.00     0.035 H 
ATOM     31  H   UNL A   1      43.279  21.944  28.641  1.00  0.00     0.035 H 
BRANCH  29  32
ATOM     32  C   UNL A   1      43.032  24.033  28.882  1.00  0.00    -0.085 C 
ATOM     33  C   UNL A   1      43.869  24.523  27.954  1.00  0.00    -0.089 C 
ATOM     34  H   UNL A   1      44.101  23.928  27.144  1.00  0.00     0.057 H 
ATOM     35  H   UNL A   1      42.737  24.662  29.646  1.00  0.00     0.058 H 
BRANCH  33  36
ATOM     36  C   UNL A   1      44.485  25.889  28.031  1.00  0.00    -0.038 C 
ATOM     37  H   UNL A   1      45.276  25.960  27.314  1.00  0.00     0.031 H 
ATOM     38  H   UNL A   1      43.733  26.620  27.826  1.00  0.00     0.031 H 
BRANCH  36  39
ATOM     39  C   UNL A   1      45.049  26.141  29.423  1.00  0.00    -0.062 C 
ATOM     40  H   UNL A   1      44.702  25.380  30.091  1.00  0.00     0.023 H 
ATOM     41  H   UNL A   1      44.722  27.097  29.772  1.00  0.00     0.023 H 
ATOM     42  H   UNL A   1      46.118  26.121  29.383  1.00  0.00     0.023 H 
ENDBRANCH  36  39
ENDBRANCH  33  36
ENDBRANCH  29  32
ENDBRANCH  26  29
ENDBRANCH  22  25
ENDBRANCH  19  22
ENDBRANCH  15  18
ENDBRANCH  12  15
ENDBRANCH   8  11
ENDBRANCH   5   8
ENDBRANCH   4   5
ENDBRANCH   1   4
BRANCH   1  43
ATOM     43  C   UNL A   1      33.514  26.309  22.549  1.00  0.00    -0.035 C 
ATOM     44  H   UNL A   1      33.041  27.194  22.181  1.00  0.00     0.028 H 
ATOM     45  H   UNL A   1      34.506  26.100  22.207  1.00  0.00     0.028 H 
BRANCH  43  46
ATOM     46  C   UNL A   1      33.694  26.497  24.039  1.00  0.00     0.027 C 
ATOM     47  H   UNL A   1      34.108  27.473  24.182  1.00  0.00     0.037 H 
ATOM     48  H   UNL A   1      34.306  25.669  24.328  1.00  0.00     0.037 H 
BRANCH  46  49
ATOM     49  C   UNL A   1      32.483  26.389  24.950  1.00  0.00     0.220 C 
ATOM     50  O   UNL A   1      32.495  25.563  25.869  1.00  0.00    -0.275 OA
ATOM     51  N   UNL A   1      31.388  27.187  24.879  1.00  0.00    -0.356 N 
ATOM     52  H   UNL A   1      30.597  26.810  25.328  1.00  0.00     0.163 HD
BRANCH  51  53
ATOM     53  C   UNL A   1      31.151  28.482  24.274  1.00  0.00     0.017 C 
ATOM     54  H   UNL A   1      30.100  28.681  24.301  1.00  0.00     0.049 H 
ATOM     55  H   UNL A   1      31.528  28.436  23.273  1.00  0.00     0.049 H 
BRANCH  53  56
ATOM     56  C   UNL A   1      31.878  29.621  24.977  1.00  0.00    -0.036 C 
ATOM     57  H   UNL A   1      31.454  30.552  24.663  1.00  0.00     0.028 H 
ATOM     58  H   UNL A   1      32.915  29.570  24.719  1.00  0.00     0.028 H 
BRANCH  56  59
ATOM     59  C   UNL A   1      31.754  29.505  26.504  1.00  0.00    -0.052 C 
ATOM     60  H   UNL A   1      32.126  28.544  26.793  1.00  0.00     0.027 H 
ATOM     61  H   UNL A   1      30.718  29.650  26.728  1.00  0.00     0.027 H 
BRANCH  59  62
ATOM     62  C   UNL A   1      32.514  30.570  27.308  1.00  0.00    -0.052 C 
ATOM     63  H   UNL A   1      33.519  30.601  26.944  1.00  0.00     0.027 H 
ATOM     64  H   UNL A   1      32.434  30.273  28.333  1.00  0.00     0.027 H 
BRANCH  62  65
ATOM     65  C   UNL A   1      31.943  31.986  27.237  1.00  0.00    -0.036 C 
ATOM     66  H   UNL A   1      31.434  32.185  28.157  1.00  0.00     0.028 H 
ATOM     67  H   UNL A   1      31.299  32.008  26.383  1.00  0.00     0.028 H 
BRANCH  65  68
ATOM     68  C   UNL A   1      32.976  33.084  27.022  1.00  0.00     0.018 C 
ATOM     69  H   UNL A   1      33.087  33.245  25.970  1.00  0.00     0.049 H 
ATOM     70  H   UNL A   1      33.889  32.758  27.474  1.00  0.00     0.049 H 
BRANCH  68  71
ATOM     71  N   UNL A   1      32.604  34.342  27.647  1.00  0.00    -0.352 N 
ATOM     72  C   UNL A   1      33.070  34.904  28.808  1.00  0.00     0.251 C 
ATOM     73  H   UNL A   1      31.920  34.866  27.169  1.00  0.00     0.163 HD
ATOM     74  O   UNL A   1      32.554  35.920  29.254  1.00  0.00    -0.269 OA
BRANCH  72  75
ATOM     75  C   UNL A   1      34.188  34.264  29.534  1.00  0.00     0.039 A 
ATOM     76  C   UNL A   1      35.496  34.603  29.181  1.00  0.00    -0.049 A 
ATOM     77  C   UNL A   1      33.953  33.324  30.541  1.00  0.00    -0.049 A 
ATOM     78  C   UNL A   1      36.568  34.018  29.858  1.00  0.00    -0.053 A 
ATOM     79  H   UNL A   1      35.670  35.283  28.423  1.00  0.00     0.063 H 
ATOM     80  C   UNL A   1      35.017  32.812  31.274  1.00  0.00    -0.053 A 
ATOM     81  H   UNL A   1      32.990  33.012  30.741  1.00  0.00     0.063 H 
ATOM     82  C   UNL A   1      36.336  33.130  30.920  1.00  0.00    -0.014 A 
ATOM     83  H   UNL A   1      37.535  34.240  29.575  1.00  0.00     0.063 H 
ATOM     84  H   UNL A   1      34.836  32.196  32.082  1.00  0.00     0.063 H 
BRANCH  82  85
ATOM     85  C   UNL A   1      37.465  32.478  31.628  1.00  0.00     0.031 A 
ATOM     86  C   UNL A   1      38.180  31.319  30.988  1.00  0.00     0.074 A 
ATOM     87  C   UNL A   1      37.825  32.909  32.852  1.00  0.00     0.049 A 
ATOM     88  N   UNL A   1      39.180  30.607  31.444  1.00  0.00    -0.248 NA
ATOM     89  C   UNL A   1      37.685  30.880  29.673  1.00  0.00    -0.034 C 
ATOM     90  C   UNL A   1      37.177  33.992  33.592  1.00  0.00    -0.036 A 
ATOM     91  N   UNL A   1      38.828  32.487  33.688  1.00  0.00    -0.354 N 
ATOM     92  C   UNL A   1      39.418  29.633  30.483  1.00  0.00     0.074 A 
ATOM     93  C   UNL A   1      38.419  29.801  29.452  1.00  0.00    -0.034 C 
ATOM     94  H   UNL A   1      36.956  31.303  29.078  1.00  0.00     0.065 H 
ATOM     95  C   UNL A   1      37.821  34.174  34.756  1.00  0.00    -0.036 A 
ATOM     96  H   UNL A   1      36.356  34.528  33.272  1.00  0.00     0.065 H 
ATOM     97  C   UNL A   1      38.903  33.201  34.859  1.00  0.00     0.049 A 
ATOM     98  H   UNL A   1      39.435  31.743  33.470  1.00  0.00     0.167 HD
ATOM     99  C   UNL A   1      40.399  28.700  30.449  1.00  0.00     0.037 A 
ATOM    100  H   UNL A   1      38.295  29.164  28.649  1.00  0.00     0.065 H 
ATOM    101  H   UNL A   1      37.589  34.889  35.463  1.00  0.00     0.065 H 
ATOM    102  C   UNL A   1      39.755  33.081  35.895  1.00  0.00     0.037 A 
ATOM    103  C   UNL A   1      41.408  28.559  31.466  1.00  0.00     0.049 A 
ATOM    104  C   UNL A   1      40.839  32.037  35.831  1.00  0.00     0.074 A 
ATOM    105  C   UNL A   1      42.484  27.691  31.501  1.00  0.00    -0.036 A 
ATOM    106  N   UNL A   1      41.460  29.309  32.633  1.00  0.00    -0.354 N 
ATOM    107  N   UNL A   1      41.104  31.173  34.882  1.00  0.00    -0.248 NA
ATOM    108  C   UNL A   1      41.750  31.963  36.981  1.00  0.00    -0.034 C 
ATOM    109  C   UNL A   1      43.153  27.874  32.715  1.00  0.00    -0.036 A 
ATOM    110  H   UNL A   1      42.748  27.024  30.759  1.00  0.00     0.065 H 
ATOM    111  C   UNL A   1      42.536  28.904  33.406  1.00  0.00     0.049 A 
ATOM    112  H   UNL A   1      40.826  30.021  32.876  1.00  0.00     0.167 HD
ATOM    113  C   UNL A   1      42.236  30.483  35.299  1.00  0.00     0.074 A 
ATOM    114  C   UNL A   1      42.612  31.038  36.582  1.00  0.00    -0.034 C 
ATOM    115  H   UNL A   1      41.726  32.493  37.866  1.00  0.00     0.065 H 
ATOM    116  H   UNL A   1      43.969  27.333  33.041  1.00  0.00     0.065 H 
ATOM    117  C   UNL A   1      42.905  29.481  34.674  1.00  0.00     0.037 A 
ATOM    118  H   UNL A   1      43.445  30.751  37.119  1.00  0.00     0.065 H 
BRANCH  99 119
ATOM    119  C   UNL A   1      40.424  27.758  29.279  1.00  0.00     0.064 A 
ATOM    120  C   UNL A   1      39.597  26.625  29.220  1.00  0.00     0.173 A 
ATOM    121  C   UNL A   1      41.272  28.004  28.188  1.00  0.00     0.173 A 
ATOM    122  F   UNL A   1      38.775  26.334  30.239  1.00  0.00    -0.203 F 
ATOM    123  C   UNL A   1      39.644  25.757  28.131  1.00  0.00     0.198 A 
ATOM    124  C   UNL A   1      41.290  27.153  27.085  1.00  0.00     0.198 A 
ATOM    125  F   UNL A   1      42.082  29.074  28.187  1.00  0.00    -0.203 F 
ATOM    126  F   UNL A   1      38.889  24.649  28.127  1.00  0.00    -0.200 F 
ATOM    127  C   UNL A   1      40.485  26.026  27.063  1.00  0.00     0.200 A 
ATOM    128  F   UNL A   1      42.092  27.423  26.046  1.00  0.00    -0.200 F 
ATOM    129  F   UNL A   1      40.525  25.192  26.014  1.00  0.00    -0.200 F 
ENDBRANCH  99 119
BRANCH 102 130
ATOM    130  C   UNL A   1      39.651  34.000  37.058  1.00  0.00     0.064 A 
ATOM    131  C   UNL A   1      38.867  33.666  38.172  1.00  0.00     0.173 A 
ATOM    132  C   UNL A   1      40.317  35.235  37.079  1.00  0.00     0.173 A 
ATOM    133  F   UNL A   1      38.196  32.505  38.194  1.00  0.00    -0.203 F 
ATOM    134  C   UNL A   1      38.729  34.542  39.246  1.00  0.00     0.198 A 
ATOM    135  C   UNL A   1      40.204  36.096  38.169  1.00  0.00     0.198 A 
ATOM    136  F   UNL A   1      41.085  35.601  36.042  1.00  0.00    -0.203 F 
ATOM    137  F   UNL A   1      37.929  34.220  40.273  1.00  0.00    -0.200 F 
ATOM    138  C   UNL A   1      39.402  35.755  39.247  1.00  0.00     0.200 A 
ATOM    139  F   UNL A   1      40.869  37.259  38.171  1.00  0.00    -0.200 F 
ATOM    140  F   UNL A   1      39.270  36.597  40.281  1.00  0.00    -0.200 F 
ENDBRANCH 102 130
BRANCH 117 141
ATOM    141  C   UNL A   1      44.148  28.964  35.342  1.00  0.00     0.064 A 
ATOM    142  C   UNL A   1      44.118  27.889  36.241  1.00  0.00     0.173 A 
ATOM    143  C   UNL A   1      45.395  29.541  35.051  1.00  0.00     0.173 A 
ATOM    144  F   UNL A   1      42.951  27.309  36.562  1.00  0.00    -0.203 F 
ATOM    145  C   UNL A   1      45.283  27.436  36.854  1.00  0.00     0.198 A 
ATOM    146  C   UNL A   1      46.562  29.061  35.637  1.00  0.00     0.198 A 
ATOM    147  F   UNL A   1      45.483  30.565  34.189  1.00  0.00    -0.203 F 
ATOM    148  F   UNL A   1      45.221  26.448  37.759  1.00  0.00    -0.200 F 
ATOM    149  C   UNL A   1      46.504  28.016  36.546  1.00  0.00     0.200 A 
ATOM    150  F   UNL A   1      47.743  29.611  35.322  1.00  0.00    -0.200 F 
ATOM    151  F   UNL A   1      47.625  27.575  37.133  1.00  0.00    -0.200 F 
ENDBRANCH 117 141
ENDBRANCH  82  85
ENDBRANCH  72  75
ENDBRANCH  68  71
ENDBRANCH  65  68
ENDBRANCH  62  65
ENDBRANCH  59  62
ENDBRANCH  56  59
ENDBRANCH  53  56
ENDBRANCH  51  53
ENDBRANCH  46  49
ENDBRANCH  43  46
ENDBRANCH   1  43
TORSDOF 27
ENDMDL
MODEL 5
REMARK VINA RESULT:      -8.5      1.945      5.406
REMARK SMILES CC/C=C/C/C=C/C/C=C/C/C=C/CCSCCCC(=O)NCCCCCCNC(=O)c1ccc(-c2c3nc(c(-c4c(F)c(F)c(F)c(F)c4F)c4ccc([nH]4)c(-c4c(F)c(F)c(F)c(F)c4F)c4nc(c(-c5c(F)c(F)c(F)c(F)c5F)c5ccc2[nH]5)C=C4)C=C3)cc1
REMARK SMILES IDX 17 1 16 4 15 5 14 8 13 11 12 12 11 15 10 18 9 19 8 22 7 25
REMARK SMILES IDX 6 26 5 29 4 32 3 33 2 36 1 39 18 43 19 46 20 49 21 50 22 51
REMARK SMILES IDX 23 53 24 56 25 59 26 62 27 65 28 68 29 71 30 72 31 74 32 75
REMARK SMILES IDX 33 76 94 77 34 78 93 80 35 82 36 85 37 86 87 87 38 88 92 89
REMARK SMILES IDX 86 90 88 91 39 92 91 93 85 95 84 97 40 99 72 102 52 103
REMARK SMILES IDX 71 104 53 105 56 106 70 107 89 108 54 109 55 111 69 113
REMARK SMILES IDX 90 114 57 117 41 119 42 120 50 121 43 122 44 123 48 124
REMARK SMILES IDX 51 125 45 126 46 127 49 128 47 129 73 130 74 131 82 132
REMARK SMILES IDX 75 133 76 134 80 135 83 136 77 137 78 138 81 139 79 140
REMARK SMILES IDX 58 141 59 142 67 143 60 144 61 145 65 146 68 147 62 148
REMARK SMILES IDX 63 149 66 150 64 151
REMARK H PARENT 17 2 17 3 15 6 15 7 14 9 14 10 12 13 13 14 11 16 11 17 9 20
REMARK H PARENT 10 21 8 23 8 24 6 27 7 28 5 30 5 31 3 34 4 35 2 37 2 38 1 40
REMARK H PARENT 1 41 1 42 18 44 18 45 19 47 19 48 22 52 23 54 23 55 24 57
REMARK H PARENT 24 58 25 60 25 61 26 63 26 64 27 66 27 67 28 69 28 70 29 73
REMARK H PARENT 33 79 94 81 34 83 93 84 92 94 86 96 88 98 91 100 85 101 53 110
REMARK H PARENT 56 112 89 115 54 116 90 118
REMARK Flexibility Score: inf
ROOT
ATOM      1  C   UNL A   1      32.827  25.658  21.974  1.00  0.00    -0.006 C 
ATOM      2  H   UNL A   1      31.833  25.787  22.351  1.00  0.00     0.038 H 
ATOM      3  H   UNL A   1      33.136  25.869  20.973  1.00  0.00     0.038 H 
ENDROOT
BRANCH   1   4
ATOM      4  S   UNL A   1      33.083  23.824  21.957  1.00  0.00    -0.162 SA
BRANCH   4   5
ATOM      5  C   UNL A   1      32.201  23.006  23.361  1.00  0.00    -0.003 C 
ATOM      6  H   UNL A   1      32.009  23.758  24.097  1.00  0.00     0.038 H 
ATOM      7  H   UNL A   1      31.336  22.563  22.911  1.00  0.00     0.038 H 
BRANCH   5   8
ATOM      8  C   UNL A   1      32.912  21.823  24.081  1.00  0.00    -0.026 C 
ATOM      9  H   UNL A   1      32.279  21.501  24.881  1.00  0.00     0.032 H 
ATOM     10  H   UNL A   1      33.077  21.085  23.324  1.00  0.00     0.032 H 
BRANCH   8  11
ATOM     11  C   UNL A   1      34.272  22.116  24.659  1.00  0.00    -0.087 C 
ATOM     12  C   UNL A   1      34.896  23.304  24.757  1.00  0.00    -0.085 C 
ATOM     13  H   UNL A   1      34.555  24.090  24.182  1.00  0.00     0.058 H 
ATOM     14  H   UNL A   1      34.791  21.302  25.026  1.00  0.00     0.057 H 
BRANCH  12  15
ATOM     15  C   UNL A   1      36.081  23.536  25.680  1.00  0.00    -0.017 C 
ATOM     16  H   UNL A   1      36.692  24.299  25.246  1.00  0.00     0.035 H 
ATOM     17  H   UNL A   1      35.667  23.805  26.629  1.00  0.00     0.035 H 
BRANCH  15  18
ATOM     18  C   UNL A   1      36.946  22.336  25.929  1.00  0.00    -0.084 C 
ATOM     19  C   UNL A   1      38.240  22.273  25.566  1.00  0.00    -0.084 C 
ATOM     20  H   UNL A   1      38.662  23.109  25.133  1.00  0.00     0.058 H 
ATOM     21  H   UNL A   1      36.529  21.519  26.403  1.00  0.00     0.058 H 
BRANCH  19  22
ATOM     22  C   UNL A   1      39.109  21.060  25.752  1.00  0.00    -0.017 C 
ATOM     23  H   UNL A   1      38.598  20.336  26.351  1.00  0.00     0.035 H 
ATOM     24  H   UNL A   1      39.335  20.619  24.803  1.00  0.00     0.035 H 
BRANCH  22  25
ATOM     25  C   UNL A   1      40.371  21.488  26.437  1.00  0.00    -0.084 C 
ATOM     26  C   UNL A   1      41.504  21.829  25.805  1.00  0.00    -0.084 C 
ATOM     27  H   UNL A   1      41.472  21.969  24.783  1.00  0.00     0.058 H 
ATOM     28  H   UNL A   1      40.369  21.522  27.468  1.00  0.00     0.058 H 
BRANCH  26  29
ATOM     29  C   UNL A   1      42.814  22.017  26.512  1.00  0.00    -0.017 C 
ATOM     30  H   UNL A   1      42.965  23.056  26.718  1.00  0.00     0.035 H 
ATOM     31  H   UNL A   1      42.811  21.472  27.433  1.00  0.00     0.035 H 
BRANCH  29  32
ATOM     32  C   UNL A   1      43.922  21.514  25.630  1.00  0.00    -0.085 C 
ATOM     33  C   UNL A   1      44.052  20.239  25.231  1.00  0.00    -0.089 C 
ATOM     34  H   UNL A   1      43.304  19.573  25.479  1.00  0.00     0.057 H 
ATOM     35  H   UNL A   1      44.629  22.194  25.309  1.00  0.00     0.058 H 
BRANCH  33  36
ATOM     36  C   UNL A   1      45.224  19.731  24.445  1.00  0.00    -0.038 C 
ATOM     37  H   UNL A   1      44.900  18.941  23.801  1.00  0.00     0.031 H 
ATOM     38  H   UNL A   1      45.629  20.535  23.869  1.00  0.00     0.031 H 
BRANCH  36  39
ATOM     39  C   UNL A   1      46.303  19.203  25.381  1.00  0.00    -0.062 C 
ATOM     40  H   UNL A   1      47.150  18.889  24.806  1.00  0.00     0.023 H 
ATOM     41  H   UNL A   1      45.920  18.372  25.934  1.00  0.00     0.023 H 
ATOM     42  H   UNL A   1      46.599  19.977  26.057  1.00  0.00     0.023 H 
ENDBRANCH  36  39
ENDBRANCH  33  36
ENDBRANCH  29  32
ENDBRANCH  26  29
ENDBRANCH  22  25
ENDBRANCH  19  22
ENDBRANCH  15  18
ENDBRANCH  12  15
ENDBRANCH   8  11
ENDBRANCH   5   8
ENDBRANCH   4   5
ENDBRANCH   1   4
BRANCH   1  43
ATOM     43  C   UNL A   1      33.648  26.727  22.691  1.00  0.00    -0.035 C 
ATOM     44  H   UNL A   1      33.244  27.673  22.401  1.00  0.00     0.028 H 
ATOM     45  H   UNL A   1      34.651  26.506  22.391  1.00  0.00     0.028 H 
BRANCH  43  46
ATOM     46  C   UNL A   1      33.731  26.731  24.201  1.00  0.00     0.027 C 
ATOM     47  H   UNL A   1      34.075  27.702  24.492  1.00  0.00     0.037 H 
ATOM     48  H   UNL A   1      34.375  25.907  24.424  1.00  0.00     0.037 H 
BRANCH  46  49
ATOM     49  C   UNL A   1      32.478  26.443  25.012  1.00  0.00     0.220 C 
ATOM     50  O   UNL A   1      32.526  25.594  25.909  1.00  0.00    -0.275 OA
ATOM     51  N   UNL A   1      31.300  27.101  24.876  1.00  0.00    -0.356 N 
ATOM     52  H   UNL A   1      30.532  26.614  25.252  1.00  0.00     0.163 HD
BRANCH  51  53
ATOM     53  C   UNL A   1      30.948  28.377  24.287  1.00  0.00     0.017 C 
ATOM     54  H   UNL A   1      29.889  28.508  24.371  1.00  0.00     0.049 H 
ATOM     55  H   UNL A   1      31.271  28.354  23.266  1.00  0.00     0.049 H 
BRANCH  53  56
ATOM     56  C   UNL A   1      31.636  29.562  24.951  1.00  0.00    -0.036 C 
ATOM     57  H   UNL A   1      31.056  30.444  24.778  1.00  0.00     0.028 H 
ATOM     58  H   UNL A   1      32.615  29.662  24.531  1.00  0.00     0.028 H 
BRANCH  56  59
ATOM     59  C   UNL A   1      31.780  29.348  26.466  1.00  0.00    -0.052 C 
ATOM     60  H   UNL A   1      32.307  28.430  26.620  1.00  0.00     0.027 H 
ATOM     61  H   UNL A   1      30.784  29.343  26.858  1.00  0.00     0.027 H 
BRANCH  59  62
ATOM     62  C   UNL A   1      32.527  30.458  27.218  1.00  0.00    -0.052 C 
ATOM     63  H   UNL A   1      33.502  30.548  26.788  1.00  0.00     0.027 H 
ATOM     64  H   UNL A   1      32.534  30.160  28.246  1.00  0.00     0.027 H 
BRANCH  62  65
ATOM     65  C   UNL A   1      31.870  31.838  27.188  1.00  0.00    -0.036 C 
ATOM     66  H   UNL A   1      31.425  32.014  28.145  1.00  0.00     0.028 H 
ATOM     67  H   UNL A   1      31.159  31.814  26.389  1.00  0.00     0.028 H 
BRANCH  65  68
ATOM     68  C   UNL A   1      32.815  32.992  26.885  1.00  0.00     0.018 C 
ATOM     69  H   UNL A   1      32.766  33.207  25.838  1.00  0.00     0.049 H 
ATOM     70  H   UNL A   1      33.796  32.690  27.185  1.00  0.00     0.049 H 
BRANCH  68  71
ATOM     71  N   UNL A   1      32.487  34.201  27.622  1.00  0.00    -0.352 N 
ATOM     72  C   UNL A   1      33.033  34.681  28.786  1.00  0.00     0.251 C 
ATOM     73  H   UNL A   1      31.772  34.753  27.232  1.00  0.00     0.163 HD
ATOM     74  O   UNL A   1      32.548  35.661  29.338  1.00  0.00    -0.269 OA
BRANCH  72  75
ATOM     75  C   UNL A   1      34.198  33.997  29.385  1.00  0.00     0.039 A 
ATOM     76  C   UNL A   1      35.479  34.456  29.067  1.00  0.00    -0.049 A 
ATOM     77  C   UNL A   1      34.035  32.902  30.237  1.00  0.00    -0.049 A 
ATOM     78  C   UNL A   1      36.595  33.831  29.627  1.00  0.00    -0.053 A 
ATOM     79  H   UNL A   1      35.600  35.253  28.422  1.00  0.00     0.063 H 
ATOM     80  C   UNL A   1      35.141  32.340  30.864  1.00  0.00    -0.053 A 
ATOM     81  H   UNL A   1      33.094  32.512  30.401  1.00  0.00     0.063 H 
ATOM     82  C   UNL A   1      36.433  32.779  30.542  1.00  0.00    -0.014 A 
ATOM     83  H   UNL A   1      37.542  34.145  29.367  1.00  0.00     0.063 H 
ATOM     84  H   UNL A   1      35.011  31.598  31.569  1.00  0.00     0.063 H 
BRANCH  82  85
ATOM     85  C   UNL A   1      37.611  32.087  31.122  1.00  0.00     0.031 A 
ATOM     86  C   UNL A   1      38.077  32.439  32.509  1.00  0.00     0.074 A 
ATOM     87  C   UNL A   1      38.274  31.169  30.393  1.00  0.00     0.049 A 
ATOM     88  N   UNL A   1      39.087  31.961  33.191  1.00  0.00    -0.248 NA
ATOM     89  C   UNL A   1      37.326  33.491  33.213  1.00  0.00    -0.034 C 
ATOM     90  C   UNL A   1      37.945  30.779  29.021  1.00  0.00    -0.036 A 
ATOM     91  N   UNL A   1      39.362  30.395  30.707  1.00  0.00    -0.354 N 
ATOM     92  C   UNL A   1      39.100  32.663  34.388  1.00  0.00     0.074 A 
ATOM     93  C   UNL A   1      38.042  33.646  34.315  1.00  0.00    -0.034 C 
ATOM     94  H   UNL A   1      36.466  33.982  32.922  1.00  0.00     0.065 H 
ATOM     95  C   UNL A   1      38.789  29.814  28.625  1.00  0.00    -0.036 A 
ATOM     96  H   UNL A   1      37.186  31.182  28.450  1.00  0.00     0.065 H 
ATOM     97  C   UNL A   1      39.739  29.542  29.699  1.00  0.00     0.049 A 
ATOM     98  H   UNL A   1      39.830  30.448  31.572  1.00  0.00     0.167 HD
ATOM     99  C   UNL A   1      39.904  32.488  35.464  1.00  0.00     0.037 A 
ATOM    100  H   UNL A   1      37.867  34.371  35.029  1.00  0.00     0.065 H 
ATOM    101  H   UNL A   1      38.770  29.340  27.709  1.00  0.00     0.065 H 
ATOM    102  C   UNL A   1      40.738  28.639  29.654  1.00  0.00     0.037 A 
ATOM    103  C   UNL A   1      40.936  31.487  35.539  1.00  0.00     0.049 A 
ATOM    104  C   UNL A   1      41.616  28.462  30.865  1.00  0.00     0.074 A 
ATOM    105  C   UNL A   1      41.765  31.181  36.603  1.00  0.00    -0.036 A 
ATOM    106  N   UNL A   1      41.281  30.631  34.503  1.00  0.00    -0.354 N 
ATOM    107  N   UNL A   1      41.570  29.077  32.021  1.00  0.00    -0.248 NA
ATOM    108  C   UNL A   1      42.678  27.452  30.765  1.00  0.00    -0.034 C 
ATOM    109  C   UNL A   1      42.651  30.180  36.191  1.00  0.00    -0.036 A 
ATOM    110  H   UNL A   1      41.735  31.615  37.539  1.00  0.00     0.065 H 
ATOM    111  C   UNL A   1      42.328  29.814  34.895  1.00  0.00     0.049 A 
ATOM    112  H   UNL A   1      40.845  30.610  33.620  1.00  0.00     0.167 HD
ATOM    113  C   UNL A   1      42.565  28.501  32.801  1.00  0.00     0.074 A 
ATOM    114  C   UNL A   1      43.190  27.479  31.987  1.00  0.00    -0.034 C 
ATOM    115  H   UNL A   1      42.952  26.872  29.957  1.00  0.00     0.065 H 
ATOM    116  H   UNL A   1      43.416  29.781  36.758  1.00  0.00     0.065 H 
ATOM    117  C   UNL A   1      42.927  28.790  34.076  1.00  0.00     0.037 A 
ATOM    118  H   UNL A   1      43.940  26.852  32.317  1.00  0.00     0.065 H 
BRANCH  99 119
ATOM    119  C   UNL A   1      39.701  33.399  36.641  1.00  0.00     0.064 A 
ATOM    120  C   UNL A   1      40.372  34.628  36.753  1.00  0.00     0.173 A 
ATOM    121  C   UNL A   1      38.804  33.050  37.663  1.00  0.00     0.173 A 
ATOM    122  F   UNL A   1      41.250  35.007  35.812  1.00  0.00    -0.203 F 
ATOM    123  C   UNL A   1      40.180  35.453  37.859  1.00  0.00     0.198 A 
ATOM    124  C   UNL A   1      38.588  33.895  38.749  1.00  0.00     0.198 A 
ATOM    125  F   UNL A   1      38.132  31.891  37.607  1.00  0.00    -0.203 F 
ATOM    126  F   UNL A   1      40.879  36.591  37.972  1.00  0.00    -0.200 F 
ATOM    127  C   UNL A   1      39.283  35.089  38.851  1.00  0.00     0.200 A 
ATOM    128  F   UNL A   1      37.709  33.550  39.700  1.00  0.00    -0.200 F 
ATOM    129  F   UNL A   1      39.096  35.888  39.912  1.00  0.00    -0.200 F 
ENDBRANCH  99 119
BRANCH 102 130
ATOM    130  C   UNL A   1      40.934  27.803  28.441  1.00  0.00     0.064 A 
ATOM    131  C   UNL A   1      41.799  28.212  27.416  1.00  0.00     0.173 A 
ATOM    132  C   UNL A   1      40.255  26.587  28.272  1.00  0.00     0.173 A 
ATOM    133  F   UNL A   1      42.458  29.376  27.521  1.00  0.00    -0.203 F 
ATOM    134  C   UNL A   1      41.954  27.454  26.257  1.00  0.00     0.198 A 
ATOM    135  C   UNL A   1      40.436  25.813  27.127  1.00  0.00     0.198 A 
ATOM    136  F   UNL A   1      39.421  26.145  29.225  1.00  0.00    -0.203 F 
ATOM    137  F   UNL A   1      42.744  27.898  25.270  1.00  0.00    -0.200 F 
ATOM    138  C   UNL A   1      41.276  26.253  26.115  1.00  0.00     0.200 A 
ATOM    139  F   UNL A   1      39.792  24.646  27.002  1.00  0.00    -0.200 F 
ATOM    140  F   UNL A   1      41.426  25.524  25.001  1.00  0.00    -0.200 F 
ENDBRANCH 102 130
BRANCH 117 141
ATOM    141  C   UNL A   1      44.009  27.948  34.691  1.00  0.00     0.064 A 
ATOM    142  C   UNL A   1      43.732  26.735  35.337  1.00  0.00     0.173 A 
ATOM    143  C   UNL A   1      45.350  28.353  34.604  1.00  0.00     0.173 A 
ATOM    144  F   UNL A   1      42.466  26.306  35.457  1.00  0.00    -0.203 F 
ATOM    145  C   UNL A   1      44.753  25.979  35.908  1.00  0.00     0.198 A 
ATOM    146  C   UNL A   1      46.372  27.577  35.143  1.00  0.00     0.198 A 
ATOM    147  F   UNL A   1      45.673  29.501  33.987  1.00  0.00    -0.203 F 
ATOM    148  F   UNL A   1      44.458  24.855  36.576  1.00  0.00    -0.200 F 
ATOM    149  C   UNL A   1      46.071  26.396  35.804  1.00  0.00     0.200 A 
ATOM    150  F   UNL A   1      47.647  27.973  35.024  1.00  0.00    -0.200 F 
ATOM    151  F   UNL A   1      47.053  25.665  36.349  1.00  0.00    -0.200 F 
ENDBRANCH 117 141
ENDBRANCH  82  85
ENDBRANCH  72  75
ENDBRANCH  68  71
ENDBRANCH  65  68
ENDBRANCH  62  65
ENDBRANCH  59  62
ENDBRANCH  56  59
ENDBRANCH  53  56
ENDBRANCH  51  53
ENDBRANCH  46  49
ENDBRANCH  43  46
ENDBRANCH   1  43
TORSDOF 27
ENDMDL
MODEL 6
REMARK VINA RESULT:      -8.4      1.406      5.093
REMARK SMILES CC/C=C/C/C=C/C/C=C/C/C=C/CCSCCCC(=O)NCCCCCCNC(=O)c1ccc(-c2c3nc(c(-c4c(F)c(F)c(F)c(F)c4F)c4ccc([nH]4)c(-c4c(F)c(F)c(F)c(F)c4F)c4nc(c(-c5c(F)c(F)c(F)c(F)c5F)c5ccc2[nH]5)C=C4)C=C3)cc1
REMARK SMILES IDX 17 1 16 4 15 5 14 8 13 11 12 12 11 15 10 18 9 19 8 22 7 25
REMARK SMILES IDX 6 26 5 29 4 32 3 33 2 36 1 39 18 43 19 46 20 49 21 50 22 51
REMARK SMILES IDX 23 53 24 56 25 59 26 62 27 65 28 68 29 71 30 72 31 74 32 75
REMARK SMILES IDX 33 76 94 77 34 78 93 80 35 82 36 85 37 86 87 87 38 88 92 89
REMARK SMILES IDX 86 90 88 91 39 92 91 93 85 95 84 97 40 99 72 102 52 103
REMARK SMILES IDX 71 104 53 105 56 106 70 107 89 108 54 109 55 111 69 113
REMARK SMILES IDX 90 114 57 117 41 119 42 120 50 121 43 122 44 123 48 124
REMARK SMILES IDX 51 125 45 126 46 127 49 128 47 129 73 130 74 131 82 132
REMARK SMILES IDX 75 133 76 134 80 135 83 136 77 137 78 138 81 139 79 140
REMARK SMILES IDX 58 141 59 142 67 143 60 144 61 145 65 146 68 147 62 148
REMARK SMILES IDX 63 149 66 150 64 151
REMARK H PARENT 17 2 17 3 15 6 15 7 14 9 14 10 12 13 13 14 11 16 11 17 9 20
REMARK H PARENT 10 21 8 23 8 24 6 27 7 28 5 30 5 31 3 34 4 35 2 37 2 38 1 40
REMARK H PARENT 1 41 1 42 18 44 18 45 19 47 19 48 22 52 23 54 23 55 24 57
REMARK H PARENT 24 58 25 60 25 61 26 63 26 64 27 66 27 67 28 69 28 70 29 73
REMARK H PARENT 33 79 94 81 34 83 93 84 92 94 86 96 88 98 91 100 85 101 53 110
REMARK H PARENT 56 112 89 115 54 116 90 118
REMARK Flexibility Score: inf
ROOT
ATOM      1  C   UNL A   1      31.698  23.490  22.874  1.00  0.00    -0.006 C 
ATOM      2  H   UNL A   1      30.726  23.517  23.321  1.00  0.00     0.038 H 
ATOM      3  H   UNL A   1      31.897  23.257  21.850  1.00  0.00     0.038 H 
ENDROOT
BRANCH   1   4
ATOM      4  S   UNL A   1      32.524  22.026  23.650  1.00  0.00    -0.162 SA
BRANCH   4   5
ATOM      5  C   UNL A   1      32.471  22.119  25.496  1.00  0.00    -0.003 C 
ATOM      6  H   UNL A   1      32.412  23.154  25.760  1.00  0.00     0.038 H 
ATOM      7  H   UNL A   1      31.626  21.521  25.769  1.00  0.00     0.038 H 
BRANCH   5   8
ATOM      8  C   UNL A   1      33.656  21.503  26.294  1.00  0.00    -0.026 C 
ATOM      9  H   UNL A   1      33.576  21.837  27.307  1.00  0.00     0.032 H 
ATOM     10  H   UNL A   1      33.564  20.444  26.170  1.00  0.00     0.032 H 
BRANCH   8  11
ATOM     11  C   UNL A   1      35.039  21.846  25.805  1.00  0.00    -0.087 C 
ATOM     12  C   UNL A   1      35.390  22.416  24.637  1.00  0.00    -0.085 C 
ATOM     13  H   UNL A   1      34.705  22.424  23.866  1.00  0.00     0.058 H 
ATOM     14  H   UNL A   1      35.814  21.614  26.445  1.00  0.00     0.057 H 
BRANCH  12  15
ATOM     15  C   UNL A   1      36.752  23.049  24.410  1.00  0.00    -0.017 C 
ATOM     16  H   UNL A   1      37.128  22.695  23.473  1.00  0.00     0.035 H 
ATOM     17  H   UNL A   1      36.594  24.106  24.438  1.00  0.00     0.035 H 
BRANCH  15  18
ATOM     18  C   UNL A   1      37.782  22.756  25.462  1.00  0.00    -0.084 C 
ATOM     19  C   UNL A   1      38.580  21.674  25.429  1.00  0.00    -0.084 C 
ATOM     20  H   UNL A   1      38.504  21.041  24.618  1.00  0.00     0.058 H 
ATOM     21  H   UNL A   1      37.883  23.416  26.249  1.00  0.00     0.058 H 
BRANCH  19  22
ATOM     22  C   UNL A   1      39.576  21.328  26.502  1.00  0.00    -0.017 C 
ATOM     23  H   UNL A   1      39.450  21.984  27.338  1.00  0.00     0.035 H 
ATOM     24  H   UNL A   1      39.428  20.321  26.832  1.00  0.00     0.035 H 
BRANCH  22  25
ATOM     25  C   UNL A   1      40.953  21.489  25.933  1.00  0.00    -0.084 C 
ATOM     26  C   UNL A   1      41.937  22.197  26.506  1.00  0.00    -0.084 C 
ATOM     27  H   UNL A   1      41.806  22.522  27.477  1.00  0.00     0.058 H 
ATOM     28  H   UNL A   1      41.159  21.021  25.037  1.00  0.00     0.058 H 
BRANCH  26  29
ATOM     29  C   UNL A   1      43.218  22.541  25.804  1.00  0.00    -0.017 C 
ATOM     30  H   UNL A   1      43.734  21.642  25.538  1.00  0.00     0.035 H 
ATOM     31  H   UNL A   1      43.006  23.100  24.916  1.00  0.00     0.035 H 
BRANCH  29  32
ATOM     32  C   UNL A   1      44.076  23.359  26.726  1.00  0.00    -0.085 C 
ATOM     33  C   UNL A   1      43.647  23.904  27.875  1.00  0.00    -0.089 C 
ATOM     34  H   UNL A   1      42.688  23.686  28.188  1.00  0.00     0.057 H 
ATOM     35  H   UNL A   1      45.062  23.511  26.459  1.00  0.00     0.058 H 
BRANCH  33  36
ATOM     36  C   UNL A   1      44.484  24.811  28.726  1.00  0.00    -0.038 C 
ATOM     37  H   UNL A   1      43.948  25.047  29.622  1.00  0.00     0.031 H 
ATOM     38  H   UNL A   1      45.401  24.315  28.964  1.00  0.00     0.031 H 
BRANCH  36  39
ATOM     39  C   UNL A   1      44.801  26.100  27.980  1.00  0.00    -0.062 C 
ATOM     40  H   UNL A   1      44.679  25.941  26.928  1.00  0.00     0.023 H 
ATOM     41  H   UNL A   1      45.811  26.389  28.182  1.00  0.00     0.023 H 
ATOM     42  H   UNL A   1      44.136  26.872  28.304  1.00  0.00     0.023 H 
ENDBRANCH  36  39
ENDBRANCH  33  36
ENDBRANCH  29  32
ENDBRANCH  26  29
ENDBRANCH  22  25
ENDBRANCH  19  22
ENDBRANCH  15  18
ENDBRANCH  12  15
ENDBRANCH   8  11
ENDBRANCH   5   8
ENDBRANCH   4   5
ENDBRANCH   1   4
BRANCH   1  43
ATOM     43  C   UNL A   1      32.155  24.946  22.866  1.00  0.00    -0.035 C 
ATOM     44  H   UNL A   1      31.307  25.537  23.139  1.00  0.00     0.028 H 
ATOM     45  H   UNL A   1      32.548  25.074  21.879  1.00  0.00     0.028 H 
BRANCH  43  46
ATOM     46  C   UNL A   1      33.298  25.386  23.753  1.00  0.00     0.027 C 
ATOM     47  H   UNL A   1      33.743  26.241  23.288  1.00  0.00     0.037 H 
ATOM     48  H   UNL A   1      33.909  24.512  23.834  1.00  0.00     0.037 H 
BRANCH  46  49
ATOM     49  C   UNL A   1      33.011  25.764  25.197  1.00  0.00     0.220 C 
ATOM     50  O   UNL A   1      33.736  25.312  26.091  1.00  0.00    -0.275 OA
ATOM     51  N   UNL A   1      32.043  26.627  25.593  1.00  0.00    -0.356 N 
ATOM     52  H   UNL A   1      31.802  26.539  26.544  1.00  0.00     0.163 HD
BRANCH  51  53
ATOM     53  C   UNL A   1      31.294  27.653  24.896  1.00  0.00     0.017 C 
ATOM     54  H   UNL A   1      30.259  27.543  25.145  1.00  0.00     0.049 H 
ATOM     55  H   UNL A   1      31.473  27.519  23.850  1.00  0.00     0.049 H 
BRANCH  53  56
ATOM     56  C   UNL A   1      31.730  29.068  25.251  1.00  0.00    -0.036 C 
ATOM     57  H   UNL A   1      31.038  29.764  24.824  1.00  0.00     0.028 H 
ATOM     58  H   UNL A   1      32.714  29.225  24.863  1.00  0.00     0.028 H 
BRANCH  56  59
ATOM     59  C   UNL A   1      31.772  29.275  26.773  1.00  0.00    -0.052 C 
ATOM     60  H   UNL A   1      32.185  28.392  27.215  1.00  0.00     0.027 H 
ATOM     61  H   UNL A   1      30.764  29.474  27.072  1.00  0.00     0.027 H 
BRANCH  59  62
ATOM     62  C   UNL A   1      32.601  30.476  27.250  1.00  0.00    -0.052 C 
ATOM     63  H   UNL A   1      33.486  30.524  26.652  1.00  0.00     0.027 H 
ATOM     64  H   UNL A   1      32.790  30.306  28.290  1.00  0.00     0.027 H 
BRANCH  62  65
ATOM     65  C   UNL A   1      31.905  31.835  27.170  1.00  0.00    -0.036 C 
ATOM     66  H   UNL A   1      31.428  32.019  28.110  1.00  0.00     0.028 H 
ATOM     67  H   UNL A   1      31.219  31.773  26.352  1.00  0.00     0.028 H 
BRANCH  65  68
ATOM     68  C   UNL A   1      32.825  33.010  26.869  1.00  0.00     0.018 C 
ATOM     69  H   UNL A   1      32.757  33.237  25.826  1.00  0.00     0.049 H 
ATOM     70  H   UNL A   1      33.816  32.722  27.151  1.00  0.00     0.049 H 
BRANCH  68  71
ATOM     71  N   UNL A   1      32.486  34.204  27.626  1.00  0.00    -0.352 N 
ATOM     72  C   UNL A   1      33.024  34.667  28.800  1.00  0.00     0.251 C 
ATOM     73  H   UNL A   1      31.768  34.758  27.242  1.00  0.00     0.163 HD
ATOM     74  O   UNL A   1      32.531  35.633  29.367  1.00  0.00    -0.269 OA
BRANCH  72  75
ATOM     75  C   UNL A   1      34.193  33.981  29.391  1.00  0.00     0.039 A 
ATOM     76  C   UNL A   1      35.472  34.428  29.055  1.00  0.00    -0.049 A 
ATOM     77  C   UNL A   1      34.032  32.894  30.255  1.00  0.00    -0.049 A 
ATOM     78  C   UNL A   1      36.590  33.802  29.607  1.00  0.00    -0.053 A 
ATOM     79  H   UNL A   1      35.591  35.219  28.402  1.00  0.00     0.063 H 
ATOM     80  C   UNL A   1      35.142  32.329  30.873  1.00  0.00    -0.053 A 
ATOM     81  H   UNL A   1      33.091  32.510  30.433  1.00  0.00     0.063 H 
ATOM     82  C   UNL A   1      36.433  32.757  30.533  1.00  0.00    -0.014 A 
ATOM     83  H   UNL A   1      37.537  34.107  29.334  1.00  0.00     0.063 H 
ATOM     84  H   UNL A   1      35.015  31.594  31.586  1.00  0.00     0.063 H 
BRANCH  82  85
ATOM     85  C   UNL A   1      37.613  32.063  31.105  1.00  0.00     0.031 A 
ATOM     86  C   UNL A   1      38.076  32.399  32.496  1.00  0.00     0.074 A 
ATOM     87  C   UNL A   1      38.280  31.157  30.364  1.00  0.00     0.049 A 
ATOM     88  N   UNL A   1      39.088  31.916  33.173  1.00  0.00    -0.248 NA
ATOM     89  C   UNL A   1      37.321  33.439  33.213  1.00  0.00    -0.034 C 
ATOM     90  C   UNL A   1      37.954  30.783  28.988  1.00  0.00    -0.036 A 
ATOM     91  N   UNL A   1      39.371  30.384  30.670  1.00  0.00    -0.354 N 
ATOM     92  C   UNL A   1      39.097  32.603  34.379  1.00  0.00     0.074 A 
ATOM     93  C   UNL A   1      38.035  33.583  34.318  1.00  0.00    -0.034 C 
ATOM     94  H   UNL A   1      36.459  33.930  32.928  1.00  0.00     0.065 H 
ATOM     95  C   UNL A   1      38.802  29.827  28.580  1.00  0.00    -0.036 A 
ATOM     96  H   UNL A   1      37.193  31.191  28.421  1.00  0.00     0.065 H 
ATOM     97  C   UNL A   1      39.752  29.545  29.651  1.00  0.00     0.049 A 
ATOM     98  H   UNL A   1      39.838  30.427  31.536  1.00  0.00     0.167 HD
ATOM     99  C   UNL A   1      39.901  32.417  35.453  1.00  0.00     0.037 A 
ATOM    100  H   UNL A   1      37.857  34.298  35.041  1.00  0.00     0.065 H 
ATOM    101  H   UNL A   1      38.785  29.364  27.658  1.00  0.00     0.065 H 
ATOM    102  C   UNL A   1      40.754  28.647  29.595  1.00  0.00     0.037 A 
ATOM    103  C   UNL A   1      40.936  31.420  35.517  1.00  0.00     0.049 A 
ATOM    104  C   UNL A   1      41.632  28.458  30.805  1.00  0.00     0.074 A 
ATOM    105  C   UNL A   1      41.766  31.103  36.577  1.00  0.00    -0.036 A 
ATOM    106  N   UNL A   1      41.286  30.579  34.470  1.00  0.00    -0.354 N 
ATOM    107  N   UNL A   1      41.583  29.057  31.969  1.00  0.00    -0.248 NA
ATOM    108  C   UNL A   1      42.698  27.453  30.693  1.00  0.00    -0.034 C 
ATOM    109  C   UNL A   1      42.656  30.111  36.153  1.00  0.00    -0.036 A 
ATOM    110  H   UNL A   1      41.734  31.525  37.519  1.00  0.00     0.065 H 
ATOM    111  C   UNL A   1      42.336  29.760  34.852  1.00  0.00     0.049 A 
ATOM    112  H   UNL A   1      40.851  30.567  33.587  1.00  0.00     0.167 HD
ATOM    113  C   UNL A   1      42.580  28.475  32.742  1.00  0.00     0.074 A 
ATOM    114  C   UNL A   1      43.210  27.466  31.915  1.00  0.00    -0.034 C 
ATOM    115  H   UNL A   1      42.976  26.885  29.877  1.00  0.00     0.065 H 
ATOM    116  H   UNL A   1      43.422  29.708  36.716  1.00  0.00     0.065 H 
ATOM    117  C   UNL A   1      42.939  28.749  34.021  1.00  0.00     0.037 A 
ATOM    118  H   UNL A   1      43.962  26.838  32.238  1.00  0.00     0.065 H 
BRANCH  99 119
ATOM    119  C   UNL A   1      39.693  33.313  36.642  1.00  0.00     0.064 A 
ATOM    120  C   UNL A   1      40.385  34.526  36.787  1.00  0.00     0.173 A 
ATOM    121  C   UNL A   1      38.771  32.964  37.641  1.00  0.00     0.173 A 
ATOM    122  F   UNL A   1      41.287  34.904  35.868  1.00  0.00    -0.203 F 
ATOM    123  C   UNL A   1      40.188  35.337  37.903  1.00  0.00     0.198 A 
ATOM    124  C   UNL A   1      38.550  33.795  38.737  1.00  0.00     0.198 A 
ATOM    125  F   UNL A   1      38.078  31.819  37.553  1.00  0.00    -0.203 F 
ATOM    126  F   UNL A   1      40.906  36.459  38.048  1.00  0.00    -0.200 F 
ATOM    127  C   UNL A   1      39.267  34.974  38.872  1.00  0.00     0.200 A 
ATOM    128  F   UNL A   1      37.648  33.451  39.666  1.00  0.00    -0.200 F 
ATOM    129  F   UNL A   1      39.074  35.758  39.943  1.00  0.00    -0.200 F 
ENDBRANCH  99 119
BRANCH 102 130
ATOM    130  C   UNL A   1      40.955  27.827  28.372  1.00  0.00     0.064 A 
ATOM    131  C   UNL A   1      40.325  26.582  28.228  1.00  0.00     0.173 A 
ATOM    132  C   UNL A   1      41.788  28.259  27.329  1.00  0.00     0.173 A 
ATOM    133  F   UNL A   1      39.533  26.116  29.205  1.00  0.00    -0.203 F 
ATOM    134  C   UNL A   1      40.543  25.789  27.104  1.00  0.00     0.198 A 
ATOM    135  C   UNL A   1      41.980  27.479  26.190  1.00  0.00     0.198 A 
ATOM    136  F   UNL A   1      42.409  29.444  27.412  1.00  0.00    -0.203 F 
ATOM    137  F   UNL A   1      39.972  24.579  27.018  1.00  0.00    -0.200 F 
ATOM    138  C   UNL A   1      41.366  26.239  26.083  1.00  0.00     0.200 A 
ATOM    139  F   UNL A   1      42.763  27.926  25.200  1.00  0.00    -0.200 F 
ATOM    140  F   UNL A   1      41.576  25.477  25.001  1.00  0.00    -0.200 F 
ENDBRANCH 102 130
BRANCH 117 141
ATOM    141  C   UNL A   1      44.025  27.904  34.626  1.00  0.00     0.064 A 
ATOM    142  C   UNL A   1      45.371  28.295  34.607  1.00  0.00     0.173 A 
ATOM    143  C   UNL A   1      43.703  26.694  35.261  1.00  0.00     0.173 A 
ATOM    144  F   UNL A   1      45.734  29.437  34.003  1.00  0.00    -0.203 F 
ATOM    145  C   UNL A   1      46.359  27.488  35.166  1.00  0.00     0.198 A 
ATOM    146  C   UNL A   1      44.688  25.909  35.852  1.00  0.00     0.198 A 
ATOM    147  F   UNL A   1      42.429  26.277  35.318  1.00  0.00    -0.203 F 
ATOM    148  F   UNL A   1      47.646  27.852  35.079  1.00  0.00    -0.200 F 
ATOM    149  C   UNL A   1      46.016  26.301  35.794  1.00  0.00     0.200 A 
ATOM    150  F   UNL A   1      44.351  24.771  36.475  1.00  0.00    -0.200 F 
ATOM    151  F   UNL A   1      46.967  25.528  36.335  1.00  0.00    -0.200 F 
ENDBRANCH 117 141
ENDBRANCH  82  85
ENDBRANCH  72  75
ENDBRANCH  68  71
ENDBRANCH  65  68
ENDBRANCH  62  65
ENDBRANCH  59  62
ENDBRANCH  56  59
ENDBRANCH  53  56
ENDBRANCH  51  53
ENDBRANCH  46  49
ENDBRANCH  43  46
ENDBRANCH   1  43
TORSDOF 27
ENDMDL
MODEL 7
REMARK VINA RESULT:      -8.3      4.988     11.476
REMARK SMILES CC/C=C/C/C=C/C/C=C/C/C=C/CCSCCCC(=O)NCCCCCCNC(=O)c1ccc(-c2c3nc(c(-c4c(F)c(F)c(F)c(F)c4F)c4ccc([nH]4)c(-c4c(F)c(F)c(F)c(F)c4F)c4nc(c(-c5c(F)c(F)c(F)c(F)c5F)c5ccc2[nH]5)C=C4)C=C3)cc1
REMARK SMILES IDX 17 1 16 4 15 5 14 8 13 11 12 12 11 15 10 18 9 19 8 22 7 25
REMARK SMILES IDX 6 26 5 29 4 32 3 33 2 36 1 39 18 43 19 46 20 49 21 50 22 51
REMARK SMILES IDX 23 53 24 56 25 59 26 62 27 65 28 68 29 71 30 72 31 74 32 75
REMARK SMILES IDX 33 76 94 77 34 78 93 80 35 82 36 85 37 86 87 87 38 88 92 89
REMARK SMILES IDX 86 90 88 91 39 92 91 93 85 95 84 97 40 99 72 102 52 103
REMARK SMILES IDX 71 104 53 105 56 106 70 107 89 108 54 109 55 111 69 113
REMARK SMILES IDX 90 114 57 117 41 119 42 120 50 121 43 122 44 123 48 124
REMARK SMILES IDX 51 125 45 126 46 127 49 128 47 129 73 130 74 131 82 132
REMARK SMILES IDX 75 133 76 134 80 135 83 136 77 137 78 138 81 139 79 140
REMARK SMILES IDX 58 141 59 142 67 143 60 144 61 145 65 146 68 147 62 148
REMARK SMILES IDX 63 149 66 150 64 151
REMARK H PARENT 17 2 17 3 15 6 15 7 14 9 14 10 12 13 13 14 11 16 11 17 9 20
REMARK H PARENT 10 21 8 23 8 24 6 27 7 28 5 30 5 31 3 34 4 35 2 37 2 38 1 40
REMARK H PARENT 1 41 1 42 18 44 18 45 19 47 19 48 22 52 23 54 23 55 24 57
REMARK H PARENT 24 58 25 60 25 61 26 63 26 64 27 66 27 67 28 69 28 70 29 73
REMARK H PARENT 33 79 94 81 34 83 93 84 92 94 86 96 88 98 91 100 85 101 53 110
REMARK H PARENT 56 112 89 115 54 116 90 118
REMARK Flexibility Score: inf
ROOT
ATOM      1  C   UNL A   1      34.699  33.706  32.913  1.00  0.00    -0.006 C 
ATOM      2  H   UNL A   1      34.457  33.753  33.955  1.00  0.00     0.038 H 
ATOM      3  H   UNL A   1      34.039  33.368  32.143  1.00  0.00     0.038 H 
ENDROOT
BRANCH   1   4
ATOM      4  S   UNL A   1      35.966  32.360  32.792  1.00  0.00    -0.162 SA
BRANCH   4   5
ATOM      5  C   UNL A   1      37.513  32.805  33.702  1.00  0.00    -0.003 C 
ATOM      6  H   UNL A   1      37.295  32.746  34.747  1.00  0.00     0.038 H 
ATOM      7  H   UNL A   1      38.244  32.113  33.339  1.00  0.00     0.038 H 
BRANCH   5   8
ATOM      8  C   UNL A   1      38.139  34.206  33.437  1.00  0.00    -0.026 C 
ATOM      9  H   UNL A   1      37.478  34.941  33.846  1.00  0.00     0.032 H 
ATOM     10  H   UNL A   1      39.106  34.177  33.897  1.00  0.00     0.032 H 
BRANCH   8  11
ATOM     11  C   UNL A   1      38.390  34.562  31.996  1.00  0.00    -0.087 C 
ATOM     12  C   UNL A   1      39.512  34.374  31.276  1.00  0.00    -0.085 C 
ATOM     13  H   UNL A   1      40.394  34.186  31.776  1.00  0.00     0.058 H 
ATOM     14  H   UNL A   1      37.604  35.007  31.498  1.00  0.00     0.057 H 
BRANCH  12  15
ATOM     15  C   UNL A   1      39.531  34.424  29.757  1.00  0.00    -0.017 C 
ATOM     16  H   UNL A   1      39.708  33.433  29.397  1.00  0.00     0.035 H 
ATOM     17  H   UNL A   1      38.584  34.825  29.464  1.00  0.00     0.035 H 
BRANCH  15  18
ATOM     18  C   UNL A   1      40.568  35.328  29.157  1.00  0.00    -0.084 C 
ATOM     19  C   UNL A   1      41.847  34.956  28.968  1.00  0.00    -0.084 C 
ATOM     20  H   UNL A   1      42.111  33.989  29.212  1.00  0.00     0.058 H 
ATOM     21  H   UNL A   1      40.287  36.279  28.874  1.00  0.00     0.058 H 
BRANCH  19  22
ATOM     22  C   UNL A   1      42.917  35.863  28.424  1.00  0.00    -0.017 C 
ATOM     23  H   UNL A   1      43.722  35.933  29.125  1.00  0.00     0.035 H 
ATOM     24  H   UNL A   1      43.298  35.474  27.503  1.00  0.00     0.035 H 
BRANCH  22  25
ATOM     25  C   UNL A   1      42.316  37.218  28.204  1.00  0.00    -0.084 C 
ATOM     26  C   UNL A   1      42.280  37.853  27.023  1.00  0.00    -0.084 C 
ATOM     27  H   UNL A   1      42.529  37.323  26.173  1.00  0.00     0.058 H 
ATOM     28  H   UNL A   1      41.900  37.697  29.018  1.00  0.00     0.058 H 
BRANCH  26  29
ATOM     29  C   UNL A   1      41.896  39.296  26.878  1.00  0.00    -0.017 C 
ATOM     30  H   UNL A   1      41.464  39.458  25.912  1.00  0.00     0.035 H 
ATOM     31  H   UNL A   1      41.182  39.559  27.630  1.00  0.00     0.035 H 
BRANCH  29  32
ATOM     32  C   UNL A   1      43.125  40.147  27.026  1.00  0.00    -0.085 C 
ATOM     33  C   UNL A   1      44.113  40.213  26.120  1.00  0.00    -0.089 C 
ATOM     34  H   UNL A   1      43.990  39.710  25.228  1.00  0.00     0.057 H 
ATOM     35  H   UNL A   1      43.216  40.719  27.881  1.00  0.00     0.058 H 
BRANCH  33  36
ATOM     36  C   UNL A   1      45.385  40.978  26.334  1.00  0.00    -0.038 C 
ATOM     37  H   UNL A   1      45.509  41.686  25.541  1.00  0.00     0.031 H 
ATOM     38  H   UNL A   1      45.331  41.484  27.275  1.00  0.00     0.031 H 
BRANCH  36  39
ATOM     39  C   UNL A   1      46.579  40.033  26.352  1.00  0.00    -0.062 C 
ATOM     40  H   UNL A   1      47.151  40.166  25.457  1.00  0.00     0.023 H 
ATOM     41  H   UNL A   1      46.232  39.023  26.407  1.00  0.00     0.023 H 
ATOM     42  H   UNL A   1      47.191  40.248  27.202  1.00  0.00     0.023 H 
ENDBRANCH  36  39
ENDBRANCH  33  36
ENDBRANCH  29  32
ENDBRANCH  26  29
ENDBRANCH  22  25
ENDBRANCH  19  22
ENDBRANCH  15  18
ENDBRANCH  12  15
ENDBRANCH   8  11
ENDBRANCH   5   8
ENDBRANCH   4   5
ENDBRANCH   1   4
BRANCH   1  43
ATOM     43  C   UNL A   1      34.818  35.165  32.483  1.00  0.00    -0.035 C 
ATOM     44  H   UNL A   1      34.686  35.186  31.422  1.00  0.00     0.028 H 
ATOM     45  H   UNL A   1      35.773  35.457  32.867  1.00  0.00     0.028 H 
BRANCH  43  46
ATOM     46  C   UNL A   1      33.882  36.203  33.060  1.00  0.00     0.027 C 
ATOM     47  H   UNL A   1      34.271  36.476  34.019  1.00  0.00     0.037 H 
ATOM     48  H   UNL A   1      32.928  35.721  33.049  1.00  0.00     0.037 H 
BRANCH  46  49
ATOM     49  C   UNL A   1      33.644  37.494  32.293  1.00  0.00     0.220 C 
ATOM     50  O   UNL A   1      34.023  38.563  32.786  1.00  0.00    -0.275 OA
ATOM     51  N   UNL A   1      33.098  37.569  31.055  1.00  0.00    -0.356 N 
ATOM     52  H   UNL A   1      32.752  38.463  30.830  1.00  0.00     0.163 HD
BRANCH  51  53
ATOM     53  C   UNL A   1      32.921  36.595  29.996  1.00  0.00     0.017 C 
ATOM     54  H   UNL A   1      31.882  36.559  29.739  1.00  0.00     0.049 H 
ATOM     55  H   UNL A   1      33.277  35.656  30.368  1.00  0.00     0.049 H 
BRANCH  53  56
ATOM     56  C   UNL A   1      33.719  36.914  28.740  1.00  0.00    -0.036 C 
ATOM     57  H   UNL A   1      34.546  37.542  29.002  1.00  0.00     0.028 H 
ATOM     58  H   UNL A   1      33.073  37.408  28.045  1.00  0.00     0.028 H 
BRANCH  56  59
ATOM     59  C   UNL A   1      34.254  35.636  28.077  1.00  0.00    -0.052 C 
ATOM     60  H   UNL A   1      35.322  35.648  28.151  1.00  0.00     0.027 H 
ATOM     61  H   UNL A   1      33.893  35.652  27.070  1.00  0.00     0.027 H 
BRANCH  59  62
ATOM     62  C   UNL A   1      33.752  34.319  28.686  1.00  0.00    -0.052 C 
ATOM     63  H   UNL A   1      33.160  33.820  27.949  1.00  0.00     0.027 H 
ATOM     64  H   UNL A   1      33.207  34.594  29.565  1.00  0.00     0.027 H 
BRANCH  62  65
ATOM     65  C   UNL A   1      34.837  33.349  29.155  1.00  0.00    -0.036 C 
ATOM     66  H   UNL A   1      34.419  32.729  29.919  1.00  0.00     0.028 H 
ATOM     67  H   UNL A   1      35.652  33.953  29.496  1.00  0.00     0.028 H 
BRANCH  65  68
ATOM     68  C   UNL A   1      35.401  32.445  28.067  1.00  0.00     0.018 C 
ATOM     69  H   UNL A   1      36.412  32.200  28.318  1.00  0.00     0.049 H 
ATOM     70  H   UNL A   1      35.338  32.978  27.142  1.00  0.00     0.049 H 
BRANCH  68  71
ATOM     71  N   UNL A   1      34.650  31.210  27.911  1.00  0.00    -0.352 N 
ATOM     72  C   UNL A   1      35.105  29.916  27.896  1.00  0.00     0.251 C 
ATOM     73  H   UNL A   1      33.678  31.318  27.800  1.00  0.00     0.163 HD
ATOM     74  O   UNL A   1      34.342  28.996  27.629  1.00  0.00    -0.269 OA
BRANCH  72  75
ATOM     75  C   UNL A   1      36.528  29.636  28.182  1.00  0.00     0.039 A 
ATOM     76  C   UNL A   1      37.455  29.755  27.144  1.00  0.00    -0.049 A 
ATOM     77  C   UNL A   1      36.945  29.241  29.456  1.00  0.00    -0.049 A 
ATOM     78  C   UNL A   1      38.805  29.504  27.392  1.00  0.00    -0.053 A 
ATOM     79  H   UNL A   1      37.143  30.027  26.199  1.00  0.00     0.063 H 
ATOM     80  C   UNL A   1      38.300  29.080  29.723  1.00  0.00    -0.053 A 
ATOM     81  H   UNL A   1      36.248  29.070  30.198  1.00  0.00     0.063 H 
ATOM     82  C   UNL A   1      39.240  29.179  28.687  1.00  0.00    -0.014 A 
ATOM     83  H   UNL A   1      39.487  29.557  26.620  1.00  0.00     0.063 H 
ATOM     84  H   UNL A   1      38.615  28.887  30.686  1.00  0.00     0.063 H 
BRANCH  82  85
ATOM     85  C   UNL A   1      40.667  28.881  28.959  1.00  0.00     0.031 A 
ATOM     86  C   UNL A   1      41.263  27.583  28.485  1.00  0.00     0.074 A 
ATOM     87  C   UNL A   1      41.414  29.760  29.654  1.00  0.00     0.049 A 
ATOM     88  N   UNL A   1      42.482  27.128  28.629  1.00  0.00    -0.248 NA
ATOM     89  C   UNL A   1      40.361  26.657  27.781  1.00  0.00    -0.034 C 
ATOM     90  C   UNL A   1      40.935  31.028  30.204  1.00  0.00    -0.036 A 
ATOM     91  N   UNL A   1      42.738  29.719  30.012  1.00  0.00    -0.354 N 
ATOM     92  C   UNL A   1      42.485  25.865  28.052  1.00  0.00     0.074 A 
ATOM     93  C   UNL A   1      41.133  25.596  27.615  1.00  0.00    -0.034 C 
ATOM     94  H   UNL A   1      39.380  26.799  27.492  1.00  0.00     0.065 H 
ATOM     95  C   UNL A   1      41.958  31.662  30.799  1.00  0.00    -0.036 A 
ATOM     96  H   UNL A   1      39.966  31.378  30.146  1.00  0.00     0.065 H 
ATOM     97  C   UNL A   1      43.154  30.832  30.703  1.00  0.00     0.049 A 
ATOM     98  H   UNL A   1      43.332  28.965  29.797  1.00  0.00     0.167 HD
ATOM     99  C   UNL A   1      43.525  25.016  27.877  1.00  0.00     0.037 A 
ATOM    100  H   UNL A   1      40.814  24.695  27.224  1.00  0.00     0.065 H 
ATOM    101  H   UNL A   1      41.907  32.588  31.251  1.00  0.00     0.065 H 
ATOM    102  C   UNL A   1      44.368  31.143  31.196  1.00  0.00     0.037 A 
ATOM    103  C   UNL A   1      44.874  25.305  28.289  1.00  0.00     0.049 A 
ATOM    104  C   UNL A   1      45.509  30.183  30.985  1.00  0.00     0.074 A 
ATOM    105  C   UNL A   1      46.015  24.545  28.104  1.00  0.00    -0.036 A 
ATOM    106  N   UNL A   1      45.261  26.448  28.974  1.00  0.00    -0.354 N 
ATOM    107  N   UNL A   1      45.518  29.027  30.369  1.00  0.00    -0.248 NA
ATOM    108  C   UNL A   1      46.814  30.582  31.529  1.00  0.00    -0.034 C 
ATOM    109  C   UNL A   1      47.081  25.201  28.729  1.00  0.00    -0.036 A 
ATOM    110  H   UNL A   1      46.070  23.650  27.593  1.00  0.00     0.065 H 
ATOM    111  C   UNL A   1      46.619  26.401  29.242  1.00  0.00     0.049 A 
ATOM    112  H   UNL A   1      44.658  27.183  29.233  1.00  0.00     0.167 HD
ATOM    113  C   UNL A   1      46.833  28.580  30.413  1.00  0.00     0.074 A 
ATOM    114  C   UNL A   1      47.594  29.598  31.108  1.00  0.00    -0.034 C 
ATOM    115  H   UNL A   1      47.059  31.412  32.092  1.00  0.00     0.065 H 
ATOM    116  H   UNL A   1      48.049  24.848  28.795  1.00  0.00     0.065 H 
ATOM    117  C   UNL A   1      47.363  27.433  29.920  1.00  0.00     0.037 A 
ATOM    118  H   UNL A   1      48.614  29.561  31.255  1.00  0.00     0.065 H 
BRANCH  99 119
ATOM    119  C   UNL A   1      43.245  23.696  27.216  1.00  0.00     0.064 A 
ATOM    120  C   UNL A   1      43.668  23.416  25.908  1.00  0.00     0.173 A 
ATOM    121  C   UNL A   1      42.561  22.686  27.912  1.00  0.00     0.173 A 
ATOM    122  F   UNL A   1      44.315  24.349  25.192  1.00  0.00    -0.203 F 
ATOM    123  C   UNL A   1      43.387  22.191  25.308  1.00  0.00     0.198 A 
ATOM    124  C   UNL A   1      42.314  21.449  27.321  1.00  0.00     0.198 A 
ATOM    125  F   UNL A   1      42.137  22.895  29.166  1.00  0.00    -0.203 F 
ATOM    126  F   UNL A   1      43.748  21.971  24.036  1.00  0.00    -0.200 F 
ATOM    127  C   UNL A   1      42.717  21.206  26.018  1.00  0.00     0.200 A 
ATOM    128  F   UNL A   1      41.680  20.493  28.014  1.00  0.00    -0.200 F 
ATOM    129  F   UNL A   1      42.452  20.025  25.441  1.00  0.00    -0.200 F 
ENDBRANCH  99 119
BRANCH 102 130
ATOM    130  C   UNL A   1      44.580  32.437  31.895  1.00  0.00     0.064 A 
ATOM    131  C   UNL A   1      44.517  32.519  33.294  1.00  0.00     0.173 A 
ATOM    132  C   UNL A   1      44.836  33.620  31.185  1.00  0.00     0.173 A 
ATOM    133  F   UNL A   1      44.256  31.420  34.017  1.00  0.00    -0.203 F 
ATOM    134  C   UNL A   1      44.671  33.737  33.953  1.00  0.00     0.198 A 
ATOM    135  C   UNL A   1      45.023  34.832  31.848  1.00  0.00     0.198 A 
ATOM    136  F   UNL A   1      44.915  33.597  29.847  1.00  0.00    -0.203 F 
ATOM    137  F   UNL A   1      44.550  33.794  35.287  1.00  0.00    -0.200 F 
ATOM    138  C   UNL A   1      44.929  34.892  33.231  1.00  0.00     0.200 A 
ATOM    139  F   UNL A   1      45.289  35.942  31.147  1.00  0.00    -0.200 F 
ATOM    140  F   UNL A   1      45.079  36.063  33.865  1.00  0.00    -0.200 F 
ENDBRANCH 102 130
BRANCH 117 141
ATOM    141  C   UNL A   1      48.848  27.245  30.061  1.00  0.00     0.064 A 
ATOM    142  C   UNL A   1      49.754  27.738  29.111  1.00  0.00     0.173 A 
ATOM    143  C   UNL A   1      49.370  26.585  31.184  1.00  0.00     0.173 A 
ATOM    144  F   UNL A   1      49.307  28.367  28.013  1.00  0.00    -0.203 F 
ATOM    145  C   UNL A   1      51.124  27.541  29.260  1.00  0.00     0.198 A 
ATOM    146  C   UNL A   1      50.742  26.423  31.348  1.00  0.00     0.198 A 
ATOM    147  F   UNL A   1      48.549  26.103  32.130  1.00  0.00    -0.203 F 
ATOM    148  F   UNL A   1      51.967  27.965  28.307  1.00  0.00    -0.200 F 
ATOM    149  C   UNL A   1      51.617  26.892  30.381  1.00  0.00     0.200 A 
ATOM    150  F   UNL A   1      51.217  25.812  32.443  1.00  0.00    -0.200 F 
ATOM    151  F   UNL A   1      52.937  26.708  30.525  1.00  0.00    -0.200 F 
ENDBRANCH 117 141
ENDBRANCH  82  85
ENDBRANCH  72  75
ENDBRANCH  68  71
ENDBRANCH  65  68
ENDBRANCH  62  65
ENDBRANCH  59  62
ENDBRANCH  56  59
ENDBRANCH  53  56
ENDBRANCH  51  53
ENDBRANCH  46  49
ENDBRANCH  43  46
ENDBRANCH   1  43
TORSDOF 27
ENDMDL
MODEL 8
REMARK VINA RESULT:      -7.9      2.318      4.873
REMARK SMILES CC/C=C/C/C=C/C/C=C/C/C=C/CCSCCCC(=O)NCCCCCCNC(=O)c1ccc(-c2c3nc(c(-c4c(F)c(F)c(F)c(F)c4F)c4ccc([nH]4)c(-c4c(F)c(F)c(F)c(F)c4F)c4nc(c(-c5c(F)c(F)c(F)c(F)c5F)c5ccc2[nH]5)C=C4)C=C3)cc1
REMARK SMILES IDX 17 1 16 4 15 5 14 8 13 11 12 12 11 15 10 18 9 19 8 22 7 25
REMARK SMILES IDX 6 26 5 29 4 32 3 33 2 36 1 39 18 43 19 46 20 49 21 50 22 51
REMARK SMILES IDX 23 53 24 56 25 59 26 62 27 65 28 68 29 71 30 72 31 74 32 75
REMARK SMILES IDX 33 76 94 77 34 78 93 80 35 82 36 85 37 86 87 87 38 88 92 89
REMARK SMILES IDX 86 90 88 91 39 92 91 93 85 95 84 97 40 99 72 102 52 103
REMARK SMILES IDX 71 104 53 105 56 106 70 107 89 108 54 109 55 111 69 113
REMARK SMILES IDX 90 114 57 117 41 119 42 120 50 121 43 122 44 123 48 124
REMARK SMILES IDX 51 125 45 126 46 127 49 128 47 129 73 130 74 131 82 132
REMARK SMILES IDX 75 133 76 134 80 135 83 136 77 137 78 138 81 139 79 140
REMARK SMILES IDX 58 141 59 142 67 143 60 144 61 145 65 146 68 147 62 148
REMARK SMILES IDX 63 149 66 150 64 151
REMARK H PARENT 17 2 17 3 15 6 15 7 14 9 14 10 12 13 13 14 11 16 11 17 9 20
REMARK H PARENT 10 21 8 23 8 24 6 27 7 28 5 30 5 31 3 34 4 35 2 37 2 38 1 40
REMARK H PARENT 1 41 1 42 18 44 18 45 19 47 19 48 22 52 23 54 23 55 24 57
REMARK H PARENT 24 58 25 60 25 61 26 63 26 64 27 66 27 67 28 69 28 70 29 73
REMARK H PARENT 33 79 94 81 34 83 93 84 92 94 86 96 88 98 91 100 85 101 53 110
REMARK H PARENT 56 112 89 115 54 116 90 118
REMARK Flexibility Score: inf
ROOT
ATOM      1  C   UNL A   1      32.399  24.323  23.398  1.00  0.00    -0.006 C 
ATOM      2  H   UNL A   1      32.610  23.424  22.858  1.00  0.00     0.038 H 
ATOM      3  H   UNL A   1      32.113  25.253  22.956  1.00  0.00     0.038 H 
ENDROOT
BRANCH   1   4
ATOM      4  S   UNL A   1      34.038  24.844  24.087  1.00  0.00    -0.162 SA
BRANCH   4   5
ATOM      5  C   UNL A   1      34.924  23.423  24.870  1.00  0.00    -0.003 C 
ATOM      6  H   UNL A   1      34.767  23.493  25.925  1.00  0.00     0.038 H 
ATOM      7  H   UNL A   1      34.512  22.557  24.395  1.00  0.00     0.038 H 
BRANCH   5   8
ATOM      8  C   UNL A   1      36.458  23.301  24.637  1.00  0.00    -0.026 C 
ATOM      9  H   UNL A   1      36.679  22.269  24.459  1.00  0.00     0.032 H 
ATOM     10  H   UNL A   1      36.674  23.946  23.811  1.00  0.00     0.032 H 
BRANCH   8  11
ATOM     11  C   UNL A   1      37.343  23.775  25.760  1.00  0.00    -0.087 C 
ATOM     12  C   UNL A   1      38.517  23.258  26.168  1.00  0.00    -0.085 C 
ATOM     13  H   UNL A   1      38.766  22.302  25.871  1.00  0.00     0.058 H 
ATOM     14  H   UNL A   1      37.007  24.599  26.281  1.00  0.00     0.057 H 
BRANCH  12  15
ATOM     15  C   UNL A   1      39.491  24.025  27.046  1.00  0.00    -0.017 C 
ATOM     16  H   UNL A   1      39.022  24.186  27.995  1.00  0.00     0.035 H 
ATOM     17  H   UNL A   1      40.375  23.427  27.099  1.00  0.00     0.035 H 
BRANCH  15  18
ATOM     18  C   UNL A   1      39.924  25.360  26.513  1.00  0.00    -0.084 C 
ATOM     19  C   UNL A   1      40.419  26.338  27.291  1.00  0.00    -0.084 C 
ATOM     20  H   UNL A   1      40.542  26.141  28.296  1.00  0.00     0.058 H 
ATOM     21  H   UNL A   1      39.840  25.534  25.499  1.00  0.00     0.058 H 
BRANCH  19  22
ATOM     22  C   UNL A   1      40.804  27.702  26.788  1.00  0.00    -0.017 C 
ATOM     23  H   UNL A   1      41.800  27.936  27.101  1.00  0.00     0.035 H 
ATOM     24  H   UNL A   1      40.768  27.725  25.719  1.00  0.00     0.035 H 
BRANCH  22  25
ATOM     25  C   UNL A   1      39.844  28.701  27.360  1.00  0.00    -0.084 C 
ATOM     26  C   UNL A   1      38.552  28.453  27.620  1.00  0.00    -0.084 C 
ATOM     27  H   UNL A   1      38.223  27.475  27.586  1.00  0.00     0.058 H 
ATOM     28  H   UNL A   1      40.202  29.646  27.567  1.00  0.00     0.058 H 
BRANCH  26  29
ATOM     29  C   UNL A   1      37.562  29.528  27.961  1.00  0.00    -0.017 C 
ATOM     30  H   UNL A   1      37.906  30.467  27.579  1.00  0.00     0.035 H 
ATOM     31  H   UNL A   1      36.612  29.298  27.524  1.00  0.00     0.035 H 
BRANCH  29  32
ATOM     32  C   UNL A   1      37.427  29.614  29.454  1.00  0.00    -0.085 C 
ATOM     33  C   UNL A   1      37.856  28.671  30.307  1.00  0.00    -0.089 C 
ATOM     34  H   UNL A   1      38.383  27.871  29.924  1.00  0.00     0.057 H 
ATOM     35  H   UNL A   1      36.974  30.453  29.850  1.00  0.00     0.058 H 
BRANCH  33  36
ATOM     36  C   UNL A   1      37.612  28.718  31.787  1.00  0.00    -0.038 C 
ATOM     37  H   UNL A   1      37.823  29.703  32.147  1.00  0.00     0.031 H 
ATOM     38  H   UNL A   1      36.591  28.465  31.978  1.00  0.00     0.031 H 
BRANCH  36  39
ATOM     39  C   UNL A   1      38.509  27.719  32.506  1.00  0.00    -0.062 C 
ATOM     40  H   UNL A   1      39.033  28.217  33.296  1.00  0.00     0.023 H 
ATOM     41  H   UNL A   1      39.213  27.310  31.813  1.00  0.00     0.023 H 
ATOM     42  H   UNL A   1      37.911  26.933  32.915  1.00  0.00     0.023 H 
ENDBRANCH  36  39
ENDBRANCH  33  36
ENDBRANCH  29  32
ENDBRANCH  26  29
ENDBRANCH  22  25
ENDBRANCH  19  22
ENDBRANCH  15  18
ENDBRANCH  12  15
ENDBRANCH   8  11
ENDBRANCH   5   8
ENDBRANCH   4   5
ENDBRANCH   1   4
BRANCH   1  43
ATOM     43  C   UNL A   1      31.104  24.024  24.149  1.00  0.00    -0.035 C 
ATOM     44  H   UNL A   1      31.369  23.427  24.995  1.00  0.00     0.028 H 
ATOM     45  H   UNL A   1      30.487  23.572  23.401  1.00  0.00     0.028 H 
BRANCH  43  46
ATOM     46  C   UNL A   1      30.249  25.159  24.664  1.00  0.00     0.027 C 
ATOM     47  H   UNL A   1      29.354  24.722  25.058  1.00  0.00     0.037 H 
ATOM     48  H   UNL A   1      30.137  25.800  23.816  1.00  0.00     0.037 H 
BRANCH  46  49
ATOM     49  C   UNL A   1      30.806  26.076  25.740  1.00  0.00     0.220 C 
ATOM     50  O   UNL A   1      30.993  25.625  26.876  1.00  0.00    -0.275 OA
ATOM     51  N   UNL A   1      31.187  27.362  25.540  1.00  0.00    -0.356 N 
ATOM     52  H   UNL A   1      31.244  27.890  26.369  1.00  0.00     0.163 HD
BRANCH  51  53
ATOM     53  C   UNL A   1      31.525  28.114  24.349  1.00  0.00     0.017 C 
ATOM     54  H   UNL A   1      30.621  28.343  23.824  1.00  0.00     0.049 H 
ATOM     55  H   UNL A   1      32.186  27.505  23.768  1.00  0.00     0.049 H 
BRANCH  53  56
ATOM     56  C   UNL A   1      32.256  29.418  24.643  1.00  0.00    -0.036 C 
ATOM     57  H   UNL A   1      32.462  29.918  23.720  1.00  0.00     0.028 H 
ATOM     58  H   UNL A   1      33.164  29.186  25.160  1.00  0.00     0.028 H 
BRANCH  56  59
ATOM     59  C   UNL A   1      31.414  30.342  25.536  1.00  0.00    -0.052 C 
ATOM     60  H   UNL A   1      30.528  29.811  25.817  1.00  0.00     0.027 H 
ATOM     61  H   UNL A   1      31.223  31.219  24.954  1.00  0.00     0.027 H 
BRANCH  59  62
ATOM     62  C   UNL A   1      32.105  30.825  26.819  1.00  0.00    -0.052 C 
ATOM     63  H   UNL A   1      31.777  30.202  27.623  1.00  0.00     0.027 H 
ATOM     64  H   UNL A   1      31.831  31.854  26.928  1.00  0.00     0.027 H 
BRANCH  62  65
ATOM     65  C   UNL A   1      33.634  30.802  26.797  1.00  0.00    -0.036 C 
ATOM     66  H   UNL A   1      33.962  31.351  25.940  1.00  0.00     0.028 H 
ATOM     67  H   UNL A   1      33.917  29.770  26.774  1.00  0.00     0.028 H 
BRANCH  65  68
ATOM     68  C   UNL A   1      34.302  31.401  28.027  1.00  0.00     0.018 C 
ATOM     69  H   UNL A   1      35.358  31.427  27.863  1.00  0.00     0.049 H 
ATOM     70  H   UNL A   1      34.042  30.788  28.864  1.00  0.00     0.049 H 
BRANCH  68  71
ATOM     71  N   UNL A   1      33.846  32.751  28.318  1.00  0.00    -0.352 N 
ATOM     72  C   UNL A   1      34.323  33.646  29.241  1.00  0.00     0.251 C 
ATOM     73  H   UNL A   1      33.087  33.066  27.776  1.00  0.00     0.163 HD
ATOM     74  O   UNL A   1      33.737  34.703  29.438  1.00  0.00    -0.269 OA
BRANCH  72  75
ATOM     75  C   UNL A   1      35.539  33.321  30.016  1.00  0.00     0.039 A 
ATOM     76  C   UNL A   1      36.750  33.907  29.638  1.00  0.00    -0.049 A 
ATOM     77  C   UNL A   1      35.494  32.434  31.095  1.00  0.00    -0.049 A 
ATOM     78  C   UNL A   1      37.910  33.622  30.359  1.00  0.00    -0.053 A 
ATOM     79  H   UNL A   1      36.786  34.547  28.828  1.00  0.00     0.063 H 
ATOM     80  C   UNL A   1      36.631  32.222  31.866  1.00  0.00    -0.053 A 
ATOM     81  H   UNL A   1      34.618  31.937  31.318  1.00  0.00     0.063 H 
ATOM     82  C   UNL A   1      37.856  32.789  31.488  1.00  0.00    -0.014 A 
ATOM     83  H   UNL A   1      38.811  34.025  30.061  1.00  0.00     0.063 H 
ATOM     84  H   UNL A   1      36.573  31.646  32.721  1.00  0.00     0.063 H 
BRANCH  82  85
ATOM     85  C   UNL A   1      39.086  32.454  32.247  1.00  0.00     0.031 A 
ATOM     86  C   UNL A   1      39.262  32.968  33.650  1.00  0.00     0.074 A 
ATOM     87  C   UNL A   1      40.052  31.718  31.664  1.00  0.00     0.049 A 
ATOM     88  N   UNL A   1      40.264  32.798  34.476  1.00  0.00    -0.248 NA
ATOM     89  C   UNL A   1      38.182  33.810  34.189  1.00  0.00    -0.034 C 
ATOM     90  C   UNL A   1      40.015  31.205  30.295  1.00  0.00    -0.036 A 
ATOM     91  N   UNL A   1      41.253  31.271  32.155  1.00  0.00    -0.354 N 
ATOM     92  C   UNL A   1      39.941  33.523  35.616  1.00  0.00     0.074 A 
ATOM     93  C   UNL A   1      38.685  34.188  35.353  1.00  0.00    -0.034 C 
ATOM     94  H   UNL A   1      37.269  34.044  33.767  1.00  0.00     0.065 H 
ATOM     95  C   UNL A   1      41.123  30.483  30.067  1.00  0.00    -0.036 A 
ATOM     96  H   UNL A   1      39.258  31.372  29.613  1.00  0.00     0.065 H 
ATOM     97  C   UNL A   1      41.964  30.511  31.259  1.00  0.00     0.049 A 
ATOM     98  H   UNL A   1      41.575  31.477  33.062  1.00  0.00     0.167 HD
ATOM     99  C   UNL A   1      40.617  33.605  36.786  1.00  0.00     0.037 A 
ATOM    100  H   UNL A   1      38.238  34.867  35.990  1.00  0.00     0.065 H 
ATOM    101  H   UNL A   1      41.345  29.987  29.189  1.00  0.00     0.065 H 
ATOM    102  C   UNL A   1      43.158  29.903  31.392  1.00  0.00     0.037 A 
ATOM    103  C   UNL A   1      41.852  32.916  37.050  1.00  0.00     0.049 A 
ATOM    104  C   UNL A   1      43.887  30.008  32.705  1.00  0.00     0.074 A 
ATOM    105  C   UNL A   1      42.588  32.879  38.220  1.00  0.00    -0.036 A 
ATOM    106  N   UNL A   1      42.537  32.144  36.122  1.00  0.00    -0.354 N 
ATOM    107  N   UNL A   1      43.536  30.631  33.803  1.00  0.00    -0.248 NA
ATOM    108  C   UNL A   1      45.177  29.311  32.799  1.00  0.00    -0.034 C 
ATOM    109  C   UNL A   1      43.747  32.132  37.984  1.00  0.00    -0.036 A 
ATOM    110  H   UNL A   1      42.326  33.323  39.114  1.00  0.00     0.065 H 
ATOM    111  C   UNL A   1      43.700  31.647  36.687  1.00  0.00     0.049 A 
ATOM    112  H   UNL A   1      42.240  31.976  35.198  1.00  0.00     0.167 HD
ATOM    113  C   UNL A   1      44.536  30.367  34.731  1.00  0.00     0.074 A 
ATOM    114  C   UNL A   1      45.503  29.517  34.067  1.00  0.00    -0.034 C 
ATOM    115  H   UNL A   1      45.694  28.795  32.070  1.00  0.00     0.065 H 
ATOM    116  H   UNL A   1      44.508  31.971  38.661  1.00  0.00     0.065 H 
ATOM    117  C   UNL A   1      44.643  30.788  36.016  1.00  0.00     0.037 A 
ATOM    118  H   UNL A   1      46.339  29.123  34.524  1.00  0.00     0.065 H 
BRANCH  99 119
ATOM    119  C   UNL A   1      40.035  34.474  37.866  1.00  0.00     0.064 A 
ATOM    120  C   UNL A   1      40.305  35.850  37.938  1.00  0.00     0.173 A 
ATOM    121  C   UNL A   1      39.176  33.926  38.832  1.00  0.00     0.173 A 
ATOM    122  F   UNL A   1      41.128  36.425  37.048  1.00  0.00    -0.203 F 
ATOM    123  C   UNL A   1      39.766  36.636  38.954  1.00  0.00     0.198 A 
ATOM    124  C   UNL A   1      38.612  34.722  39.825  1.00  0.00     0.198 A 
ATOM    125  F   UNL A   1      38.880  32.618  38.811  1.00  0.00    -0.203 F 
ATOM    126  F   UNL A   1      40.088  37.934  39.037  1.00  0.00    -0.200 F 
ATOM    127  C   UNL A   1      38.915  36.072  39.892  1.00  0.00     0.200 A 
ATOM    128  F   UNL A   1      37.776  34.179  40.722  1.00  0.00    -0.200 F 
ATOM    129  F   UNL A   1      38.393  36.831  40.866  1.00  0.00    -0.200 F 
ENDBRANCH  99 119
BRANCH 102 130
ATOM    130  C   UNL A   1      43.718  29.104  30.271  1.00  0.00     0.064 A 
ATOM    131  C   UNL A   1      44.678  29.650  29.406  1.00  0.00     0.173 A 
ATOM    132  C   UNL A   1      43.300  27.786  30.030  1.00  0.00     0.173 A 
ATOM    133  F   UNL A   1      45.097  30.912  29.583  1.00  0.00    -0.203 F 
ATOM    134  C   UNL A   1      45.174  28.922  28.327  1.00  0.00     0.198 A 
ATOM    135  C   UNL A   1      43.822  27.048  28.970  1.00  0.00     0.198 A 
ATOM    136  F   UNL A   1      42.390  27.213  30.831  1.00  0.00    -0.203 F 
ATOM    137  F   UNL A   1      46.049  29.489  27.484  1.00  0.00    -0.200 F 
ATOM    138  C   UNL A   1      44.750  27.619  28.112  1.00  0.00     0.200 A 
ATOM    139  F   UNL A   1      43.422  25.784  28.776  1.00  0.00    -0.200 F 
ATOM    140  F   UNL A   1      45.229  26.919  27.075  1.00  0.00    -0.200 F 
ENDBRANCH 102 130
BRANCH 117 141
ATOM    141  C   UNL A   1      45.816  30.285  36.809  1.00  0.00     0.064 A 
ATOM    142  C   UNL A   1      47.044  30.962  36.832  1.00  0.00     0.173 A 
ATOM    143  C   UNL A   1      45.696  29.118  37.580  1.00  0.00     0.173 A 
ATOM    144  F   UNL A   1      47.215  32.076  36.104  1.00  0.00    -0.203 F 
ATOM    145  C   UNL A   1      48.119  30.468  37.567  1.00  0.00     0.198 A 
ATOM    146  C   UNL A   1      46.761  28.649  38.343  1.00  0.00     0.198 A 
ATOM    147  F   UNL A   1      44.540  28.437  37.603  1.00  0.00    -0.203 F 
ATOM    148  F   UNL A   1      49.302  31.098  37.524  1.00  0.00    -0.200 F 
ATOM    149  C   UNL A   1      47.975  29.318  38.327  1.00  0.00     0.200 A 
ATOM    150  F   UNL A   1      46.612  27.547  39.092  1.00  0.00    -0.200 F 
ATOM    151  F   UNL A   1      49.009  28.847  39.037  1.00  0.00    -0.200 F 
ENDBRANCH 117 141
ENDBRANCH  82  85
ENDBRANCH  72  75
ENDBRANCH  68  71
ENDBRANCH  65  68
ENDBRANCH  62  65
ENDBRANCH  59  62
ENDBRANCH  56  59
ENDBRANCH  53  56
ENDBRANCH  51  53
ENDBRANCH  46  49
ENDBRANCH  43  46
ENDBRANCH   1  43
TORSDOF 27
ENDMDL
MODEL 9
REMARK VINA RESULT:      -7.9      2.811      6.623
REMARK SMILES CC/C=C/C/C=C/C/C=C/C/C=C/CCSCCCC(=O)NCCCCCCNC(=O)c1ccc(-c2c3nc(c(-c4c(F)c(F)c(F)c(F)c4F)c4ccc([nH]4)c(-c4c(F)c(F)c(F)c(F)c4F)c4nc(c(-c5c(F)c(F)c(F)c(F)c5F)c5ccc2[nH]5)C=C4)C=C3)cc1
REMARK SMILES IDX 17 1 16 4 15 5 14 8 13 11 12 12 11 15 10 18 9 19 8 22 7 25
REMARK SMILES IDX 6 26 5 29 4 32 3 33 2 36 1 39 18 43 19 46 20 49 21 50 22 51
REMARK SMILES IDX 23 53 24 56 25 59 26 62 27 65 28 68 29 71 30 72 31 74 32 75
REMARK SMILES IDX 33 76 94 77 34 78 93 80 35 82 36 85 37 86 87 87 38 88 92 89
REMARK SMILES IDX 86 90 88 91 39 92 91 93 85 95 84 97 40 99 72 102 52 103
REMARK SMILES IDX 71 104 53 105 56 106 70 107 89 108 54 109 55 111 69 113
REMARK SMILES IDX 90 114 57 117 41 119 42 120 50 121 43 122 44 123 48 124
REMARK SMILES IDX 51 125 45 126 46 127 49 128 47 129 73 130 74 131 82 132
REMARK SMILES IDX 75 133 76 134 80 135 83 136 77 137 78 138 81 139 79 140
REMARK SMILES IDX 58 141 59 142 67 143 60 144 61 145 65 146 68 147 62 148
REMARK SMILES IDX 63 149 66 150 64 151
REMARK H PARENT 17 2 17 3 15 6 15 7 14 9 14 10 12 13 13 14 11 16 11 17 9 20
REMARK H PARENT 10 21 8 23 8 24 6 27 7 28 5 30 5 31 3 34 4 35 2 37 2 38 1 40
REMARK H PARENT 1 41 1 42 18 44 18 45 19 47 19 48 22 52 23 54 23 55 24 57
REMARK H PARENT 24 58 25 60 25 61 26 63 26 64 27 66 27 67 28 69 28 70 29 73
REMARK H PARENT 33 79 94 81 34 83 93 84 92 94 86 96 88 98 91 100 85 101 53 110
REMARK H PARENT 56 112 89 115 54 116 90 118
REMARK Flexibility Score: inf
ROOT
ATOM      1  C   UNL A   1      35.244  20.402  24.942  1.00  0.00    -0.006 C 
ATOM      2  H   UNL A   1      35.859  19.620  25.338  1.00  0.00     0.038 H 
ATOM      3  H   UNL A   1      35.123  20.620  23.902  1.00  0.00     0.038 H 
ENDROOT
BRANCH   1   4
ATOM      4  S   UNL A   1      36.098  21.966  25.448  1.00  0.00    -0.162 SA
BRANCH   4   5
ATOM      5  C   UNL A   1      37.902  21.687  25.736  1.00  0.00    -0.003 C 
ATOM      6  H   UNL A   1      37.993  20.884  26.436  1.00  0.00     0.038 H 
ATOM      7  H   UNL A   1      38.302  21.501  24.760  1.00  0.00     0.038 H 
BRANCH   5   8
ATOM      8  C   UNL A   1      38.747  22.875  26.281  1.00  0.00    -0.026 C 
ATOM      9  H   UNL A   1      38.868  23.581  25.487  1.00  0.00     0.032 H 
ATOM     10  H   UNL A   1      38.204  23.249  27.124  1.00  0.00     0.032 H 
BRANCH   8  11
ATOM     11  C   UNL A   1      40.117  22.533  26.806  1.00  0.00    -0.087 C 
ATOM     12  C   UNL A   1      41.220  22.214  26.104  1.00  0.00    -0.085 C 
ATOM     13  H   UNL A   1      41.114  21.931  25.119  1.00  0.00     0.058 H 
ATOM     14  H   UNL A   1      40.223  22.545  27.833  1.00  0.00     0.057 H 
BRANCH  12  15
ATOM     15  C   UNL A   1      42.616  22.256  26.705  1.00  0.00    -0.017 C 
ATOM     16  H   UNL A   1      43.124  21.359  26.420  1.00  0.00     0.035 H 
ATOM     17  H   UNL A   1      43.072  23.147  26.329  1.00  0.00     0.035 H 
BRANCH  15  18
ATOM     18  C   UNL A   1      42.669  22.362  28.201  1.00  0.00    -0.084 C 
ATOM     19  C   UNL A   1      43.719  22.874  28.866  1.00  0.00    -0.084 C 
ATOM     20  H   UNL A   1      44.506  23.248  28.313  1.00  0.00     0.058 H 
ATOM     21  H   UNL A   1      41.859  22.027  28.747  1.00  0.00     0.058 H 
BRANCH  19  22
ATOM     22  C   UNL A   1      43.820  22.936  30.365  1.00  0.00    -0.017 C 
ATOM     23  H   UNL A   1      42.877  22.683  30.802  1.00  0.00     0.035 H 
ATOM     24  H   UNL A   1      44.556  22.242  30.715  1.00  0.00     0.035 H 
BRANCH  22  25
ATOM     25  C   UNL A   1      44.201  24.332  30.753  1.00  0.00    -0.084 C 
ATOM     26  C   UNL A   1      44.481  24.727  32.004  1.00  0.00    -0.084 C 
ATOM     27  H   UNL A   1      44.606  24.004  32.730  1.00  0.00     0.058 H 
ATOM     28  H   UNL A   1      44.252  25.041  30.005  1.00  0.00     0.058 H 
BRANCH  26  29
ATOM     29  C   UNL A   1      44.620  26.168  32.399  1.00  0.00    -0.017 C 
ATOM     30  H   UNL A   1      45.625  26.358  32.714  1.00  0.00     0.035 H 
ATOM     31  H   UNL A   1      44.389  26.797  31.565  1.00  0.00     0.035 H 
BRANCH  29  32
ATOM     32  C   UNL A   1      43.676  26.458  33.530  1.00  0.00    -0.085 C 
ATOM     33  C   UNL A   1      42.982  27.599  33.663  1.00  0.00    -0.089 C 
ATOM     34  H   UNL A   1      43.038  28.294  32.902  1.00  0.00     0.057 H 
ATOM     35  H   UNL A   1      43.551  25.732  34.253  1.00  0.00     0.058 H 
BRANCH  33  36
ATOM     36  C   UNL A   1      42.131  27.920  34.855  1.00  0.00    -0.038 C 
ATOM     37  H   UNL A   1      41.832  27.008  35.330  1.00  0.00     0.031 H 
ATOM     38  H   UNL A   1      42.698  28.521  35.534  1.00  0.00     0.031 H 
BRANCH  36  39
ATOM     39  C   UNL A   1      40.890  28.693  34.432  1.00  0.00    -0.062 C 
ATOM     40  H   UNL A   1      40.102  28.514  35.134  1.00  0.00     0.023 H 
ATOM     41  H   UNL A   1      40.582  28.368  33.460  1.00  0.00     0.023 H 
ATOM     42  H   UNL A   1      41.113  29.739  34.405  1.00  0.00     0.023 H 
ENDBRANCH  36  39
ENDBRANCH  33  36
ENDBRANCH  29  32
ENDBRANCH  26  29
ENDBRANCH  22  25
ENDBRANCH  19  22
ENDBRANCH  15  18
ENDBRANCH  12  15
ENDBRANCH   8  11
ENDBRANCH   5   8
ENDBRANCH   4   5
ENDBRANCH   1   4
BRANCH   1  43
ATOM     43  C   UNL A   1      33.816  19.956  25.245  1.00  0.00    -0.035 C 
ATOM     44  H   UNL A   1      33.563  20.362  26.201  1.00  0.00     0.028 H 
ATOM     45  H   UNL A   1      33.869  18.891  25.159  1.00  0.00     0.028 H 
BRANCH  43  46
ATOM     46  C   UNL A   1      32.692  20.325  24.303  1.00  0.00     0.027 C 
ATOM     47  H   UNL A   1      31.776  20.170  24.834  1.00  0.00     0.037 H 
ATOM     48  H   UNL A   1      32.861  19.703  23.449  1.00  0.00     0.037 H 
BRANCH  46  49
ATOM     49  C   UNL A   1      32.641  21.729  23.725  1.00  0.00     0.220 C 
ATOM     50  O   UNL A   1      32.511  21.872  22.504  1.00  0.00    -0.275 OA
ATOM     51  N   UNL A   1      32.659  22.869  24.460  1.00  0.00    -0.356 N 
ATOM     52  H   UNL A   1      32.910  23.667  23.942  1.00  0.00     0.163 HD
BRANCH  51  53
ATOM     53  C   UNL A   1      32.385  23.145  25.856  1.00  0.00     0.017 C 
ATOM     54  H   UNL A   1      33.055  22.564  26.455  1.00  0.00     0.049 H 
ATOM     55  H   UNL A   1      31.360  22.888  26.033  1.00  0.00     0.049 H 
BRANCH  53  56
ATOM     56  C   UNL A   1      32.552  24.612  26.227  1.00  0.00    -0.036 C 
ATOM     57  H   UNL A   1      32.725  24.688  27.281  1.00  0.00     0.028 H 
ATOM     58  H   UNL A   1      31.661  25.134  25.950  1.00  0.00     0.028 H 
BRANCH  56  59
ATOM     59  C   UNL A   1      33.736  25.246  25.481  1.00  0.00    -0.052 C 
ATOM     60  H   UNL A   1      33.825  24.760  24.531  1.00  0.00     0.027 H 
ATOM     61  H   UNL A   1      34.589  25.114  26.113  1.00  0.00     0.027 H 
BRANCH  59  62
ATOM     62  C   UNL A   1      33.623  26.757  25.232  1.00  0.00    -0.052 C 
ATOM     63  H   UNL A   1      32.710  26.936  24.705  1.00  0.00     0.027 H 
ATOM     64  H   UNL A   1      34.500  27.028  24.682  1.00  0.00     0.027 H 
BRANCH  62  65
ATOM     65  C   UNL A   1      33.625  27.636  26.482  1.00  0.00    -0.036 C 
ATOM     66  H   UNL A   1      33.949  27.038  27.308  1.00  0.00     0.028 H 
ATOM     67  H   UNL A   1      32.627  28.005  26.591  1.00  0.00     0.028 H 
BRANCH  65  68
ATOM     68  C   UNL A   1      34.527  28.861  26.403  1.00  0.00     0.018 C 
ATOM     69  H   UNL A   1      34.894  28.949  25.402  1.00  0.00     0.049 H 
ATOM     70  H   UNL A   1      35.318  28.722  27.108  1.00  0.00     0.049 H 
BRANCH  68  71
ATOM     71  N   UNL A   1      33.840  30.093  26.754  1.00  0.00    -0.352 N 
ATOM     72  C   UNL A   1      34.224  31.080  27.627  1.00  0.00     0.251 C 
ATOM     73  H   UNL A   1      32.978  30.240  26.303  1.00  0.00     0.163 HD
ATOM     74  O   UNL A   1      33.460  31.998  27.897  1.00  0.00    -0.269 OA
BRANCH  72  75
ATOM     75  C   UNL A   1      35.559  31.020  28.259  1.00  0.00     0.039 A 
ATOM     76  C   UNL A   1      35.939  29.844  28.910  1.00  0.00    -0.049 A 
ATOM     77  C   UNL A   1      36.424  32.117  28.228  1.00  0.00    -0.049 A 
ATOM     78  C   UNL A   1      37.198  29.761  29.507  1.00  0.00    -0.053 A 
ATOM     79  H   UNL A   1      35.292  29.040  28.950  1.00  0.00     0.063 H 
ATOM     80  C   UNL A   1      37.710  32.002  28.744  1.00  0.00    -0.053 A 
ATOM     81  H   UNL A   1      36.108  33.012  27.824  1.00  0.00     0.063 H 
ATOM     82  C   UNL A   1      38.098  30.834  29.415  1.00  0.00    -0.014 A 
ATOM     83  H   UNL A   1      37.467  28.907  30.019  1.00  0.00     0.063 H 
ATOM     84  H   UNL A   1      38.381  32.778  28.632  1.00  0.00     0.063 H 
BRANCH  82  85
ATOM     85  C   UNL A   1      39.428  30.770  30.071  1.00  0.00     0.031 A 
ATOM     86  C   UNL A   1      39.619  31.377  31.434  1.00  0.00     0.074 A 
ATOM     87  C   UNL A   1      40.463  30.197  29.429  1.00  0.00     0.049 A 
ATOM     88  N   UNL A   1      40.699  31.437  32.172  1.00  0.00    -0.248 NA
ATOM     89  C   UNL A   1      38.447  32.031  32.039  1.00  0.00    -0.034 C 
ATOM     90  C   UNL A   1      40.411  29.618  28.086  1.00  0.00    -0.036 A 
ATOM     91  N   UNL A   1      41.763  30.005  29.824  1.00  0.00    -0.354 N 
ATOM     92  C   UNL A   1      40.340  32.146  33.310  1.00  0.00     0.074 A 
ATOM     93  C   UNL A   1      38.964  32.554  33.140  1.00  0.00    -0.034 C 
ATOM     94  H   UNL A   1      37.475  32.072  31.694  1.00  0.00     0.065 H 
ATOM     95  C   UNL A   1      41.613  29.103  27.783  1.00  0.00    -0.036 A 
ATOM     96  H   UNL A   1      39.583  29.608  27.470  1.00  0.00     0.065 H 
ATOM     97  C   UNL A   1      42.528  29.345  28.894  1.00  0.00     0.049 A 
ATOM     98  H   UNL A   1      42.114  30.312  30.691  1.00  0.00     0.167 HD
ATOM     99  C   UNL A   1      41.082  32.410  34.412  1.00  0.00     0.037 A 
ATOM    100  H   UNL A   1      38.451  33.169  33.791  1.00  0.00     0.065 H 
ATOM    101  H   UNL A   1      41.851  28.613  26.906  1.00  0.00     0.065 H 
ATOM    102  C   UNL A   1      43.823  28.976  28.939  1.00  0.00     0.037 A 
ATOM    103  C   UNL A   1      42.443  31.975  34.586  1.00  0.00     0.049 A 
ATOM    104  C   UNL A   1      44.625  29.280  30.177  1.00  0.00     0.074 A 
ATOM    105  C   UNL A   1      43.266  32.133  35.686  1.00  0.00    -0.036 A 
ATOM    106  N   UNL A   1      43.183  31.297  33.626  1.00  0.00    -0.354 N 
ATOM    107  N   UNL A   1      44.254  29.881  31.280  1.00  0.00    -0.248 NA
ATOM    108  C   UNL A   1      46.026  28.838  30.177  1.00  0.00    -0.034 C 
ATOM    109  C   UNL A   1      44.522  31.603  35.371  1.00  0.00    -0.036 A 
ATOM    110  H   UNL A   1      43.000  32.566  36.584  1.00  0.00     0.065 H 
ATOM    111  C   UNL A   1      44.461  31.053  34.101  1.00  0.00     0.049 A 
ATOM    112  H   UNL A   1      42.848  31.031  32.740  1.00  0.00     0.167 HD
ATOM    113  C   UNL A   1      45.359  29.853  32.122  1.00  0.00     0.074 A 
ATOM    114  C   UNL A   1      46.410  29.165  31.403  1.00  0.00    -0.034 C 
ATOM    115  H   UNL A   1      46.569  28.391  29.422  1.00  0.00     0.065 H 
ATOM    116  H   UNL A   1      45.353  31.619  35.982  1.00  0.00     0.065 H 
ATOM    117  C   UNL A   1      45.490  30.350  33.377  1.00  0.00     0.037 A 
ATOM    118  H   UNL A   1      47.341  28.955  31.795  1.00  0.00     0.065 H 
BRANCH  99 119
ATOM    119  C   UNL A   1      40.439  33.209  35.510  1.00  0.00     0.064 A 
ATOM    120  C   UNL A   1      40.588  34.602  35.600  1.00  0.00     0.173 A 
ATOM    121  C   UNL A   1      39.640  32.575  36.475  1.00  0.00     0.173 A 
ATOM    122  F   UNL A   1      41.350  35.259  34.711  1.00  0.00    -0.203 F 
ATOM    123  C   UNL A   1      39.994  35.324  36.633  1.00  0.00     0.198 A 
ATOM    124  C   UNL A   1      39.019  33.305  37.485  1.00  0.00     0.198 A 
ATOM    125  F   UNL A   1      39.459  31.247  36.437  1.00  0.00    -0.203 F 
ATOM    126  F   UNL A   1      40.203  36.644  36.732  1.00  0.00    -0.200 F 
ATOM    127  C   UNL A   1      39.205  34.675  37.570  1.00  0.00     0.200 A 
ATOM    128  F   UNL A   1      38.243  32.679  38.381  1.00  0.00    -0.200 F 
ATOM    129  F   UNL A   1      38.629  35.373  38.560  1.00  0.00    -0.200 F 
ENDBRANCH  99 119
BRANCH 102 130
ATOM    130  C   UNL A   1      44.429  28.239  27.799  1.00  0.00     0.064 A 
ATOM    131  C   UNL A   1      45.232  28.901  26.859  1.00  0.00     0.173 A 
ATOM    132  C   UNL A   1      44.211  26.865  27.616  1.00  0.00     0.173 A 
ATOM    133  F   UNL A   1      45.456  30.218  26.979  1.00  0.00    -0.203 F 
ATOM    134  C   UNL A   1      45.767  28.225  25.765  1.00  0.00     0.198 A 
ATOM    135  C   UNL A   1      44.774  26.184  26.539  1.00  0.00     0.198 A 
ATOM    136  F   UNL A   1      43.457  26.182  28.490  1.00  0.00    -0.203 F 
ATOM    137  F   UNL A   1      46.484  28.895  24.851  1.00  0.00    -0.200 F 
ATOM    138  C   UNL A   1      45.543  26.866  25.607  1.00  0.00     0.200 A 
ATOM    139  F   UNL A   1      44.568  24.867  26.400  1.00  0.00    -0.200 F 
ATOM    140  F   UNL A   1      46.058  26.216  24.555  1.00  0.00    -0.200 F 
ENDBRANCH 102 130
BRANCH 117 141
ATOM    141  C   UNL A   1      46.798  30.113  34.077  1.00  0.00     0.064 A 
ATOM    142  C   UNL A   1      47.890  30.980  33.929  1.00  0.00     0.173 A 
ATOM    143  C   UNL A   1      46.948  29.011  34.934  1.00  0.00     0.173 A 
ATOM    144  F   UNL A   1      47.803  32.042  33.113  1.00  0.00    -0.203 F 
ATOM    145  C   UNL A   1      49.095  30.731  34.581  1.00  0.00     0.198 A 
ATOM    146  C   UNL A   1      48.141  28.787  35.613  1.00  0.00     0.198 A 
ATOM    147  F   UNL A   1      45.932  28.155  35.121  1.00  0.00    -0.203 F 
ATOM    148  F   UNL A   1      50.145  31.539  34.373  1.00  0.00    -0.200 F 
ATOM    149  C   UNL A   1      49.217  29.641  35.428  1.00  0.00     0.200 A 
ATOM    150  F   UNL A   1      48.250  27.742  36.447  1.00  0.00    -0.200 F 
ATOM    151  F   UNL A   1      50.376  29.406  36.058  1.00  0.00    -0.200 F 
ENDBRANCH 117 141
ENDBRANCH  82  85
ENDBRANCH  72  75
ENDBRANCH  68  71
ENDBRANCH  65  68
ENDBRANCH  62  65
ENDBRANCH  59  62
ENDBRANCH  56  59
ENDBRANCH  53  56
ENDBRANCH  51  53
ENDBRANCH  46  49
ENDBRANCH  43  46
ENDBRANCH   1  43
TORSDOF 27
ENDMDL
MODEL 10
REMARK VINA RESULT:      -7.8      5.892     11.558
REMARK SMILES CC/C=C/C/C=C/C/C=C/C/C=C/CCSCCCC(=O)NCCCCCCNC(=O)c1ccc(-c2c3nc(c(-c4c(F)c(F)c(F)c(F)c4F)c4ccc([nH]4)c(-c4c(F)c(F)c(F)c(F)c4F)c4nc(c(-c5c(F)c(F)c(F)c(F)c5F)c5ccc2[nH]5)C=C4)C=C3)cc1
REMARK SMILES IDX 17 1 16 4 15 5 14 8 13 11 12 12 11 15 10 18 9 19 8 22 7 25
REMARK SMILES IDX 6 26 5 29 4 32 3 33 2 36 1 39 18 43 19 46 20 49 21 50 22 51
REMARK SMILES IDX 23 53 24 56 25 59 26 62 27 65 28 68 29 71 30 72 31 74 32 75
REMARK SMILES IDX 33 76 94 77 34 78 93 80 35 82 36 85 37 86 87 87 38 88 92 89
REMARK SMILES IDX 86 90 88 91 39 92 91 93 85 95 84 97 40 99 72 102 52 103
REMARK SMILES IDX 71 104 53 105 56 106 70 107 89 108 54 109 55 111 69 113
REMARK SMILES IDX 90 114 57 117 41 119 42 120 50 121 43 122 44 123 48 124
REMARK SMILES IDX 51 125 45 126 46 127 49 128 47 129 73 130 74 131 82 132
REMARK SMILES IDX 75 133 76 134 80 135 83 136 77 137 78 138 81 139 79 140
REMARK SMILES IDX 58 141 59 142 67 143 60 144 61 145 65 146 68 147 62 148
REMARK SMILES IDX 63 149 66 150 64 151
REMARK H PARENT 17 2 17 3 15 6 15 7 14 9 14 10 12 13 13 14 11 16 11 17 9 20
REMARK H PARENT 10 21 8 23 8 24 6 27 7 28 5 30 5 31 3 34 4 35 2 37 2 38 1 40
REMARK H PARENT 1 41 1 42 18 44 18 45 19 47 19 48 22 52 23 54 23 55 24 57
REMARK H PARENT 24 58 25 60 25 61 26 63 26 64 27 66 27 67 28 69 28 70 29 73
REMARK H PARENT 33 79 94 81 34 83 93 84 92 94 86 96 88 98 91 100 85 101 53 110
REMARK H PARENT 56 112 89 115 54 116 90 118
REMARK Flexibility Score: inf
ROOT
ATOM      1  C   UNL A   1      41.545  33.446  36.117  1.00  0.00    -0.006 C 
ATOM      2  H   UNL A   1      42.178  32.587  36.038  1.00  0.00     0.038 H 
ATOM      3  H   UNL A   1      41.053  33.767  37.010  1.00  0.00     0.038 H 
ENDROOT
BRANCH   1   4
ATOM      4  S   UNL A   1      40.044  33.007  35.125  1.00  0.00    -0.162 SA
BRANCH   4   5
ATOM      5  C   UNL A   1      39.570  31.237  35.363  1.00  0.00    -0.003 C 
ATOM      6  H   UNL A   1      39.042  31.171  36.291  1.00  0.00     0.038 H 
ATOM      7  H   UNL A   1      39.004  30.991  34.488  1.00  0.00     0.038 H 
BRANCH   5   8
ATOM      8  C   UNL A   1      40.707  30.174  35.400  1.00  0.00    -0.026 C 
ATOM      9  H   UNL A   1      41.635  30.685  35.247  1.00  0.00     0.032 H 
ATOM     10  H   UNL A   1      40.620  29.696  36.353  1.00  0.00     0.032 H 
BRANCH   8  11
ATOM     11  C   UNL A   1      40.618  29.066  34.384  1.00  0.00    -0.087 C 
ATOM     12  C   UNL A   1      40.003  29.084  33.187  1.00  0.00    -0.085 C 
ATOM     13  H   UNL A   1      39.311  29.824  32.998  1.00  0.00     0.058 H 
ATOM     14  H   UNL A   1      41.085  28.182  34.638  1.00  0.00     0.057 H 
BRANCH  12  15
ATOM     15  C   UNL A   1      40.290  28.059  32.102  1.00  0.00    -0.017 C 
ATOM     16  H   UNL A   1      41.350  28.008  31.968  1.00  0.00     0.035 H 
ATOM     17  H   UNL A   1      39.855  27.143  32.439  1.00  0.00     0.035 H 
BRANCH  15  18
ATOM     18  C   UNL A   1      39.669  28.346  30.766  1.00  0.00    -0.084 C 
ATOM     19  C   UNL A   1      39.551  27.423  29.795  1.00  0.00    -0.084 C 
ATOM     20  H   UNL A   1      39.868  26.463  30.000  1.00  0.00     0.058 H 
ATOM     21  H   UNL A   1      39.315  29.298  30.583  1.00  0.00     0.058 H 
BRANCH  19  22
ATOM     22  C   UNL A   1      38.988  27.703  28.429  1.00  0.00    -0.017 C 
ATOM     23  H   UNL A   1      39.767  28.041  27.779  1.00  0.00     0.035 H 
ATOM     24  H   UNL A   1      38.561  26.813  28.016  1.00  0.00     0.035 H 
BRANCH  22  25
ATOM     25  C   UNL A   1      37.940  28.766  28.562  1.00  0.00    -0.084 C 
ATOM     26  C   UNL A   1      38.076  30.029  28.132  1.00  0.00    -0.084 C 
ATOM     27  H   UNL A   1      38.879  30.256  27.524  1.00  0.00     0.058 H 
ATOM     28  H   UNL A   1      37.051  28.508  29.018  1.00  0.00     0.058 H 
BRANCH  26  29
ATOM     29  C   UNL A   1      37.119  31.127  28.492  1.00  0.00    -0.017 C 
ATOM     30  H   UNL A   1      37.568  32.076  28.289  1.00  0.00     0.035 H 
ATOM     31  H   UNL A   1      36.224  31.032  27.913  1.00  0.00     0.035 H 
BRANCH  29  32
ATOM     32  C   UNL A   1      36.790  31.030  29.954  1.00  0.00    -0.085 C 
ATOM     33  C   UNL A   1      36.252  32.025  30.676  1.00  0.00    -0.089 C 
ATOM     34  H   UNL A   1      35.972  32.887  30.184  1.00  0.00     0.057 H 
ATOM     35  H   UNL A   1      36.990  30.138  30.435  1.00  0.00     0.058 H 
BRANCH  33  36
ATOM     36  C   UNL A   1      36.035  31.951  32.158  1.00  0.00    -0.038 C 
ATOM     37  H   UNL A   1      36.339  32.874  32.606  1.00  0.00     0.031 H 
ATOM     38  H   UNL A   1      34.998  31.772  32.348  1.00  0.00     0.031 H 
BRANCH  36  39
ATOM     39  C   UNL A   1      36.848  30.812  32.760  1.00  0.00    -0.062 C 
ATOM     40  H   UNL A   1      37.769  31.199  33.145  1.00  0.00     0.023 H 
ATOM     41  H   UNL A   1      37.056  30.085  32.003  1.00  0.00     0.023 H 
ATOM     42  H   UNL A   1      36.293  30.357  33.551  1.00  0.00     0.023 H 
ENDBRANCH  36  39
ENDBRANCH  33  36
ENDBRANCH  29  32
ENDBRANCH  26  29
ENDBRANCH  22  25
ENDBRANCH  19  22
ENDBRANCH  15  18
ENDBRANCH  12  15
ENDBRANCH   8  11
ENDBRANCH   5   8
ENDBRANCH   4   5
ENDBRANCH   1   4
BRANCH   1  43
ATOM     43  C   UNL A   1      42.488  34.633  35.941  1.00  0.00    -0.035 C 
ATOM     44  H   UNL A   1      43.123  34.402  35.112  1.00  0.00     0.028 H 
ATOM     45  H   UNL A   1      42.946  34.726  36.903  1.00  0.00     0.028 H 
BRANCH  43  46
ATOM     46  C   UNL A   1      41.926  36.014  35.689  1.00  0.00     0.027 C 
ATOM     47  H   UNL A   1      41.709  36.077  34.643  1.00  0.00     0.037 H 
ATOM     48  H   UNL A   1      42.685  36.670  36.061  1.00  0.00     0.037 H 
BRANCH  46  49
ATOM     49  C   UNL A   1      40.674  36.450  36.431  1.00  0.00     0.220 C 
ATOM     50  O   UNL A   1      39.589  36.434  35.838  1.00  0.00    -0.275 OA
ATOM     51  N   UNL A   1      40.633  36.803  37.739  1.00  0.00    -0.356 N 
ATOM     52  H   UNL A   1      39.834  37.325  37.982  1.00  0.00     0.163 HD
BRANCH  51  53
ATOM     53  C   UNL A   1      41.531  36.566  38.851  1.00  0.00     0.017 C 
ATOM     54  H   UNL A   1      42.146  35.723  38.617  1.00  0.00     0.049 H 
ATOM     55  H   UNL A   1      40.924  36.395  39.716  1.00  0.00     0.049 H 
BRANCH  53  56
ATOM     56  C   UNL A   1      42.435  37.752  39.163  1.00  0.00    -0.036 C 
ATOM     57  H   UNL A   1      42.641  37.766  40.213  1.00  0.00     0.028 H 
ATOM     58  H   UNL A   1      41.932  38.647  38.863  1.00  0.00     0.028 H 
BRANCH  56  59
ATOM     59  C   UNL A   1      43.762  37.661  38.394  1.00  0.00    -0.052 C 
ATOM     60  H   UNL A   1      44.133  38.656  38.259  1.00  0.00     0.027 H 
ATOM     61  H   UNL A   1      43.537  37.159  37.476  1.00  0.00     0.027 H 
BRANCH  59  62
ATOM     62  C   UNL A   1      44.860  36.832  39.074  1.00  0.00    -0.052 C 
ATOM     63  H   UNL A   1      44.629  36.773  40.116  1.00  0.00     0.027 H 
ATOM     64  H   UNL A   1      45.780  37.337  38.863  1.00  0.00     0.027 H 
BRANCH  62  65
ATOM     65  C   UNL A   1      45.036  35.407  38.549  1.00  0.00    -0.036 C 
ATOM     66  H   UNL A   1      46.085  35.212  38.464  1.00  0.00     0.028 H 
ATOM     67  H   UNL A   1      44.520  35.367  37.612  1.00  0.00     0.028 H 
BRANCH  65  68
ATOM     68  C   UNL A   1      44.422  34.321  39.422  1.00  0.00     0.018 C 
ATOM     69  H   UNL A   1      43.922  33.618  38.790  1.00  0.00     0.049 H 
ATOM     70  H   UNL A   1      43.747  34.799  40.100  1.00  0.00     0.049 H 
BRANCH  68  71
ATOM     71  N   UNL A   1      45.408  33.609  40.217  1.00  0.00    -0.352 N 
ATOM     72  C   UNL A   1      45.972  32.377  39.999  1.00  0.00     0.251 C 
ATOM     73  H   UNL A   1      45.715  34.076  41.028  1.00  0.00     0.163 HD
ATOM     74  O   UNL A   1      46.701  31.873  40.843  1.00  0.00    -0.269 OA
BRANCH  72  75
ATOM     75  C   UNL A   1      45.677  31.649  38.746  1.00  0.00     0.039 A 
ATOM     76  C   UNL A   1      44.398  31.119  38.566  1.00  0.00    -0.049 A 
ATOM     77  C   UNL A   1      46.656  31.473  37.765  1.00  0.00    -0.049 A 
ATOM     78  C   UNL A   1      44.094  30.435  37.388  1.00  0.00    -0.053 A 
ATOM     79  H   UNL A   1      43.680  31.233  39.299  1.00  0.00     0.063 H 
ATOM     80  C   UNL A   1      46.326  30.871  36.556  1.00  0.00    -0.053 A 
ATOM     81  H   UNL A   1      47.623  31.789  37.938  1.00  0.00     0.063 H 
ATOM     82  C   UNL A   1      45.051  30.319  36.368  1.00  0.00    -0.014 A 
ATOM     83  H   UNL A   1      43.160  30.012  37.267  1.00  0.00     0.063 H 
ATOM     84  H   UNL A   1      47.022  30.830  35.795  1.00  0.00     0.063 H 
BRANCH  82  85
ATOM     85  C   UNL A   1      44.751  29.569  35.123  1.00  0.00     0.031 A 
ATOM     86  C   UNL A   1      44.125  30.280  33.954  1.00  0.00     0.074 A 
ATOM     87  C   UNL A   1      45.013  28.250  35.057  1.00  0.00     0.049 A 
ATOM     88  N   UNL A   1      43.775  29.806  32.785  1.00  0.00    -0.248 NA
ATOM     89  C   UNL A   1      43.823  31.710  34.133  1.00  0.00    -0.034 C 
ATOM     90  C   UNL A   1      45.575  27.443  36.141  1.00  0.00    -0.036 A 
ATOM     91  N   UNL A   1      44.843  27.356  34.031  1.00  0.00    -0.354 N 
ATOM     92  C   UNL A   1      43.200  30.870  32.103  1.00  0.00     0.074 A 
ATOM     93  C   UNL A   1      43.186  31.997  33.009  1.00  0.00    -0.034 C 
ATOM     94  H   UNL A   1      44.048  32.328  34.928  1.00  0.00     0.065 H 
ATOM     95  C   UNL A   1      45.738  26.183  35.711  1.00  0.00    -0.036 A 
ATOM     96  H   UNL A   1      45.808  27.789  37.086  1.00  0.00     0.065 H 
ATOM     97  C   UNL A   1      45.260  26.083  34.335  1.00  0.00     0.049 A 
ATOM     98  H   UNL A   1      44.457  27.602  33.159  1.00  0.00     0.167 HD
ATOM     99  C   UNL A   1      42.750  30.913  30.827  1.00  0.00     0.037 A 
ATOM    100  H   UNL A   1      42.740  32.905  32.805  1.00  0.00     0.065 H 
ATOM    101  H   UNL A   1      46.137  25.408  36.264  1.00  0.00     0.065 H 
ATOM    102  C   UNL A   1      45.260  24.966  33.583  1.00  0.00     0.037 A 
ATOM    103  C   UNL A   1      42.795  29.794  29.922  1.00  0.00     0.049 A 
ATOM    104  C   UNL A   1      44.756  25.042  32.166  1.00  0.00     0.074 A 
ATOM    105  C   UNL A   1      42.424  29.745  28.590  1.00  0.00    -0.036 A 
ATOM    106  N   UNL A   1      43.236  28.523  30.262  1.00  0.00    -0.354 N 
ATOM    107  N   UNL A   1      44.287  26.071  31.505  1.00  0.00    -0.248 NA
ATOM    108  C   UNL A   1      44.795  23.797  31.387  1.00  0.00    -0.034 C 
ATOM    109  C   UNL A   1      42.587  28.430  28.141  1.00  0.00    -0.036 A 
ATOM    110  H   UNL A   1      42.087  30.540  28.026  1.00  0.00     0.065 H 
ATOM    111  C   UNL A   1      43.124  27.677  29.171  1.00  0.00     0.049 A 
ATOM    112  H   UNL A   1      43.578  28.262  31.148  1.00  0.00     0.167 HD
ATOM    113  C   UNL A   1      44.016  25.612  30.222  1.00  0.00     0.074 A 
ATOM    114  C   UNL A   1      44.384  24.211  30.197  1.00  0.00    -0.034 C 
ATOM    115  H   UNL A   1      45.070  22.849  31.687  1.00  0.00     0.065 H 
ATOM    116  H   UNL A   1      42.347  28.082  27.200  1.00  0.00     0.065 H 
ATOM    117  C   UNL A   1      43.511  26.288  29.160  1.00  0.00     0.037 A 
ATOM    118  H   UNL A   1      44.332  23.612  29.359  1.00  0.00     0.065 H 
BRANCH  99 119
ATOM    119  C   UNL A   1      42.166  32.208  30.337  1.00  0.00     0.064 A 
ATOM    120  C   UNL A   1      42.962  33.207  29.755  1.00  0.00     0.173 A 
ATOM    121  C   UNL A   1      40.785  32.444  30.429  1.00  0.00     0.173 A 
ATOM    122  F   UNL A   1      44.289  33.040  29.651  1.00  0.00    -0.203 F 
ATOM    123  C   UNL A   1      42.404  34.407  29.318  1.00  0.00     0.198 A 
ATOM    124  C   UNL A   1      40.226  33.630  29.958  1.00  0.00     0.198 A 
ATOM    125  F   UNL A   1      39.975  31.523  30.972  1.00  0.00    -0.203 F 
ATOM    126  F   UNL A   1      43.193  35.370  28.822  1.00  0.00    -0.200 F 
ATOM    127  C   UNL A   1      41.036  34.613  29.414  1.00  0.00     0.200 A 
ATOM    128  F   UNL A   1      38.902  33.822  30.037  1.00  0.00    -0.200 F 
ATOM    129  F   UNL A   1      40.500  35.766  28.987  1.00  0.00    -0.200 F 
ENDBRANCH  99 119
BRANCH 102 130
ATOM    130  C   UNL A   1      45.794  23.694  34.136  1.00  0.00     0.064 A 
ATOM    131  C   UNL A   1      44.931  22.651  34.505  1.00  0.00     0.173 A 
ATOM    132  C   UNL A   1      47.171  23.495  34.319  1.00  0.00     0.173 A 
ATOM    133  F   UNL A   1      43.606  22.798  34.367  1.00  0.00    -0.203 F 
ATOM    134  C   UNL A   1      45.422  21.473  35.064  1.00  0.00     0.198 A 
ATOM    135  C   UNL A   1      47.662  22.303  34.848  1.00  0.00     0.198 A 
ATOM    136  F   UNL A   1      48.040  24.457  33.976  1.00  0.00    -0.203 F 
ATOM    137  F   UNL A   1      44.571  20.516  35.460  1.00  0.00    -0.200 F 
ATOM    138  C   UNL A   1      46.788  21.297  35.231  1.00  0.00     0.200 A 
ATOM    139  F   UNL A   1      48.983  22.132  34.992  1.00  0.00    -0.200 F 
ATOM    140  F   UNL A   1      47.259  20.164  35.768  1.00  0.00    -0.200 F 
ENDBRANCH 102 130
BRANCH 117 141
ATOM    141  C   UNL A   1      43.384  25.538  27.864  1.00  0.00     0.064 A 
ATOM    142  C   UNL A   1      42.262  24.753  27.566  1.00  0.00     0.173 A 
ATOM    143  C   UNL A   1      44.395  25.633  26.894  1.00  0.00     0.173 A 
ATOM    144  F   UNL A   1      41.272  24.619  28.462  1.00  0.00    -0.203 F 
ATOM    145  C   UNL A   1      42.174  24.059  26.361  1.00  0.00     0.198 A 
ATOM    146  C   UNL A   1      44.286  24.969  25.677  1.00  0.00     0.198 A 
ATOM    147  F   UNL A   1      45.485  26.380  27.124  1.00  0.00    -0.203 F 
ATOM    148  F   UNL A   1      41.121  23.263  26.124  1.00  0.00    -0.200 F 
ATOM    149  C   UNL A   1      43.181  24.174  25.416  1.00  0.00     0.200 A 
ATOM    150  F   UNL A   1      45.252  25.098  24.756  1.00  0.00    -0.200 F 
ATOM    151  F   UNL A   1      43.092  23.510  24.255  1.00  0.00    -0.200 F 
ENDBRANCH 117 141
ENDBRANCH  82  85
ENDBRANCH  72  75
ENDBRANCH  68  71
ENDBRANCH  65  68
ENDBRANCH  62  65
ENDBRANCH  59  62
ENDBRANCH  56  59
ENDBRANCH  53  56
ENDBRANCH  51  53
ENDBRANCH  46  49
ENDBRANCH  43  46
ENDBRANCH   1  43
TORSDOF 27
ENDMDL
