MODEL 1
REMARK VINA RESULT:     -12.4      0.000      0.000
REMARK SMILES O=C(Cc1ccccc1Nc1c(F)cccc1C(F)(F)F)NCCCCCCNC(=O)c1ccc(-c2c3nc(c(-c4c(F)c(F)c(F)c(F)c4F)c4ccc([nH]4)c(-c4c(F)c(F)c(F)c(F)c4F)c4nc(c(-c5c(F)c(F)c(F)c(F)c5F)c5ccc2[nH]5)C=C4)C=C3)cc1
REMARK SMILES IDX 24 1 23 4 22 7 1 8 2 9 3 11 4 14 5 15 9 16 6 17 8 19 7 20
REMARK SMILES IDX 10 24 11 26 12 27 17 28 13 29 14 30 16 31 15 32 18 36 19 37
REMARK SMILES IDX 20 38 21 39 25 40 26 43 27 46 28 49 29 52 30 53 31 55 32 56
REMARK SMILES IDX 33 57 94 58 34 59 93 61 35 63 36 66 37 67 87 68 38 69 92 70
REMARK SMILES IDX 86 71 88 72 39 73 91 74 85 76 84 78 40 80 72 83 52 84 71 85
REMARK SMILES IDX 53 86 56 87 70 88 89 89 54 90 55 92 69 94 90 95 57 98 41 100
REMARK SMILES IDX 42 101 50 102 43 103 44 104 48 105 51 106 45 107 46 108
REMARK SMILES IDX 49 109 47 110 73 111 74 112 82 113 75 114 76 115 80 116
REMARK SMILES IDX 83 117 77 118 78 119 81 120 79 121 58 122 59 123 67 124
REMARK SMILES IDX 60 125 61 126 65 127 68 128 62 129 63 130 66 131 64 132
REMARK H PARENT 24 2 24 3 23 5 23 6 22 10 3 12 3 13 5 18 6 21 8 22 7 23 10 25
REMARK H PARENT 14 33 16 34 15 35 25 41 25 42 26 44 26 45 27 47 27 48 28 50
REMARK H PARENT 28 51 29 54 33 60 94 62 34 64 93 65 92 75 86 77 88 79 91 81
REMARK H PARENT 85 82 53 91 56 93 89 96 54 97 90 99
REMARK Flexibility Score: inf
ROOT
ATOM      1  C   UNL A   1      35.929  23.531  24.422  1.00  0.00    -0.036 C 
ATOM      2  H   UNL A   1      35.882  23.576  25.490  1.00  0.00     0.028 H 
ATOM      3  H   UNL A   1      36.610  24.238  23.997  1.00  0.00     0.028 H 
ENDROOT
BRANCH   1   4
ATOM      4  C   UNL A   1      34.544  23.884  23.871  1.00  0.00     0.017 C 
ATOM      5  H   UNL A   1      34.407  23.390  22.931  1.00  0.00     0.049 H 
ATOM      6  H   UNL A   1      33.807  23.563  24.577  1.00  0.00     0.049 H 
BRANCH   4   7
ATOM      7  N   UNL A   1      34.401  25.311  23.679  1.00  0.00    -0.356 N 
ATOM      8  O   UNL A   1      33.339  25.783  25.654  1.00  0.00    -0.275 OA
ATOM      9  C   UNL A   1      33.778  26.152  24.568  1.00  0.00     0.224 C 
ATOM     10  H   UNL A   1      34.774  25.703  22.857  1.00  0.00     0.163 HD
BRANCH   9  11
ATOM     11  C   UNL A   1      33.536  27.553  24.034  1.00  0.00     0.054 C 
ATOM     12  H   UNL A   1      32.738  27.497  23.325  1.00  0.00     0.042 H 
ATOM     13  H   UNL A   1      34.476  27.866  23.627  1.00  0.00     0.042 H 
BRANCH  11  14
ATOM     14  C   UNL A   1      33.172  28.615  25.054  1.00  0.00    -0.015 A 
ATOM     15  C   UNL A   1      33.931  28.679  26.239  1.00  0.00    -0.056 A 
ATOM     16  C   UNL A   1      32.094  29.512  24.885  1.00  0.00     0.042 A 
ATOM     17  C   UNL A   1      33.610  29.581  27.252  1.00  0.00    -0.062 A 
ATOM     18  H   UNL A   1      34.739  28.048  26.357  1.00  0.00     0.063 H 
ATOM     19  C   UNL A   1      31.777  30.398  25.927  1.00  0.00    -0.038 A 
ATOM     20  C   UNL A   1      32.526  30.434  27.102  1.00  0.00    -0.060 A 
ATOM     21  H   UNL A   1      34.178  29.614  28.113  1.00  0.00     0.062 H 
ATOM     22  H   UNL A   1      30.972  31.037  25.821  1.00  0.00     0.064 H 
ATOM     23  H   UNL A   1      32.276  31.093  27.856  1.00  0.00     0.062 H 
BRANCH  16  24
ATOM     24  N   UNL A   1      31.328  29.514  23.696  1.00  0.00    -0.352 N 
ATOM     25  H   UNL A   1      31.840  29.634  22.863  1.00  0.00     0.167 HD
BRANCH  24  26
ATOM     26  C   UNL A   1      29.929  29.365  23.531  1.00  0.00     0.087 A 
ATOM     27  C   UNL A   1      29.160  30.546  23.468  1.00  0.00     0.147 A 
ATOM     28  C   UNL A   1      29.256  28.131  23.427  1.00  0.00     0.082 A 
ATOM     29  F   UNL A   1      29.777  31.729  23.623  1.00  0.00    -0.205 F 
ATOM     30  C   UNL A   1      27.784  30.535  23.273  1.00  0.00    -0.024 A 
ATOM     31  C   UNL A   1      27.857  28.134  23.201  1.00  0.00    -0.048 A 
ATOM     32  C   UNL A   1      27.128  29.321  23.127  1.00  0.00    -0.059 A 
ATOM     33  H   UNL A   1      27.254  31.421  23.237  1.00  0.00     0.065 H 
ATOM     34  H   UNL A   1      27.365  27.234  23.089  1.00  0.00     0.063 H 
ATOM     35  H   UNL A   1      26.110  29.296  22.965  1.00  0.00     0.062 H 
BRANCH  28  36
ATOM     36  C   UNL A   1      29.909  26.780  23.618  1.00  0.00     0.418 C 
ATOM     37  F   UNL A   1      29.002  25.761  23.501  1.00  0.00    -0.166 F 
ATOM     38  F   UNL A   1      30.862  26.514  22.685  1.00  0.00    -0.166 F 
ATOM     39  F   UNL A   1      30.477  26.582  24.837  1.00  0.00    -0.166 F 
ENDBRANCH  28  36
ENDBRANCH  24  26
ENDBRANCH  16  24
ENDBRANCH  11  14
ENDBRANCH   9  11
ENDBRANCH   4   7
ENDBRANCH   1   4
BRANCH   1  40
ATOM     40  C   UNL A   1      36.449  22.143  24.026  1.00  0.00    -0.052 C 
ATOM     41  H   UNL A   1      37.366  22.273  23.491  1.00  0.00     0.027 H 
ATOM     42  H   UNL A   1      35.675  21.690  23.443  1.00  0.00     0.027 H 
BRANCH  40  43
ATOM     43  C   UNL A   1      36.713  21.191  25.193  1.00  0.00    -0.052 C 
ATOM     44  H   UNL A   1      35.812  20.645  25.380  1.00  0.00     0.027 H 
ATOM     45  H   UNL A   1      37.025  21.812  26.006  1.00  0.00     0.027 H 
BRANCH  43  46
ATOM     46  C   UNL A   1      37.836  20.181  24.993  1.00  0.00    -0.036 C 
ATOM     47  H   UNL A   1      38.073  20.148  23.950  1.00  0.00     0.028 H 
ATOM     48  H   UNL A   1      37.477  19.247  25.371  1.00  0.00     0.028 H 
BRANCH  46  49
ATOM     49  C   UNL A   1      39.114  20.496  25.760  1.00  0.00     0.018 C 
ATOM     50  H   UNL A   1      38.849  20.835  26.739  1.00  0.00     0.049 H 
ATOM     51  H   UNL A   1      39.642  21.247  25.208  1.00  0.00     0.049 H 
BRANCH  49  52
ATOM     52  N   UNL A   1      39.998  19.347  25.888  1.00  0.00    -0.352 N 
ATOM     53  C   UNL A   1      41.354  19.305  26.120  1.00  0.00     0.251 C 
ATOM     54  H   UNL A   1      39.562  18.470  25.794  1.00  0.00     0.163 HD
ATOM     55  O   UNL A   1      41.961  18.243  26.053  1.00  0.00    -0.269 OA
BRANCH  53  56
ATOM     56  C   UNL A   1      42.086  20.558  26.410  1.00  0.00     0.039 A 
ATOM     57  C   UNL A   1      42.552  21.331  25.344  1.00  0.00    -0.049 A 
ATOM     58  C   UNL A   1      42.280  20.987  27.725  1.00  0.00    -0.049 A 
ATOM     59  C   UNL A   1      43.122  22.581  25.594  1.00  0.00    -0.053 A 
ATOM     60  H   UNL A   1      42.473  20.980  24.377  1.00  0.00     0.063 H 
ATOM     61  C   UNL A   1      42.768  22.267  27.969  1.00  0.00    -0.053 A 
ATOM     62  H   UNL A   1      42.060  20.358  28.514  1.00  0.00     0.063 H 
ATOM     63  C   UNL A   1      43.184  23.081  26.905  1.00  0.00    -0.014 A 
ATOM     64  H   UNL A   1      43.499  23.140  24.812  1.00  0.00     0.063 H 
ATOM     65  H   UNL A   1      42.826  22.618  28.938  1.00  0.00     0.063 H 
BRANCH  63  66
ATOM     66  C   UNL A   1      43.641  24.467  27.183  1.00  0.00     0.031 A 
ATOM     67  C   UNL A   1      42.666  25.513  27.636  1.00  0.00     0.074 A 
ATOM     68  C   UNL A   1      44.923  24.801  26.938  1.00  0.00     0.049 A 
ATOM     69  N   UNL A   1      42.860  26.791  27.846  1.00  0.00    -0.248 NA
ATOM     70  C   UNL A   1      41.280  25.072  27.852  1.00  0.00    -0.034 C 
ATOM     71  C   UNL A   1      45.952  23.891  26.432  1.00  0.00    -0.036 A 
ATOM     72  N   UNL A   1      45.574  26.004  27.060  1.00  0.00    -0.354 N 
ATOM     73  C   UNL A   1      41.623  27.306  28.208  1.00  0.00     0.074 A 
ATOM     74  C   UNL A   1      40.673  26.217  28.129  1.00  0.00    -0.034 C 
ATOM     75  H   UNL A   1      40.883  24.121  27.800  1.00  0.00     0.065 H 
ATOM     76  C   UNL A   1      47.106  24.563  26.300  1.00  0.00    -0.036 A 
ATOM     77  H   UNL A   1      45.811  22.893  26.211  1.00  0.00     0.065 H 
ATOM     78  C   UNL A   1      46.892  25.957  26.674  1.00  0.00     0.049 A 
ATOM     79  H   UNL A   1      45.139  26.821  27.394  1.00  0.00     0.167 HD
ATOM     80  C   UNL A   1      41.311  28.566  28.598  1.00  0.00     0.037 A 
ATOM     81  H   UNL A   1      39.656  26.318  28.271  1.00  0.00     0.065 H 
ATOM     82  H   UNL A   1      48.002  24.158  25.985  1.00  0.00     0.065 H 
ATOM     83  C   UNL A   1      47.819  26.931  26.612  1.00  0.00     0.037 A 
ATOM     84  C   UNL A   1      42.262  29.644  28.683  1.00  0.00     0.049 A 
ATOM     85  C   UNL A   1      47.452  28.325  27.038  1.00  0.00     0.074 A 
ATOM     86  C   UNL A   1      42.062  30.938  29.130  1.00  0.00    -0.036 A 
ATOM     87  N   UNL A   1      43.593  29.555  28.302  1.00  0.00    -0.354 N 
ATOM     88  N   UNL A   1      46.298  28.782  27.460  1.00  0.00    -0.248 NA
ATOM     89  C   UNL A   1      48.515  29.337  26.986  1.00  0.00    -0.034 C 
ATOM     90  C   UNL A   1      43.259  31.646  28.971  1.00  0.00    -0.036 A 
ATOM     91  H   UNL A   1      41.181  31.317  29.514  1.00  0.00     0.065 H 
ATOM     92  C   UNL A   1      44.220  30.780  28.475  1.00  0.00     0.049 A 
ATOM     93  H   UNL A   1      44.030  28.742  27.961  1.00  0.00     0.167 HD
ATOM     94  C   UNL A   1      46.497  30.128  27.735  1.00  0.00     0.074 A 
ATOM     95  C   UNL A   1      47.890  30.409  27.453  1.00  0.00    -0.034 C 
ATOM     96  H   UNL A   1      49.492  29.238  26.670  1.00  0.00     0.065 H 
ATOM     97  H   UNL A   1      43.402  32.645  29.188  1.00  0.00     0.065 H 
ATOM     98  C   UNL A   1      45.604  31.048  28.177  1.00  0.00     0.037 A 
ATOM     99  H   UNL A   1      48.339  31.326  27.599  1.00  0.00     0.065 H 
BRANCH  80 100
ATOM    100  C   UNL A   1      39.880  28.839  28.960  1.00  0.00     0.064 A 
ATOM    101  C   UNL A   1      39.400  28.638  30.264  1.00  0.00     0.173 A 
ATOM    102  C   UNL A   1      38.978  29.318  27.998  1.00  0.00     0.173 A 
ATOM    103  F   UNL A   1      40.217  28.171  31.220  1.00  0.00    -0.203 F 
ATOM    104  C   UNL A   1      38.063  28.863  30.580  1.00  0.00     0.198 A 
ATOM    105  C   UNL A   1      37.649  29.576  28.326  1.00  0.00     0.198 A 
ATOM    106  F   UNL A   1      39.384  29.536  26.738  1.00  0.00    -0.203 F 
ATOM    107  F   UNL A   1      37.616  28.602  31.816  1.00  0.00    -0.200 F 
ATOM    108  C   UNL A   1      37.190  29.337  29.613  1.00  0.00     0.200 A 
ATOM    109  F   UNL A   1      36.809  30.046  27.394  1.00  0.00    -0.200 F 
ATOM    110  F   UNL A   1      35.903  29.553  29.917  1.00  0.00    -0.200 F 
ENDBRANCH  80 100
BRANCH  83 111
ATOM    111  C   UNL A   1      49.189  26.608  26.136  1.00  0.00     0.064 A 
ATOM    112  C   UNL A   1      49.555  26.814  24.799  1.00  0.00     0.173 A 
ATOM    113  C   UNL A   1      50.167  26.118  27.014  1.00  0.00     0.173 A 
ATOM    114  F   UNL A   1      48.648  27.263  23.919  1.00  0.00    -0.203 F 
ATOM    115  C   UNL A   1      50.846  26.532  24.356  1.00  0.00     0.198 A 
ATOM    116  C   UNL A   1      51.465  25.862  26.575  1.00  0.00     0.198 A 
ATOM    117  F   UNL A   1      49.869  25.910  28.305  1.00  0.00    -0.203 F 
ATOM    118  F   UNL A   1      51.160  26.707  23.066  1.00  0.00    -0.200 F 
ATOM    119  C   UNL A   1      51.801  26.065  25.245  1.00  0.00     0.200 A 
ATOM    120  F   UNL A   1      52.389  25.426  27.442  1.00  0.00    -0.200 F 
ATOM    121  F   UNL A   1      53.046  25.808  24.821  1.00  0.00    -0.200 F 
ENDBRANCH  83 111
BRANCH  98 122
ATOM    122  C   UNL A   1      46.109  32.446  28.389  1.00  0.00     0.064 A 
ATOM    123  C   UNL A   1      46.669  32.845  29.611  1.00  0.00     0.173 A 
ATOM    124  C   UNL A   1      46.069  33.385  27.346  1.00  0.00     0.173 A 
ATOM    125  F   UNL A   1      46.715  31.990  30.645  1.00  0.00    -0.203 F 
ATOM    126  C   UNL A   1      47.151  34.140  29.789  1.00  0.00     0.198 A 
ATOM    127  C   UNL A   1      46.579  34.668  27.518  1.00  0.00     0.198 A 
ATOM    128  F   UNL A   1      45.548  33.051  26.157  1.00  0.00    -0.203 F 
ATOM    129  F   UNL A   1      47.641  34.513  30.979  1.00  0.00    -0.200 F 
ATOM    130  C   UNL A   1      47.113  35.047  28.741  1.00  0.00     0.200 A 
ATOM    131  F   UNL A   1      46.552  35.540  26.500  1.00  0.00    -0.200 F 
ATOM    132  F   UNL A   1      47.585  36.290  28.911  1.00  0.00    -0.200 F 
ENDBRANCH  98 122
ENDBRANCH  63  66
ENDBRANCH  53  56
ENDBRANCH  49  52
ENDBRANCH  46  49
ENDBRANCH  43  46
ENDBRANCH  40  43
ENDBRANCH   1  40
TORSDOF 17
ENDMDL
MODEL 2
REMARK VINA RESULT:     -12.4      5.729     11.232
REMARK SMILES O=C(Cc1ccccc1Nc1c(F)cccc1C(F)(F)F)NCCCCCCNC(=O)c1ccc(-c2c3nc(c(-c4c(F)c(F)c(F)c(F)c4F)c4ccc([nH]4)c(-c4c(F)c(F)c(F)c(F)c4F)c4nc(c(-c5c(F)c(F)c(F)c(F)c5F)c5ccc2[nH]5)C=C4)C=C3)cc1
REMARK SMILES IDX 24 1 23 4 22 7 1 8 2 9 3 11 4 14 5 15 9 16 6 17 8 19 7 20
REMARK SMILES IDX 10 24 11 26 12 27 17 28 13 29 14 30 16 31 15 32 18 36 19 37
REMARK SMILES IDX 20 38 21 39 25 40 26 43 27 46 28 49 29 52 30 53 31 55 32 56
REMARK SMILES IDX 33 57 94 58 34 59 93 61 35 63 36 66 37 67 87 68 38 69 92 70
REMARK SMILES IDX 86 71 88 72 39 73 91 74 85 76 84 78 40 80 72 83 52 84 71 85
REMARK SMILES IDX 53 86 56 87 70 88 89 89 54 90 55 92 69 94 90 95 57 98 41 100
REMARK SMILES IDX 42 101 50 102 43 103 44 104 48 105 51 106 45 107 46 108
REMARK SMILES IDX 49 109 47 110 73 111 74 112 82 113 75 114 76 115 80 116
REMARK SMILES IDX 83 117 77 118 78 119 81 120 79 121 58 122 59 123 67 124
REMARK SMILES IDX 60 125 61 126 65 127 68 128 62 129 63 130 66 131 64 132
REMARK H PARENT 24 2 24 3 23 5 23 6 22 10 3 12 3 13 5 18 6 21 8 22 7 23 10 25
REMARK H PARENT 14 33 16 34 15 35 25 41 25 42 26 44 26 45 27 47 27 48 28 50
REMARK H PARENT 28 51 29 54 33 60 94 62 34 64 93 65 92 75 86 77 88 79 91 81
REMARK H PARENT 85 82 53 91 56 93 89 96 54 97 90 99
REMARK Flexibility Score: inf
ROOT
ATOM      1  C   UNL A   1      32.795  28.179  27.072  1.00  0.00    -0.036 C 
ATOM      2  H   UNL A   1      33.007  27.948  26.049  1.00  0.00     0.028 H 
ATOM      3  H   UNL A   1      33.491  27.744  27.759  1.00  0.00     0.028 H 
ENDROOT
BRANCH   1   4
ATOM      4  C   UNL A   1      31.425  27.590  27.417  1.00  0.00     0.017 C 
ATOM      5  H   UNL A   1      31.514  26.995  28.302  1.00  0.00     0.049 H 
ATOM      6  H   UNL A   1      30.739  28.397  27.573  1.00  0.00     0.049 H 
BRANCH   4   7
ATOM      7  N   UNL A   1      30.920  26.763  26.342  1.00  0.00    -0.356 N 
ATOM      8  O   UNL A   1      31.398  24.723  27.272  1.00  0.00    -0.275 OA
ATOM      9  C   UNL A   1      30.975  25.391  26.332  1.00  0.00     0.224 C 
ATOM     10  H   UNL A   1      30.512  27.214  25.568  1.00  0.00     0.163 HD
BRANCH   9  11
ATOM     11  C   UNL A   1      30.611  24.764  24.997  1.00  0.00     0.054 C 
ATOM     12  H   UNL A   1      29.639  25.119  24.726  1.00  0.00     0.042 H 
ATOM     13  H   UNL A   1      30.672  23.707  25.156  1.00  0.00     0.042 H 
BRANCH  11  14
ATOM     14  C   UNL A   1      31.544  25.046  23.836  1.00  0.00    -0.015 A 
ATOM     15  C   UNL A   1      31.028  25.754  22.733  1.00  0.00    -0.056 A 
ATOM     16  C   UNL A   1      32.886  24.607  23.797  1.00  0.00     0.042 A 
ATOM     17  C   UNL A   1      31.806  25.988  21.599  1.00  0.00    -0.062 A 
ATOM     18  H   UNL A   1      30.058  26.105  22.765  1.00  0.00     0.063 H 
ATOM     19  C   UNL A   1      33.644  24.837  22.637  1.00  0.00    -0.038 A 
ATOM     20  C   UNL A   1      33.110  25.521  21.547  1.00  0.00    -0.060 A 
ATOM     21  H   UNL A   1      31.411  26.509  20.801  1.00  0.00     0.062 H 
ATOM     22  H   UNL A   1      34.616  24.492  22.592  1.00  0.00     0.064 H 
ATOM     23  H   UNL A   1      33.685  25.679  20.703  1.00  0.00     0.062 H 
BRANCH  16  24
ATOM     24  N   UNL A   1      33.461  23.928  24.897  1.00  0.00    -0.352 N 
ATOM     25  H   UNL A   1      33.276  24.322  25.780  1.00  0.00     0.167 HD
BRANCH  24  26
ATOM     26  C   UNL A   1      34.265  22.761  24.909  1.00  0.00     0.087 A 
ATOM     27  C   UNL A   1      35.654  22.939  25.075  1.00  0.00     0.147 A 
ATOM     28  C   UNL A   1      33.778  21.446  24.768  1.00  0.00     0.082 A 
ATOM     29  F   UNL A   1      36.142  24.188  25.154  1.00  0.00    -0.205 F 
ATOM     30  C   UNL A   1      36.544  21.873  25.140  1.00  0.00    -0.024 A 
ATOM     31  C   UNL A   1      34.692  20.367  24.862  1.00  0.00    -0.048 A 
ATOM     32  C   UNL A   1      36.059  20.577  25.043  1.00  0.00    -0.059 A 
ATOM     33  H   UNL A   1      37.556  22.044  25.257  1.00  0.00     0.065 H 
ATOM     34  H   UNL A   1      34.337  19.400  24.795  1.00  0.00     0.063 H 
ATOM     35  H   UNL A   1      36.704  19.774  25.106  1.00  0.00     0.062 H 
BRANCH  28  36
ATOM     36  C   UNL A   1      32.344  21.093  24.439  1.00  0.00     0.418 C 
ATOM     37  F   UNL A   1      32.153  19.738  24.409  1.00  0.00    -0.166 F 
ATOM     38  F   UNL A   1      31.460  21.554  25.364  1.00  0.00    -0.166 F 
ATOM     39  F   UNL A   1      31.911  21.518  23.224  1.00  0.00    -0.166 F 
ENDBRANCH  28  36
ENDBRANCH  24  26
ENDBRANCH  16  24
ENDBRANCH  11  14
ENDBRANCH   9  11
ENDBRANCH   4   7
ENDBRANCH   1   4
BRANCH   1  40
ATOM     40  C   UNL A   1      32.910  29.699  27.250  1.00  0.00    -0.052 C 
ATOM     41  H   UNL A   1      33.927  29.978  27.071  1.00  0.00     0.027 H 
ATOM     42  H   UNL A   1      32.578  29.907  28.246  1.00  0.00     0.027 H 
BRANCH  40  43
ATOM     43  C   UNL A   1      32.020  30.530  26.325  1.00  0.00    -0.052 C 
ATOM     44  H   UNL A   1      31.114  29.985  26.165  1.00  0.00     0.027 H 
ATOM     45  H   UNL A   1      32.597  30.690  25.438  1.00  0.00     0.027 H 
BRANCH  43  46
ATOM     46  C   UNL A   1      31.646  31.920  26.826  1.00  0.00    -0.036 C 
ATOM     47  H   UNL A   1      30.904  31.810  27.589  1.00  0.00     0.028 H 
ATOM     48  H   UNL A   1      31.296  32.466  25.975  1.00  0.00     0.028 H 
BRANCH  46  49
ATOM     49  C   UNL A   1      32.807  32.718  27.405  1.00  0.00     0.018 C 
ATOM     50  H   UNL A   1      33.615  32.701  26.704  1.00  0.00     0.049 H 
ATOM     51  H   UNL A   1      33.077  32.262  28.335  1.00  0.00     0.049 H 
BRANCH  49  52
ATOM     52  N   UNL A   1      32.461  34.104  27.683  1.00  0.00    -0.352 N 
ATOM     53  C   UNL A   1      33.002  34.976  28.601  1.00  0.00     0.251 C 
ATOM     54  H   UNL A   1      31.733  34.473  27.133  1.00  0.00     0.163 HD
ATOM     55  O   UNL A   1      32.485  36.069  28.795  1.00  0.00    -0.269 OA
BRANCH  53  56
ATOM     56  C   UNL A   1      34.189  34.570  29.384  1.00  0.00     0.039 A 
ATOM     57  C   UNL A   1      34.007  34.065  30.674  1.00  0.00    -0.049 A 
ATOM     58  C   UNL A   1      35.472  34.651  28.837  1.00  0.00    -0.049 A 
ATOM     59  C   UNL A   1      35.100  33.550  31.375  1.00  0.00    -0.053 A 
ATOM     60  H   UNL A   1      33.071  34.071  31.105  1.00  0.00     0.063 H 
ATOM     61  C   UNL A   1      36.544  34.061  29.499  1.00  0.00    -0.053 A 
ATOM     62  H   UNL A   1      35.624  35.147  27.944  1.00  0.00     0.063 H 
ATOM     63  C   UNL A   1      36.366  33.494  30.770  1.00  0.00    -0.014 A 
ATOM     64  H   UNL A   1      34.977  33.208  32.341  1.00  0.00     0.063 H 
ATOM     65  H   UNL A   1      37.475  34.041  29.053  1.00  0.00     0.063 H 
BRANCH  63  66
ATOM     66  C   UNL A   1      37.509  32.813  31.430  1.00  0.00     0.031 A 
ATOM     67  C   UNL A   1      38.168  31.630  30.781  1.00  0.00     0.074 A 
ATOM     68  C   UNL A   1      37.893  33.207  32.660  1.00  0.00     0.049 A 
ATOM     69  N   UNL A   1      39.119  30.857  31.240  1.00  0.00    -0.248 NA
ATOM     70  C   UNL A   1      37.670  31.247  29.452  1.00  0.00    -0.034 C 
ATOM     71  C   UNL A   1      37.288  34.299  33.425  1.00  0.00    -0.036 A 
ATOM     72  N   UNL A   1      38.869  32.719  33.493  1.00  0.00    -0.354 N 
ATOM     73  C   UNL A   1      39.326  29.893  30.263  1.00  0.00     0.074 A 
ATOM     74  C   UNL A   1      38.360  30.141  29.215  1.00  0.00    -0.034 C 
ATOM     75  H   UNL A   1      36.967  31.716  28.859  1.00  0.00     0.065 H 
ATOM     76  C   UNL A   1      37.913  34.407  34.606  1.00  0.00    -0.036 A 
ATOM     77  H   UNL A   1      36.505  34.890  33.105  1.00  0.00     0.065 H 
ATOM     78  C   UNL A   1      38.936  33.370  34.701  1.00  0.00     0.049 A 
ATOM     79  H   UNL A   1      39.464  31.975  33.249  1.00  0.00     0.167 HD
ATOM     80  C   UNL A   1      40.255  28.907  30.230  1.00  0.00     0.037 A 
ATOM     81  H   UNL A   1      38.226  29.536  28.390  1.00  0.00     0.065 H 
ATOM     82  H   UNL A   1      37.705  35.111  35.332  1.00  0.00     0.065 H 
ATOM     83  C   UNL A   1      39.722  33.147  35.771  1.00  0.00     0.037 A 
ATOM     84  C   UNL A   1      41.220  28.670  31.272  1.00  0.00     0.049 A 
ATOM     85  C   UNL A   1      40.739  32.041  35.720  1.00  0.00     0.074 A 
ATOM     86  C   UNL A   1      42.245  27.741  31.305  1.00  0.00    -0.036 A 
ATOM     87  N   UNL A   1      41.271  29.362  32.474  1.00  0.00    -0.354 N 
ATOM     88  N   UNL A   1      40.983  31.188  34.755  1.00  0.00    -0.248 NA
ATOM     89  C   UNL A   1      41.595  31.871  36.902  1.00  0.00    -0.034 C 
ATOM     90  C   UNL A   1      42.884  27.837  32.547  1.00  0.00    -0.036 A 
ATOM     91  H   UNL A   1      42.495  27.089  30.545  1.00  0.00     0.065 H 
ATOM     92  C   UNL A   1      42.291  28.861  33.268  1.00  0.00     0.049 A 
ATOM     93  H   UNL A   1      40.672  30.102  32.725  1.00  0.00     0.167 HD
ATOM     94  C   UNL A   1      42.024  30.388  35.205  1.00  0.00     0.074 A 
ATOM     95  C   UNL A   1      42.382  30.874  36.522  1.00  0.00    -0.034 C 
ATOM     96  H   UNL A   1      41.585  32.391  37.793  1.00  0.00     0.065 H 
ATOM     97  H   UNL A   1      43.665  27.245  32.870  1.00  0.00     0.065 H 
ATOM     98  C   UNL A   1      42.626  29.345  34.583  1.00  0.00     0.037 A 
ATOM     99  H   UNL A   1      43.152  30.493  37.093  1.00  0.00     0.065 H 
BRANCH  80 100
ATOM    100  C   UNL A   1      40.266  28.013  29.024  1.00  0.00     0.064 A 
ATOM    101  C   UNL A   1      39.554  26.803  28.999  1.00  0.00     0.173 A 
ATOM    102  C   UNL A   1      40.985  28.371  27.874  1.00  0.00     0.173 A 
ATOM    103  F   UNL A   1      38.858  26.407  30.076  1.00  0.00    -0.203 F 
ATOM    104  C   UNL A   1      39.598  25.966  27.888  1.00  0.00     0.198 A 
ATOM    105  C   UNL A   1      40.999  27.548  26.751  1.00  0.00     0.198 A 
ATOM    106  F   UNL A   1      41.678  29.520  27.840  1.00  0.00    -0.203 F 
ATOM    107  F   UNL A   1      38.962  24.787  27.914  1.00  0.00    -0.200 F 
ATOM    108  C   UNL A   1      40.316  26.341  26.763  1.00  0.00     0.200 A 
ATOM    109  F   UNL A   1      41.683  27.918  25.659  1.00  0.00    -0.200 F 
ATOM    110  F   UNL A   1      40.358  25.535  25.693  1.00  0.00    -0.200 F 
ENDBRANCH  80 100
BRANCH  83 111
ATOM    111  C   UNL A   1      39.578  34.004  36.976  1.00  0.00     0.064 A 
ATOM    112  C   UNL A   1      40.197  35.259  37.048  1.00  0.00     0.173 A 
ATOM    113  C   UNL A   1      38.793  33.599  38.067  1.00  0.00     0.173 A 
ATOM    114  F   UNL A   1      40.972  35.680  36.038  1.00  0.00    -0.203 F 
ATOM    115  C   UNL A   1      40.045  36.073  38.168  1.00  0.00     0.198 A 
ATOM    116  C   UNL A   1      38.619  34.426  39.175  1.00  0.00     0.198 A 
ATOM    117  F   UNL A   1      38.174  32.409  38.045  1.00  0.00    -0.203 F 
ATOM    118  F   UNL A   1      40.674  37.254  38.224  1.00  0.00    -0.200 F 
ATOM    119  C   UNL A   1      39.250  35.660  39.227  1.00  0.00     0.200 A 
ATOM    120  F   UNL A   1      37.838  34.029  40.188  1.00  0.00    -0.200 F 
ATOM    121  F   UNL A   1      39.093  36.449  40.298  1.00  0.00    -0.200 F 
ENDBRANCH  83 111
BRANCH  98 122
ATOM    122  C   UNL A   1      43.740  28.658  35.320  1.00  0.00     0.064 A 
ATOM    123  C   UNL A   1      43.490  27.592  36.198  1.00  0.00     0.173 A 
ATOM    124  C   UNL A   1      45.074  29.044  35.118  1.00  0.00     0.173 A 
ATOM    125  F   UNL A   1      42.230  27.197  36.439  1.00  0.00    -0.203 F 
ATOM    126  C   UNL A   1      44.533  26.951  36.861  1.00  0.00     0.198 A 
ATOM    127  C   UNL A   1      46.116  28.381  35.759  1.00  0.00     0.198 A 
ATOM    128  F   UNL A   1      45.366  30.053  34.285  1.00  0.00    -0.203 F 
ATOM    129  F   UNL A   1      44.268  25.965  37.729  1.00  0.00    -0.200 F 
ATOM    130  C   UNL A   1      45.845  27.341  36.636  1.00  0.00     0.200 A 
ATOM    131  F   UNL A   1      47.384  28.751  35.531  1.00  0.00    -0.200 F 
ATOM    132  F   UNL A   1      46.849  26.718  37.268  1.00  0.00    -0.200 F 
ENDBRANCH  98 122
ENDBRANCH  63  66
ENDBRANCH  53  56
ENDBRANCH  49  52
ENDBRANCH  46  49
ENDBRANCH  43  46
ENDBRANCH  40  43
ENDBRANCH   1  40
TORSDOF 17
ENDMDL
MODEL 3
REMARK VINA RESULT:     -12.4      1.320      2.165
REMARK SMILES O=C(Cc1ccccc1Nc1c(F)cccc1C(F)(F)F)NCCCCCCNC(=O)c1ccc(-c2c3nc(c(-c4c(F)c(F)c(F)c(F)c4F)c4ccc([nH]4)c(-c4c(F)c(F)c(F)c(F)c4F)c4nc(c(-c5c(F)c(F)c(F)c(F)c5F)c5ccc2[nH]5)C=C4)C=C3)cc1
REMARK SMILES IDX 24 1 23 4 22 7 1 8 2 9 3 11 4 14 5 15 9 16 6 17 8 19 7 20
REMARK SMILES IDX 10 24 11 26 12 27 17 28 13 29 14 30 16 31 15 32 18 36 19 37
REMARK SMILES IDX 20 38 21 39 25 40 26 43 27 46 28 49 29 52 30 53 31 55 32 56
REMARK SMILES IDX 33 57 94 58 34 59 93 61 35 63 36 66 37 67 87 68 38 69 92 70
REMARK SMILES IDX 86 71 88 72 39 73 91 74 85 76 84 78 40 80 72 83 52 84 71 85
REMARK SMILES IDX 53 86 56 87 70 88 89 89 54 90 55 92 69 94 90 95 57 98 41 100
REMARK SMILES IDX 42 101 50 102 43 103 44 104 48 105 51 106 45 107 46 108
REMARK SMILES IDX 49 109 47 110 73 111 74 112 82 113 75 114 76 115 80 116
REMARK SMILES IDX 83 117 77 118 78 119 81 120 79 121 58 122 59 123 67 124
REMARK SMILES IDX 60 125 61 126 65 127 68 128 62 129 63 130 66 131 64 132
REMARK H PARENT 24 2 24 3 23 5 23 6 22 10 3 12 3 13 5 18 6 21 8 22 7 23 10 25
REMARK H PARENT 14 33 16 34 15 35 25 41 25 42 26 44 26 45 27 47 27 48 28 50
REMARK H PARENT 28 51 29 54 33 60 94 62 34 64 93 65 92 75 86 77 88 79 91 81
REMARK H PARENT 85 82 53 91 56 93 89 96 54 97 90 99
REMARK Flexibility Score: inf
ROOT
ATOM      1  C   UNL A   1      35.312  24.051  23.989  1.00  0.00    -0.036 C 
ATOM      2  H   UNL A   1      35.661  24.487  24.901  1.00  0.00     0.028 H 
ATOM      3  H   UNL A   1      35.859  24.372  23.127  1.00  0.00     0.028 H 
ENDROOT
BRANCH   1   4
ATOM      4  C   UNL A   1      33.864  24.502  23.771  1.00  0.00     0.017 C 
ATOM      5  H   UNL A   1      33.550  24.206  22.792  1.00  0.00     0.049 H 
ATOM      6  H   UNL A   1      33.251  24.042  24.519  1.00  0.00     0.049 H 
BRANCH   4   7
ATOM      7  N   UNL A   1      33.735  25.937  23.895  1.00  0.00    -0.356 N 
ATOM      8  O   UNL A   1      33.823  26.448  21.663  1.00  0.00    -0.275 OA
ATOM      9  C   UNL A   1      33.759  26.810  22.834  1.00  0.00     0.224 C 
ATOM     10  H   UNL A   1      33.624  26.313  24.798  1.00  0.00     0.163 HD
BRANCH   9  11
ATOM     11  C   UNL A   1      33.854  28.273  23.234  1.00  0.00     0.054 C 
ATOM     12  H   UNL A   1      33.298  28.841  22.519  1.00  0.00     0.042 H 
ATOM     13  H   UNL A   1      34.902  28.490  23.261  1.00  0.00     0.042 H 
BRANCH  11  14
ATOM     14  C   UNL A   1      33.337  28.635  24.612  1.00  0.00    -0.015 A 
ATOM     15  C   UNL A   1      34.120  28.275  25.726  1.00  0.00    -0.056 A 
ATOM     16  C   UNL A   1      32.099  29.282  24.829  1.00  0.00     0.042 A 
ATOM     17  C   UNL A   1      33.675  28.512  27.026  1.00  0.00    -0.062 A 
ATOM     18  H   UNL A   1      35.039  27.830  25.576  1.00  0.00     0.063 H 
ATOM     19  C   UNL A   1      31.663  29.492  26.147  1.00  0.00    -0.038 A 
ATOM     20  C   UNL A   1      32.442  29.110  27.238  1.00  0.00    -0.060 A 
ATOM     21  H   UNL A   1      34.264  28.242  27.830  1.00  0.00     0.062 H 
ATOM     22  H   UNL A   1      30.746  29.938  26.312  1.00  0.00     0.064 H 
ATOM     23  H   UNL A   1      32.103  29.273  28.199  1.00  0.00     0.062 H 
BRANCH  16  24
ATOM     24  N   UNL A   1      31.296  29.699  23.741  1.00  0.00    -0.352 N 
ATOM     25  H   UNL A   1      31.776  30.153  23.011  1.00  0.00     0.167 HD
BRANCH  24  26
ATOM     26  C   UNL A   1      29.899  29.556  23.553  1.00  0.00     0.087 A 
ATOM     27  C   UNL A   1      29.122  30.732  23.588  1.00  0.00     0.147 A 
ATOM     28  C   UNL A   1      29.237  28.330  23.334  1.00  0.00     0.082 A 
ATOM     29  F   UNL A   1      29.728  31.901  23.851  1.00  0.00    -0.205 F 
ATOM     30  C   UNL A   1      27.747  30.728  23.381  1.00  0.00    -0.024 A 
ATOM     31  C   UNL A   1      27.840  28.344  23.098  1.00  0.00    -0.048 A 
ATOM     32  C   UNL A   1      27.102  29.528  23.124  1.00  0.00    -0.059 A 
ATOM     33  H   UNL A   1      27.211  31.611  23.419  1.00  0.00     0.065 H 
ATOM     34  H   UNL A   1      27.355  27.454  22.903  1.00  0.00     0.063 H 
ATOM     35  H   UNL A   1      26.085  29.510  22.951  1.00  0.00     0.062 H 
BRANCH  28  36
ATOM     36  C   UNL A   1      29.899  26.973  23.412  1.00  0.00     0.418 C 
ATOM     37  F   UNL A   1      28.976  25.961  23.397  1.00  0.00    -0.166 F 
ATOM     38  F   UNL A   1      30.717  26.721  22.354  1.00  0.00    -0.166 F 
ATOM     39  F   UNL A   1      30.622  26.748  24.539  1.00  0.00    -0.166 F 
ENDBRANCH  28  36
ENDBRANCH  24  26
ENDBRANCH  16  24
ENDBRANCH  11  14
ENDBRANCH   9  11
ENDBRANCH   4   7
ENDBRANCH   1   4
BRANCH   1  40
ATOM     40  C   UNL A   1      35.510  22.532  24.080  1.00  0.00    -0.052 C 
ATOM     41  H   UNL A   1      34.966  22.078  23.279  1.00  0.00     0.027 H 
ATOM     42  H   UNL A   1      35.161  22.244  25.050  1.00  0.00     0.027 H 
BRANCH  40  43
ATOM     43  C   UNL A   1      36.961  22.060  23.995  1.00  0.00    -0.052 C 
ATOM     44  H   UNL A   1      37.591  22.892  24.233  1.00  0.00     0.027 H 
ATOM     45  H   UNL A   1      37.085  21.688  22.999  1.00  0.00     0.027 H 
BRANCH  43  46
ATOM     46  C   UNL A   1      37.346  20.907  24.914  1.00  0.00    -0.036 C 
ATOM     47  H   UNL A   1      37.483  20.033  24.313  1.00  0.00     0.028 H 
ATOM     48  H   UNL A   1      36.552  20.807  25.624  1.00  0.00     0.028 H 
BRANCH  46  49
ATOM     49  C   UNL A   1      38.619  21.136  25.717  1.00  0.00     0.018 C 
ATOM     50  H   UNL A   1      38.349  21.380  26.723  1.00  0.00     0.049 H 
ATOM     51  H   UNL A   1      39.157  21.931  25.244  1.00  0.00     0.049 H 
BRANCH  49  52
ATOM     52  N   UNL A   1      39.494  19.972  25.740  1.00  0.00    -0.352 N 
ATOM     53  C   UNL A   1      40.833  19.887  26.044  1.00  0.00     0.251 C 
ATOM     54  H   UNL A   1      39.063  19.119  25.503  1.00  0.00     0.163 HD
ATOM     55  O   UNL A   1      41.442  18.839  25.870  1.00  0.00    -0.269 OA
BRANCH  53  56
ATOM     56  C   UNL A   1      41.548  21.082  26.544  1.00  0.00     0.039 A 
ATOM     57  C   UNL A   1      42.125  21.959  25.621  1.00  0.00    -0.049 A 
ATOM     58  C   UNL A   1      41.616  21.359  27.911  1.00  0.00    -0.049 A 
ATOM     59  C   UNL A   1      42.683  23.160  26.065  1.00  0.00    -0.053 A 
ATOM     60  H   UNL A   1      42.138  21.720  24.618  1.00  0.00     0.063 H 
ATOM     61  C   UNL A   1      42.093  22.592  28.344  1.00  0.00    -0.053 A 
ATOM     62  H   UNL A   1      41.312  20.650  28.598  1.00  0.00     0.063 H 
ATOM     63  C   UNL A   1      42.621  23.509  27.424  1.00  0.00    -0.014 A 
ATOM     64  H   UNL A   1      43.142  23.794  25.392  1.00  0.00     0.063 H 
ATOM     65  H   UNL A   1      42.059  22.831  29.347  1.00  0.00     0.063 H 
BRANCH  63  66
ATOM     66  C   UNL A   1      43.065  24.845  27.900  1.00  0.00     0.031 A 
ATOM     67  C   UNL A   1      42.059  25.913  28.214  1.00  0.00     0.074 A 
ATOM     68  C   UNL A   1      44.382  25.120  27.960  1.00  0.00     0.049 A 
ATOM     69  N   UNL A   1      42.256  27.161  28.559  1.00  0.00    -0.248 NA
ATOM     70  C   UNL A   1      40.642  25.540  28.094  1.00  0.00    -0.034 C 
ATOM     71  C   UNL A   1      45.457  24.188  27.617  1.00  0.00    -0.036 A 
ATOM     72  N   UNL A   1      45.041  26.273  28.312  1.00  0.00    -0.354 N 
ATOM     73  C   UNL A   1      40.993  27.721  28.688  1.00  0.00     0.074 A 
ATOM     74  C   UNL A   1      40.038  26.696  28.323  1.00  0.00    -0.034 C 
ATOM     75  H   UNL A   1      40.227  24.618  27.885  1.00  0.00     0.065 H 
ATOM     76  C   UNL A   1      46.639  24.799  27.786  1.00  0.00    -0.036 A 
ATOM     77  H   UNL A   1      45.326  23.217  27.294  1.00  0.00     0.065 H 
ATOM     78  C   UNL A   1      46.408  26.175  28.213  1.00  0.00     0.049 A 
ATOM     79  H   UNL A   1      44.579  27.089  28.607  1.00  0.00     0.167 HD
ATOM     80  C   UNL A   1      40.658  28.968  29.099  1.00  0.00     0.037 A 
ATOM     81  H   UNL A   1      39.020  26.847  28.253  1.00  0.00     0.065 H 
ATOM     82  H   UNL A   1      47.564  24.365  27.639  1.00  0.00     0.065 H 
ATOM     83  C   UNL A   1      47.367  27.096  28.426  1.00  0.00     0.037 A 
ATOM     84  C   UNL A   1      41.611  29.982  29.468  1.00  0.00     0.049 A 
ATOM     85  C   UNL A   1      46.974  28.478  28.871  1.00  0.00     0.074 A 
ATOM     86  C   UNL A   1      41.374  31.252  29.961  1.00  0.00    -0.036 A 
ATOM     87  N   UNL A   1      42.989  29.841  29.374  1.00  0.00    -0.354 N 
ATOM     88  N   UNL A   1      45.777  28.971  29.071  1.00  0.00    -0.248 NA
ATOM     89  C   UNL A   1      48.065  29.428  29.126  1.00  0.00    -0.034 C 
ATOM     90  C   UNL A   1      42.605  31.899  30.117  1.00  0.00    -0.036 A 
ATOM     91  H   UNL A   1      40.448  31.655  30.176  1.00  0.00     0.065 H 
ATOM     92  C   UNL A   1      43.614  31.014  29.771  1.00  0.00     0.049 A 
ATOM     93  H   UNL A   1      43.455  29.029  29.072  1.00  0.00     0.167 HD
ATOM     94  C   UNL A   1      45.968  30.283  29.485  1.00  0.00     0.074 A 
ATOM     95  C   UNL A   1      47.399  30.500  29.530  1.00  0.00    -0.034 C 
ATOM     96  H   UNL A   1      49.083  29.294  29.018  1.00  0.00     0.065 H 
ATOM     97  H   UNL A   1      42.739  32.872  30.435  1.00  0.00     0.065 H 
ATOM     98  C   UNL A   1      45.040  31.221  29.797  1.00  0.00     0.037 A 
ATOM     99  H   UNL A   1      47.845  31.378  29.839  1.00  0.00     0.065 H 
BRANCH  80 100
ATOM    100  C   UNL A   1      39.195  29.299  29.167  1.00  0.00     0.064 A 
ATOM    101  C   UNL A   1      38.461  29.629  28.016  1.00  0.00     0.173 A 
ATOM    102  C   UNL A   1      38.512  29.277  30.392  1.00  0.00     0.173 A 
ATOM    103  F   UNL A   1      39.067  29.676  26.820  1.00  0.00    -0.203 F 
ATOM    104  C   UNL A   1      37.113  29.967  28.096  1.00  0.00     0.198 A 
ATOM    105  C   UNL A   1      37.155  29.582  30.464  1.00  0.00     0.198 A 
ATOM    106  F   UNL A   1      39.162  28.962  31.523  1.00  0.00    -0.203 F 
ATOM    107  F   UNL A   1      36.451  30.340  26.992  1.00  0.00    -0.200 F 
ATOM    108  C   UNL A   1      36.460  29.938  29.318  1.00  0.00     0.200 A 
ATOM    109  F   UNL A   1      36.522  29.541  31.644  1.00  0.00    -0.200 F 
ATOM    110  F   UNL A   1      35.162  30.263  29.395  1.00  0.00    -0.200 F 
ENDBRANCH  80 100
BRANCH  83 111
ATOM    111  C   UNL A   1      48.792  26.728  28.230  1.00  0.00     0.064 A 
ATOM    112  C   UNL A   1      49.583  26.303  29.306  1.00  0.00     0.173 A 
ATOM    113  C   UNL A   1      49.383  26.761  26.958  1.00  0.00     0.173 A 
ATOM    114  F   UNL A   1      49.066  26.273  30.543  1.00  0.00    -0.203 F 
ATOM    115  C   UNL A   1      50.914  25.936  29.120  1.00  0.00     0.198 A 
ATOM    116  C   UNL A   1      50.707  26.368  26.769  1.00  0.00     0.198 A 
ATOM    117  F   UNL A   1      48.668  27.154  25.894  1.00  0.00    -0.203 F 
ATOM    118  F   UNL A   1      51.656  25.565  30.172  1.00  0.00    -0.200 F 
ATOM    119  C   UNL A   1      51.472  25.961  27.851  1.00  0.00     0.200 A 
ATOM    120  F   UNL A   1      51.238  26.378  25.539  1.00  0.00    -0.200 F 
ATOM    121  F   UNL A   1      52.748  25.594  27.671  1.00  0.00    -0.200 F 
ENDBRANCH  83 111
BRANCH  98 122
ATOM    122  C   UNL A   1      45.545  32.570  30.219  1.00  0.00     0.064 A 
ATOM    123  C   UNL A   1      45.845  32.853  31.560  1.00  0.00     0.173 A 
ATOM    124  C   UNL A   1      45.769  33.578  29.268  1.00  0.00     0.173 A 
ATOM    125  F   UNL A   1      45.632  31.929  32.510  1.00  0.00    -0.203 F 
ATOM    126  C   UNL A   1      46.331  34.103  31.937  1.00  0.00     0.198 A 
ATOM    127  C   UNL A   1      46.283  34.816  29.644  1.00  0.00     0.198 A 
ATOM    128  F   UNL A   1      45.502  33.356  27.973  1.00  0.00    -0.203 F 
ATOM    129  F   UNL A   1      46.569  34.366  33.229  1.00  0.00    -0.200 F 
ATOM    130  C   UNL A   1      46.557  35.080  30.978  1.00  0.00     0.200 A 
ATOM    131  F   UNL A   1      46.512  35.754  28.715  1.00  0.00    -0.200 F 
ATOM    132  F   UNL A   1      47.032  36.279  31.340  1.00  0.00    -0.200 F 
ENDBRANCH  98 122
ENDBRANCH  63  66
ENDBRANCH  53  56
ENDBRANCH  49  52
ENDBRANCH  46  49
ENDBRANCH  43  46
ENDBRANCH  40  43
ENDBRANCH   1  40
TORSDOF 17
ENDMDL
MODEL 4
REMARK VINA RESULT:     -12.3      5.667     11.010
REMARK SMILES O=C(Cc1ccccc1Nc1c(F)cccc1C(F)(F)F)NCCCCCCNC(=O)c1ccc(-c2c3nc(c(-c4c(F)c(F)c(F)c(F)c4F)c4ccc([nH]4)c(-c4c(F)c(F)c(F)c(F)c4F)c4nc(c(-c5c(F)c(F)c(F)c(F)c5F)c5ccc2[nH]5)C=C4)C=C3)cc1
REMARK SMILES IDX 24 1 23 4 22 7 1 8 2 9 3 11 4 14 5 15 9 16 6 17 8 19 7 20
REMARK SMILES IDX 10 24 11 26 12 27 17 28 13 29 14 30 16 31 15 32 18 36 19 37
REMARK SMILES IDX 20 38 21 39 25 40 26 43 27 46 28 49 29 52 30 53 31 55 32 56
REMARK SMILES IDX 33 57 94 58 34 59 93 61 35 63 36 66 37 67 87 68 38 69 92 70
REMARK SMILES IDX 86 71 88 72 39 73 91 74 85 76 84 78 40 80 72 83 52 84 71 85
REMARK SMILES IDX 53 86 56 87 70 88 89 89 54 90 55 92 69 94 90 95 57 98 41 100
REMARK SMILES IDX 42 101 50 102 43 103 44 104 48 105 51 106 45 107 46 108
REMARK SMILES IDX 49 109 47 110 73 111 74 112 82 113 75 114 76 115 80 116
REMARK SMILES IDX 83 117 77 118 78 119 81 120 79 121 58 122 59 123 67 124
REMARK SMILES IDX 60 125 61 126 65 127 68 128 62 129 63 130 66 131 64 132
REMARK H PARENT 24 2 24 3 23 5 23 6 22 10 3 12 3 13 5 18 6 21 8 22 7 23 10 25
REMARK H PARENT 14 33 16 34 15 35 25 41 25 42 26 44 26 45 27 47 27 48 28 50
REMARK H PARENT 28 51 29 54 33 60 94 62 34 64 93 65 92 75 86 77 88 79 91 81
REMARK H PARENT 85 82 53 91 56 93 89 96 54 97 90 99
REMARK Flexibility Score: inf
ROOT
ATOM      1  C   UNL A   1      33.133  28.515  27.020  1.00  0.00    -0.036 C 
ATOM      2  H   UNL A   1      33.622  29.044  27.811  1.00  0.00     0.028 H 
ATOM      3  H   UNL A   1      32.875  27.509  27.278  1.00  0.00     0.028 H 
ENDROOT
BRANCH   1   4
ATOM      4  C   UNL A   1      34.106  28.420  25.841  1.00  0.00     0.017 C 
ATOM      5  H   UNL A   1      34.332  29.407  25.495  1.00  0.00     0.049 H 
ATOM      6  H   UNL A   1      34.994  27.924  26.173  1.00  0.00     0.049 H 
BRANCH   4   7
ATOM      7  N   UNL A   1      33.538  27.658  24.750  1.00  0.00    -0.356 N 
ATOM      8  O   UNL A   1      34.360  28.926  23.027  1.00  0.00    -0.275 OA
ATOM      9  C   UNL A   1      33.677  27.986  23.423  1.00  0.00     0.224 C 
ATOM     10  H   UNL A   1      33.019  26.852  24.973  1.00  0.00     0.163 HD
BRANCH   9  11
ATOM     11  C   UNL A   1      32.792  27.180  22.487  1.00  0.00     0.054 C 
ATOM     12  H   UNL A   1      33.195  26.192  22.430  1.00  0.00     0.042 H 
ATOM     13  H   UNL A   1      32.796  27.719  21.562  1.00  0.00     0.042 H 
BRANCH  11  14
ATOM     14  C   UNL A   1      31.330  27.060  22.870  1.00  0.00    -0.015 A 
ATOM     15  C   UNL A   1      30.544  28.228  22.849  1.00  0.00    -0.056 A 
ATOM     16  C   UNL A   1      30.735  25.845  23.277  1.00  0.00     0.042 A 
ATOM     17  C   UNL A   1      29.211  28.208  23.257  1.00  0.00    -0.062 A 
ATOM     18  H   UNL A   1      30.963  29.114  22.524  1.00  0.00     0.063 H 
ATOM     19  C   UNL A   1      29.396  25.852  23.704  1.00  0.00    -0.038 A 
ATOM     20  C   UNL A   1      28.640  27.023  23.695  1.00  0.00    -0.060 A 
ATOM     21  H   UNL A   1      28.651  29.075  23.234  1.00  0.00     0.062 H 
ATOM     22  H   UNL A   1      28.964  24.973  24.030  1.00  0.00     0.064 H 
ATOM     23  H   UNL A   1      27.658  27.006  24.013  1.00  0.00     0.062 H 
BRANCH  16  24
ATOM     24  N   UNL A   1      31.472  24.637  23.278  1.00  0.00    -0.352 N 
ATOM     25  H   UNL A   1      31.110  23.922  22.705  1.00  0.00     0.167 HD
BRANCH  24  26
ATOM     26  C   UNL A   1      32.655  24.310  23.984  1.00  0.00     0.087 A 
ATOM     27  C   UNL A   1      33.796  23.997  23.216  1.00  0.00     0.147 A 
ATOM     28  C   UNL A   1      32.773  24.277  25.388  1.00  0.00     0.082 A 
ATOM     29  F   UNL A   1      33.688  23.969  21.877  1.00  0.00    -0.205 F 
ATOM     30  C   UNL A   1      35.026  23.696  23.789  1.00  0.00    -0.024 A 
ATOM     31  C   UNL A   1      34.039  23.994  25.959  1.00  0.00    -0.048 A 
ATOM     32  C   UNL A   1      35.152  23.704  25.170  1.00  0.00    -0.059 A 
ATOM     33  H   UNL A   1      35.838  23.467  23.193  1.00  0.00     0.065 H 
ATOM     34  H   UNL A   1      34.139  24.002  26.987  1.00  0.00     0.063 H 
ATOM     35  H   UNL A   1      36.062  23.499  25.611  1.00  0.00     0.062 H 
BRANCH  28  36
ATOM     36  C   UNL A   1      31.617  24.444  26.349  1.00  0.00     0.418 C 
ATOM     37  F   UNL A   1      31.930  23.980  27.599  1.00  0.00    -0.166 F 
ATOM     38  F   UNL A   1      31.264  25.744  26.533  1.00  0.00    -0.166 F 
ATOM     39  F   UNL A   1      30.488  23.766  26.015  1.00  0.00    -0.166 F 
ENDBRANCH  28  36
ENDBRANCH  24  26
ENDBRANCH  16  24
ENDBRANCH  11  14
ENDBRANCH   9  11
ENDBRANCH   4   7
ENDBRANCH   1   4
BRANCH   1  40
ATOM     40  C   UNL A   1      31.811  29.231  26.713  1.00  0.00    -0.052 C 
ATOM     41  H   UNL A   1      31.288  29.371  27.635  1.00  0.00     0.027 H 
ATOM     42  H   UNL A   1      31.291  28.609  26.015  1.00  0.00     0.027 H 
BRANCH  40  43
ATOM     43  C   UNL A   1      31.954  30.596  26.038  1.00  0.00    -0.052 C 
ATOM     44  H   UNL A   1      31.328  30.599  25.170  1.00  0.00     0.027 H 
ATOM     45  H   UNL A   1      32.997  30.705  25.826  1.00  0.00     0.027 H 
BRANCH  43  46
ATOM     46  C   UNL A   1      31.579  31.805  26.886  1.00  0.00    -0.036 C 
ATOM     47  H   UNL A   1      31.038  31.457  27.742  1.00  0.00     0.028 H 
ATOM     48  H   UNL A   1      31.001  32.449  26.258  1.00  0.00     0.028 H 
BRANCH  46  49
ATOM     49  C   UNL A   1      32.764  32.626  27.376  1.00  0.00     0.018 C 
ATOM     50  H   UNL A   1      33.535  32.589  26.634  1.00  0.00     0.049 H 
ATOM     51  H   UNL A   1      33.085  32.204  28.305  1.00  0.00     0.049 H 
BRANCH  49  52
ATOM     52  N   UNL A   1      32.426  34.020  27.624  1.00  0.00    -0.352 N 
ATOM     53  C   UNL A   1      32.973  34.910  28.522  1.00  0.00     0.251 C 
ATOM     54  H   UNL A   1      31.698  34.380  27.068  1.00  0.00     0.163 HD
ATOM     55  O   UNL A   1      32.461  36.009  28.694  1.00  0.00    -0.269 OA
BRANCH  53  56
ATOM     56  C   UNL A   1      34.160  34.515  29.311  1.00  0.00     0.039 A 
ATOM     57  C   UNL A   1      33.977  34.018  30.604  1.00  0.00    -0.049 A 
ATOM     58  C   UNL A   1      35.443  34.598  28.767  1.00  0.00    -0.049 A 
ATOM     59  C   UNL A   1      35.070  33.514  31.312  1.00  0.00    -0.053 A 
ATOM     60  H   UNL A   1      33.039  34.023  31.033  1.00  0.00     0.063 H 
ATOM     61  C   UNL A   1      36.517  34.018  29.436  1.00  0.00    -0.053 A 
ATOM     62  H   UNL A   1      35.596  35.088  27.871  1.00  0.00     0.063 H 
ATOM     63  C   UNL A   1      36.338  33.460  30.710  1.00  0.00    -0.014 A 
ATOM     64  H   UNL A   1      34.946  33.178  32.280  1.00  0.00     0.063 H 
ATOM     65  H   UNL A   1      37.449  34.000  28.993  1.00  0.00     0.063 H 
BRANCH  63  66
ATOM     66  C   UNL A   1      37.483  32.789  31.379  1.00  0.00     0.031 A 
ATOM     67  C   UNL A   1      38.150  31.606  30.739  1.00  0.00     0.074 A 
ATOM     68  C   UNL A   1      37.860  33.193  32.607  1.00  0.00     0.049 A 
ATOM     69  N   UNL A   1      39.104  30.841  31.206  1.00  0.00    -0.248 NA
ATOM     70  C   UNL A   1      37.659  31.212  29.410  1.00  0.00    -0.034 C 
ATOM     71  C   UNL A   1      37.247  34.286  33.363  1.00  0.00    -0.036 A 
ATOM     72  N   UNL A   1      38.836  32.715  33.447  1.00  0.00    -0.354 N 
ATOM     73  C   UNL A   1      39.320  29.872  30.235  1.00  0.00     0.074 A 
ATOM     74  C   UNL A   1      38.355  30.108  29.182  1.00  0.00    -0.034 C 
ATOM     75  H   UNL A   1      36.955  31.674  28.812  1.00  0.00     0.065 H 
ATOM     76  C   UNL A   1      37.868  34.404  34.546  1.00  0.00    -0.036 A 
ATOM     77  H   UNL A   1      36.461  34.870  33.038  1.00  0.00     0.065 H 
ATOM     78  C   UNL A   1      38.895  33.374  34.651  1.00  0.00     0.049 A 
ATOM     79  H   UNL A   1      39.437  31.973  33.208  1.00  0.00     0.167 HD
ATOM     80  C   UNL A   1      40.254  28.891  30.211  1.00  0.00     0.037 A 
ATOM     81  H   UNL A   1      38.228  29.497  28.360  1.00  0.00     0.065 H 
ATOM     82  H   UNL A   1      37.653  35.111  35.267  1.00  0.00     0.065 H 
ATOM     83  C   UNL A   1      39.679  33.162  35.725  1.00  0.00     0.037 A 
ATOM     84  C   UNL A   1      41.217  28.665  31.258  1.00  0.00     0.049 A 
ATOM     85  C   UNL A   1      40.703  32.061  35.683  1.00  0.00     0.074 A 
ATOM     86  C   UNL A   1      42.247  27.743  31.299  1.00  0.00    -0.036 A 
ATOM     87  N   UNL A   1      41.260  29.366  32.455  1.00  0.00    -0.354 N 
ATOM     88  N   UNL A   1      40.954  31.204  34.724  1.00  0.00    -0.248 NA
ATOM     89  C   UNL A   1      41.555  31.902  36.869  1.00  0.00    -0.034 C 
ATOM     90  C   UNL A   1      42.881  27.850  32.543  1.00  0.00    -0.036 A 
ATOM     91  H   UNL A   1      42.504  27.087  30.544  1.00  0.00     0.065 H 
ATOM     92  C   UNL A   1      42.280  28.874  33.256  1.00  0.00     0.049 A 
ATOM     93  H   UNL A   1      40.656  30.103  32.701  1.00  0.00     0.167 HD
ATOM     94  C   UNL A   1      41.998  30.412  35.183  1.00  0.00     0.074 A 
ATOM     95  C   UNL A   1      42.349  30.908  36.498  1.00  0.00    -0.034 C 
ATOM     96  H   UNL A   1      41.539  32.428  37.757  1.00  0.00     0.065 H 
ATOM     97  H   UNL A   1      43.664  27.264  32.872  1.00  0.00     0.065 H 
ATOM     98  C   UNL A   1      42.608  29.368  34.569  1.00  0.00     0.037 A 
ATOM     99  H   UNL A   1      43.119  30.534  37.074  1.00  0.00     0.065 H 
BRANCH  80 100
ATOM    100  C   UNL A   1      40.274  27.990  29.010  1.00  0.00     0.064 A 
ATOM    101  C   UNL A   1      39.567  26.777  28.990  1.00  0.00     0.173 A 
ATOM    102  C   UNL A   1      40.997  28.343  27.862  1.00  0.00     0.173 A 
ATOM    103  F   UNL A   1      38.867  26.385  30.066  1.00  0.00    -0.203 F 
ATOM    104  C   UNL A   1      39.619  25.934  27.883  1.00  0.00     0.198 A 
ATOM    105  C   UNL A   1      41.020  27.514  26.743  1.00  0.00     0.198 A 
ATOM    106  F   UNL A   1      41.685  29.495  27.823  1.00  0.00    -0.203 F 
ATOM    107  F   UNL A   1      38.988  24.752  27.914  1.00  0.00    -0.200 F 
ATOM    108  C   UNL A   1      40.340  26.305  26.759  1.00  0.00     0.200 A 
ATOM    109  F   UNL A   1      41.707  27.880  25.653  1.00  0.00    -0.200 F 
ATOM    110  F   UNL A   1      40.391  25.492  25.695  1.00  0.00    -0.200 F 
ENDBRANCH  80 100
BRANCH  83 111
ATOM    111  C   UNL A   1      39.526  34.024  36.924  1.00  0.00     0.064 A 
ATOM    112  C   UNL A   1      38.751  33.611  38.016  1.00  0.00     0.173 A 
ATOM    113  C   UNL A   1      40.176  35.264  37.016  1.00  0.00     0.173 A 
ATOM    114  F   UNL A   1      38.096  32.442  37.966  1.00  0.00    -0.203 F 
ATOM    115  C   UNL A   1      38.624  34.410  39.151  1.00  0.00     0.198 A 
ATOM    116  C   UNL A   1      40.070  36.050  38.162  1.00  0.00     0.198 A 
ATOM    117  F   UNL A   1      40.935  35.703  36.000  1.00  0.00    -0.203 F 
ATOM    118  F   UNL A   1      37.851  34.005  40.167  1.00  0.00    -0.200 F 
ATOM    119  C   UNL A   1      39.290  35.624  39.227  1.00  0.00     0.200 A 
ATOM    120  F   UNL A   1      40.728  37.214  38.237  1.00  0.00    -0.200 F 
ATOM    121  F   UNL A   1      39.179  36.385  40.324  1.00  0.00    -0.200 F 
ENDBRANCH  83 111
BRANCH  98 122
ATOM    122  C   UNL A   1      43.723  28.692  35.314  1.00  0.00     0.064 A 
ATOM    123  C   UNL A   1      43.480  27.607  36.170  1.00  0.00     0.173 A 
ATOM    124  C   UNL A   1      45.052  29.108  35.140  1.00  0.00     0.173 A 
ATOM    125  F   UNL A   1      42.226  27.183  36.383  1.00  0.00    -0.203 F 
ATOM    126  C   UNL A   1      44.526  26.977  36.841  1.00  0.00     0.198 A 
ATOM    127  C   UNL A   1      46.097  28.456  35.789  1.00  0.00     0.198 A 
ATOM    128  F   UNL A   1      45.338  30.137  34.330  1.00  0.00    -0.203 F 
ATOM    129  F   UNL A   1      44.266  25.971  37.688  1.00  0.00    -0.200 F 
ATOM    130  C   UNL A   1      45.833  27.396  36.644  1.00  0.00     0.200 A 
ATOM    131  F   UNL A   1      47.361  28.855  35.588  1.00  0.00    -0.200 F 
ATOM    132  F   UNL A   1      46.838  26.784  37.283  1.00  0.00    -0.200 F 
ENDBRANCH  98 122
ENDBRANCH  63  66
ENDBRANCH  53  56
ENDBRANCH  49  52
ENDBRANCH  46  49
ENDBRANCH  43  46
ENDBRANCH  40  43
ENDBRANCH   1  40
TORSDOF 17
ENDMDL
MODEL 5
REMARK VINA RESULT:     -12.3      5.637     11.207
REMARK SMILES O=C(Cc1ccccc1Nc1c(F)cccc1C(F)(F)F)NCCCCCCNC(=O)c1ccc(-c2c3nc(c(-c4c(F)c(F)c(F)c(F)c4F)c4ccc([nH]4)c(-c4c(F)c(F)c(F)c(F)c4F)c4nc(c(-c5c(F)c(F)c(F)c(F)c5F)c5ccc2[nH]5)C=C4)C=C3)cc1
REMARK SMILES IDX 24 1 23 4 22 7 1 8 2 9 3 11 4 14 5 15 9 16 6 17 8 19 7 20
REMARK SMILES IDX 10 24 11 26 12 27 17 28 13 29 14 30 16 31 15 32 18 36 19 37
REMARK SMILES IDX 20 38 21 39 25 40 26 43 27 46 28 49 29 52 30 53 31 55 32 56
REMARK SMILES IDX 33 57 94 58 34 59 93 61 35 63 36 66 37 67 87 68 38 69 92 70
REMARK SMILES IDX 86 71 88 72 39 73 91 74 85 76 84 78 40 80 72 83 52 84 71 85
REMARK SMILES IDX 53 86 56 87 70 88 89 89 54 90 55 92 69 94 90 95 57 98 41 100
REMARK SMILES IDX 42 101 50 102 43 103 44 104 48 105 51 106 45 107 46 108
REMARK SMILES IDX 49 109 47 110 73 111 74 112 82 113 75 114 76 115 80 116
REMARK SMILES IDX 83 117 77 118 78 119 81 120 79 121 58 122 59 123 67 124
REMARK SMILES IDX 60 125 61 126 65 127 68 128 62 129 63 130 66 131 64 132
REMARK H PARENT 24 2 24 3 23 5 23 6 22 10 3 12 3 13 5 18 6 21 8 22 7 23 10 25
REMARK H PARENT 14 33 16 34 15 35 25 41 25 42 26 44 26 45 27 47 27 48 28 50
REMARK H PARENT 28 51 29 54 33 60 94 62 34 64 93 65 92 75 86 77 88 79 91 81
REMARK H PARENT 85 82 53 91 56 93 89 96 54 97 90 99
REMARK Flexibility Score: inf
ROOT
ATOM      1  C   UNL A   1      32.399  28.265  27.327  1.00  0.00    -0.036 C 
ATOM      2  H   UNL A   1      33.174  27.600  27.647  1.00  0.00     0.028 H 
ATOM      3  H   UNL A   1      32.040  28.905  28.105  1.00  0.00     0.028 H 
ENDROOT
BRANCH   1   4
ATOM      4  C   UNL A   1      31.203  27.419  26.879  1.00  0.00     0.017 C 
ATOM      5  H   UNL A   1      30.792  26.918  27.730  1.00  0.00     0.049 H 
ATOM      6  H   UNL A   1      30.477  28.068  26.436  1.00  0.00     0.049 H 
BRANCH   4   7
ATOM      7  N   UNL A   1      31.594  26.433  25.895  1.00  0.00    -0.356 N 
ATOM      8  O   UNL A   1      31.387  24.576  27.221  1.00  0.00    -0.275 OA
ATOM      9  C   UNL A   1      31.692  25.086  26.147  1.00  0.00     0.224 C 
ATOM     10  H   UNL A   1      31.805  26.749  24.987  1.00  0.00     0.163 HD
BRANCH   9  11
ATOM     11  C   UNL A   1      32.355  24.292  25.034  1.00  0.00     0.054 C 
ATOM     12  H   UNL A   1      32.498  24.952  24.205  1.00  0.00     0.042 H 
ATOM     13  H   UNL A   1      31.695  23.470  24.843  1.00  0.00     0.042 H 
BRANCH  11  14
ATOM     14  C   UNL A   1      33.695  23.660  25.356  1.00  0.00    -0.015 A 
ATOM     15  C   UNL A   1      34.808  24.511  25.498  1.00  0.00    -0.056 A 
ATOM     16  C   UNL A   1      33.882  22.266  25.485  1.00  0.00     0.042 A 
ATOM     17  C   UNL A   1      36.084  23.997  25.723  1.00  0.00    -0.062 A 
ATOM     18  H   UNL A   1      34.675  25.533  25.435  1.00  0.00     0.063 H 
ATOM     19  C   UNL A   1      35.179  21.770  25.692  1.00  0.00    -0.038 A 
ATOM     20  C   UNL A   1      36.272  22.626  25.809  1.00  0.00    -0.060 A 
ATOM     21  H   UNL A   1      36.888  24.637  25.825  1.00  0.00     0.062 H 
ATOM     22  H   UNL A   1      35.327  20.750  25.758  1.00  0.00     0.064 H 
ATOM     23  H   UNL A   1      37.218  22.240  25.960  1.00  0.00     0.062 H 
BRANCH  16  24
ATOM     24  N   UNL A   1      32.788  21.373  25.391  1.00  0.00    -0.352 N 
ATOM     25  H   UNL A   1      32.004  21.606  25.940  1.00  0.00     0.167 HD
BRANCH  24  26
ATOM     26  C   UNL A   1      32.660  20.193  24.619  1.00  0.00     0.087 A 
ATOM     27  C   UNL A   1      32.908  18.967  25.271  1.00  0.00     0.147 A 
ATOM     28  C   UNL A   1      32.303  20.156  23.255  1.00  0.00     0.082 A 
ATOM     29  F   UNL A   1      33.304  18.985  26.554  1.00  0.00    -0.205 F 
ATOM     30  C   UNL A   1      32.780  17.739  24.633  1.00  0.00    -0.024 A 
ATOM     31  C   UNL A   1      32.150  18.897  22.624  1.00  0.00    -0.048 A 
ATOM     32  C   UNL A   1      32.388  17.702  23.303  1.00  0.00    -0.059 A 
ATOM     33  H   UNL A   1      32.976  16.862  25.144  1.00  0.00     0.065 H 
ATOM     34  H   UNL A   1      31.855  18.863  21.635  1.00  0.00     0.063 H 
ATOM     35  H   UNL A   1      32.272  16.798  22.820  1.00  0.00     0.062 H 
BRANCH  28  36
ATOM     36  C   UNL A   1      32.145  21.378  22.378  1.00  0.00     0.418 C 
ATOM     37  F   UNL A   1      33.278  22.148  22.378  1.00  0.00    -0.166 F 
ATOM     38  F   UNL A   1      31.929  21.068  21.071  1.00  0.00    -0.166 F 
ATOM     39  F   UNL A   1      31.160  22.234  22.754  1.00  0.00    -0.166 F 
ENDBRANCH  28  36
ENDBRANCH  24  26
ENDBRANCH  16  24
ENDBRANCH  11  14
ENDBRANCH   9  11
ENDBRANCH   4   7
ENDBRANCH   1   4
BRANCH   1  40
ATOM     40  C   UNL A   1      32.980  29.188  26.247  1.00  0.00    -0.052 C 
ATOM     41  H   UNL A   1      33.225  28.588  25.396  1.00  0.00     0.027 H 
ATOM     42  H   UNL A   1      33.827  29.667  26.690  1.00  0.00     0.027 H 
BRANCH  40  43
ATOM     43  C   UNL A   1      32.051  30.311  25.784  1.00  0.00    -0.052 C 
ATOM     44  H   UNL A   1      31.127  29.866  25.478  1.00  0.00     0.027 H 
ATOM     45  H   UNL A   1      32.576  30.813  24.999  1.00  0.00     0.027 H 
BRANCH  43  46
ATOM     46  C   UNL A   1      31.732  31.384  26.817  1.00  0.00    -0.036 C 
ATOM     47  H   UNL A   1      31.355  30.902  27.694  1.00  0.00     0.028 H 
ATOM     48  H   UNL A   1      31.022  32.042  26.362  1.00  0.00     0.028 H 
BRANCH  46  49
ATOM     49  C   UNL A   1      32.921  32.245  27.222  1.00  0.00     0.018 C 
ATOM     50  H   UNL A   1      33.642  32.226  26.432  1.00  0.00     0.049 H 
ATOM     51  H   UNL A   1      33.315  31.839  28.131  1.00  0.00     0.049 H 
BRANCH  49  52
ATOM     52  N   UNL A   1      32.557  33.630  27.485  1.00  0.00    -0.352 N 
ATOM     53  C   UNL A   1      33.066  34.510  28.414  1.00  0.00     0.251 C 
ATOM     54  H   UNL A   1      31.841  33.991  26.915  1.00  0.00     0.163 HD
ATOM     55  O   UNL A   1      32.535  35.599  28.590  1.00  0.00    -0.269 OA
BRANCH  53  56
ATOM     56  C   UNL A   1      34.234  34.116  29.231  1.00  0.00     0.039 A 
ATOM     57  C   UNL A   1      34.022  33.413  30.420  1.00  0.00    -0.049 A 
ATOM     58  C   UNL A   1      35.534  34.405  28.810  1.00  0.00    -0.049 A 
ATOM     59  C   UNL A   1      35.114  32.915  31.133  1.00  0.00    -0.053 A 
ATOM     60  H   UNL A   1      33.063  33.263  30.768  1.00  0.00     0.063 H 
ATOM     61  C   UNL A   1      36.617  33.836  29.473  1.00  0.00    -0.053 A 
ATOM     62  H   UNL A   1      35.691  35.037  28.009  1.00  0.00     0.063 H 
ATOM     63  C   UNL A   1      36.417  33.076  30.634  1.00  0.00    -0.014 A 
ATOM     64  H   UNL A   1      34.964  32.426  32.030  1.00  0.00     0.063 H 
ATOM     65  H   UNL A   1      37.573  33.975  29.108  1.00  0.00     0.063 H 
BRANCH  63  66
ATOM     66  C   UNL A   1      37.581  32.424  31.289  1.00  0.00     0.031 A 
ATOM     67  C   UNL A   1      38.266  31.259  30.637  1.00  0.00     0.074 A 
ATOM     68  C   UNL A   1      37.961  32.830  32.516  1.00  0.00     0.049 A 
ATOM     69  N   UNL A   1      39.240  30.510  31.091  1.00  0.00    -0.248 NA
ATOM     70  C   UNL A   1      37.771  30.861  29.311  1.00  0.00    -0.034 C 
ATOM     71  C   UNL A   1      37.334  33.906  33.283  1.00  0.00    -0.036 A 
ATOM     72  N   UNL A   1      38.955  32.367  33.344  1.00  0.00    -0.354 N 
ATOM     73  C   UNL A   1      39.465  29.551  30.114  1.00  0.00     0.074 A 
ATOM     74  C   UNL A   1      38.487  29.773  29.071  1.00  0.00    -0.034 C 
ATOM     75  H   UNL A   1      37.052  31.311  28.722  1.00  0.00     0.065 H 
ATOM     76  C   UNL A   1      37.963  34.031  34.461  1.00  0.00    -0.036 A 
ATOM     77  H   UNL A   1      36.534  34.477  32.968  1.00  0.00     0.065 H 
ATOM     78  C   UNL A   1      39.012  33.021  34.551  1.00  0.00     0.049 A 
ATOM     79  H   UNL A   1      39.568  31.638  33.096  1.00  0.00     0.167 HD
ATOM     80  C   UNL A   1      40.419  28.589  30.076  1.00  0.00     0.037 A 
ATOM     81  H   UNL A   1      38.364  29.164  28.247  1.00  0.00     0.065 H 
ATOM     82  H   UNL A   1      37.741  34.731  35.187  1.00  0.00     0.065 H 
ATOM     83  C   UNL A   1      39.810  32.820  35.617  1.00  0.00     0.037 A 
ATOM     84  C   UNL A   1      41.396  28.377  31.113  1.00  0.00     0.049 A 
ATOM     85  C   UNL A   1      40.855  31.740  35.560  1.00  0.00     0.074 A 
ATOM     86  C   UNL A   1      42.444  27.475  31.140  1.00  0.00    -0.036 A 
ATOM     87  N   UNL A   1      41.436  29.072  32.313  1.00  0.00    -0.354 N 
ATOM     88  N   UNL A   1      41.114  30.893  34.594  1.00  0.00    -0.248 NA
ATOM     89  C   UNL A   1      41.721  31.593  36.737  1.00  0.00    -0.034 C 
ATOM     90  C   UNL A   1      43.087  27.589  32.378  1.00  0.00    -0.036 A 
ATOM     91  H   UNL A   1      42.707  26.829  30.379  1.00  0.00     0.065 H 
ATOM     92  C   UNL A   1      42.473  28.598  33.102  1.00  0.00     0.049 A 
ATOM     93  H   UNL A   1      40.820  29.797  32.568  1.00  0.00     0.167 HD
ATOM     94  C   UNL A   1      42.178  30.120  35.039  1.00  0.00     0.074 A 
ATOM     95  C   UNL A   1      42.531  30.616  36.354  1.00  0.00    -0.034 C 
ATOM     96  H   UNL A   1      41.703  32.114  37.628  1.00  0.00     0.065 H 
ATOM     97  H   UNL A   1      43.885  27.017  32.698  1.00  0.00     0.065 H 
ATOM     98  C   UNL A   1      42.803  29.092  34.415  1.00  0.00     0.037 A 
ATOM     99  H   UNL A   1      43.314  30.255  36.921  1.00  0.00     0.065 H 
BRANCH  80 100
ATOM    100  C   UNL A   1      40.446  27.694  28.871  1.00  0.00     0.064 A 
ATOM    101  C   UNL A   1      41.244  27.989  27.753  1.00  0.00     0.173 A 
ATOM    102  C   UNL A   1      39.675  26.523  28.831  1.00  0.00     0.173 A 
ATOM    103  F   UNL A   1      41.992  29.103  27.733  1.00  0.00    -0.203 F 
ATOM    104  C   UNL A   1      41.235  27.170  26.628  1.00  0.00     0.198 A 
ATOM    105  C   UNL A   1      39.695  25.687  27.718  1.00  0.00     0.198 A 
ATOM    106  F   UNL A   1      38.900  26.188  29.874  1.00  0.00    -0.203 F 
ATOM    107  F   UNL A   1      41.956  27.508  25.550  1.00  0.00    -0.200 F 
ATOM    108  C   UNL A   1      40.465  26.017  26.612  1.00  0.00     0.200 A 
ATOM    109  F   UNL A   1      38.960  24.566  27.709  1.00  0.00    -0.200 F 
ATOM    110  F   UNL A   1      40.456  25.229  25.529  1.00  0.00    -0.200 F 
ENDBRANCH  80 100
BRANCH  83 111
ATOM    111  C   UNL A   1      39.650  33.673  36.821  1.00  0.00     0.064 A 
ATOM    112  C   UNL A   1      40.307  34.908  36.923  1.00  0.00     0.173 A 
ATOM    113  C   UNL A   1      38.815  33.288  37.881  1.00  0.00     0.173 A 
ATOM    114  F   UNL A   1      41.130  35.309  35.944  1.00  0.00    -0.203 F 
ATOM    115  C   UNL A   1      40.141  35.720  38.043  1.00  0.00     0.198 A 
ATOM    116  C   UNL A   1      38.629  34.114  38.988  1.00  0.00     0.198 A 
ATOM    117  F   UNL A   1      38.160  32.119  37.829  1.00  0.00    -0.203 F 
ATOM    118  F   UNL A   1      40.806  36.880  38.129  1.00  0.00    -0.200 F 
ATOM    119  C   UNL A   1      39.297  35.327  39.070  1.00  0.00     0.200 A 
ATOM    120  F   UNL A   1      37.800  33.737  39.971  1.00  0.00    -0.200 F 
ATOM    121  F   UNL A   1      39.127  36.115  40.141  1.00  0.00    -0.200 F 
ENDBRANCH  83 111
BRANCH  98 122
ATOM    122  C   UNL A   1      43.938  28.435  35.146  1.00  0.00     0.064 A 
ATOM    123  C   UNL A   1      43.729  27.324  35.977  1.00  0.00     0.173 A 
ATOM    124  C   UNL A   1      45.254  28.896  34.983  1.00  0.00     0.173 A 
ATOM    125  F   UNL A   1      42.488  26.855  36.179  1.00  0.00    -0.203 F 
ATOM    126  C   UNL A   1      44.793  26.711  36.635  1.00  0.00     0.198 A 
ATOM    127  C   UNL A   1      46.318  28.263  35.619  1.00  0.00     0.198 A 
ATOM    128  F   UNL A   1      45.507  29.951  34.196  1.00  0.00    -0.203 F 
ATOM    129  F   UNL A   1      44.565  25.680  37.459  1.00  0.00    -0.200 F 
ATOM    130  C   UNL A   1      46.087  27.176  36.450  1.00  0.00     0.200 A 
ATOM    131  F   UNL A   1      47.569  28.705  35.429  1.00  0.00    -0.200 F 
ATOM    132  F   UNL A   1      47.111  26.581  37.077  1.00  0.00    -0.200 F 
ENDBRANCH  98 122
ENDBRANCH  63  66
ENDBRANCH  53  56
ENDBRANCH  49  52
ENDBRANCH  46  49
ENDBRANCH  43  46
ENDBRANCH  40  43
ENDBRANCH   1  40
TORSDOF 17
ENDMDL
MODEL 6
REMARK VINA RESULT:     -12.3      4.856     11.225
REMARK SMILES O=C(Cc1ccccc1Nc1c(F)cccc1C(F)(F)F)NCCCCCCNC(=O)c1ccc(-c2c3nc(c(-c4c(F)c(F)c(F)c(F)c4F)c4ccc([nH]4)c(-c4c(F)c(F)c(F)c(F)c4F)c4nc(c(-c5c(F)c(F)c(F)c(F)c5F)c5ccc2[nH]5)C=C4)C=C3)cc1
REMARK SMILES IDX 24 1 23 4 22 7 1 8 2 9 3 11 4 14 5 15 9 16 6 17 8 19 7 20
REMARK SMILES IDX 10 24 11 26 12 27 17 28 13 29 14 30 16 31 15 32 18 36 19 37
REMARK SMILES IDX 20 38 21 39 25 40 26 43 27 46 28 49 29 52 30 53 31 55 32 56
REMARK SMILES IDX 33 57 94 58 34 59 93 61 35 63 36 66 37 67 87 68 38 69 92 70
REMARK SMILES IDX 86 71 88 72 39 73 91 74 85 76 84 78 40 80 72 83 52 84 71 85
REMARK SMILES IDX 53 86 56 87 70 88 89 89 54 90 55 92 69 94 90 95 57 98 41 100
REMARK SMILES IDX 42 101 50 102 43 103 44 104 48 105 51 106 45 107 46 108
REMARK SMILES IDX 49 109 47 110 73 111 74 112 82 113 75 114 76 115 80 116
REMARK SMILES IDX 83 117 77 118 78 119 81 120 79 121 58 122 59 123 67 124
REMARK SMILES IDX 60 125 61 126 65 127 68 128 62 129 63 130 66 131 64 132
REMARK H PARENT 24 2 24 3 23 5 23 6 22 10 3 12 3 13 5 18 6 21 8 22 7 23 10 25
REMARK H PARENT 14 33 16 34 15 35 25 41 25 42 26 44 26 45 27 47 27 48 28 50
REMARK H PARENT 28 51 29 54 33 60 94 62 34 64 93 65 92 75 86 77 88 79 91 81
REMARK H PARENT 85 82 53 91 56 93 89 96 54 97 90 99
REMARK Flexibility Score: inf
ROOT
ATOM      1  C   UNL A   1      43.021  23.458  29.155  1.00  0.00    -0.036 C 
ATOM      2  H   UNL A   1      43.030  24.428  28.705  1.00  0.00     0.028 H 
ATOM      3  H   UNL A   1      42.654  23.460  30.160  1.00  0.00     0.028 H 
ENDROOT
BRANCH   1   4
ATOM      4  C   UNL A   1      44.466  22.955  29.227  1.00  0.00     0.017 C 
ATOM      5  H   UNL A   1      44.637  22.521  30.190  1.00  0.00     0.049 H 
ATOM      6  H   UNL A   1      44.611  22.229  28.455  1.00  0.00     0.049 H 
BRANCH   4   7
ATOM      7  N   UNL A   1      45.410  24.032  29.022  1.00  0.00    -0.356 N 
ATOM      8  O   UNL A   1      46.283  23.303  27.033  1.00  0.00    -0.275 OA
ATOM      9  C   UNL A   1      46.275  24.110  27.958  1.00  0.00     0.224 C 
ATOM     10  H   UNL A   1      45.435  24.755  29.690  1.00  0.00     0.163 HD
BRANCH   9  11
ATOM     11  C   UNL A   1      47.330  25.196  28.091  1.00  0.00     0.054 C 
ATOM     12  H   UNL A   1      48.235  24.729  28.418  1.00  0.00     0.042 H 
ATOM     13  H   UNL A   1      46.919  25.905  28.779  1.00  0.00     0.042 H 
BRANCH  11  14
ATOM     14  C   UNL A   1      47.648  25.991  26.841  1.00  0.00    -0.015 A 
ATOM     15  C   UNL A   1      48.753  25.587  26.066  1.00  0.00    -0.056 A 
ATOM     16  C   UNL A   1      46.912  27.129  26.439  1.00  0.00     0.042 A 
ATOM     17  C   UNL A   1      49.149  26.312  24.942  1.00  0.00    -0.062 A 
ATOM     18  H   UNL A   1      49.277  24.740  26.334  1.00  0.00     0.063 H 
ATOM     19  C   UNL A   1      47.342  27.855  25.316  1.00  0.00    -0.038 A 
ATOM     20  C   UNL A   1      48.450  27.452  24.573  1.00  0.00    -0.060 A 
ATOM     21  H   UNL A   1      49.961  26.001  24.386  1.00  0.00     0.062 H 
ATOM     22  H   UNL A   1      46.826  28.704  25.035  1.00  0.00     0.064 H 
ATOM     23  H   UNL A   1      48.749  28.001  23.751  1.00  0.00     0.062 H 
BRANCH  16  24
ATOM     24  N   UNL A   1      45.772  27.550  27.162  1.00  0.00    -0.352 N 
ATOM     25  H   UNL A   1      45.842  27.476  28.142  1.00  0.00     0.167 HD
BRANCH  24  26
ATOM     26  C   UNL A   1      44.544  28.063  26.677  1.00  0.00     0.087 A 
ATOM     27  C   UNL A   1      44.181  29.362  27.092  1.00  0.00     0.147 A 
ATOM     28  C   UNL A   1      43.666  27.374  25.816  1.00  0.00     0.082 A 
ATOM     29  F   UNL A   1      44.978  30.011  27.957  1.00  0.00    -0.205 F 
ATOM     30  C   UNL A   1      43.020  29.991  26.658  1.00  0.00    -0.024 A 
ATOM     31  C   UNL A   1      42.499  28.036  25.360  1.00  0.00    -0.048 A 
ATOM     32  C   UNL A   1      42.178  29.328  25.777  1.00  0.00    -0.059 A 
ATOM     33  H   UNL A   1      42.787  30.941  26.988  1.00  0.00     0.065 H 
ATOM     34  H   UNL A   1      41.870  27.550  24.702  1.00  0.00     0.063 H 
ATOM     35  H   UNL A   1      41.321  29.788  25.432  1.00  0.00     0.062 H 
BRANCH  28  36
ATOM     36  C   UNL A   1      43.833  25.930  25.397  1.00  0.00     0.418 C 
ATOM     37  F   UNL A   1      43.864  25.092  26.479  1.00  0.00    -0.166 F 
ATOM     38  F   UNL A   1      42.806  25.479  24.629  1.00  0.00    -0.166 F 
ATOM     39  F   UNL A   1      44.984  25.655  24.729  1.00  0.00    -0.166 F 
ENDBRANCH  28  36
ENDBRANCH  24  26
ENDBRANCH  16  24
ENDBRANCH  11  14
ENDBRANCH   9  11
ENDBRANCH   4   7
ENDBRANCH   1   4
BRANCH   1  40
ATOM     40  C   UNL A   1      42.066  22.568  28.351  1.00  0.00    -0.052 C 
ATOM     41  H   UNL A   1      41.117  23.060  28.300  1.00  0.00     0.027 H 
ATOM     42  H   UNL A   1      42.033  21.628  28.862  1.00  0.00     0.027 H 
BRANCH  40  43
ATOM     43  C   UNL A   1      42.515  22.257  26.922  1.00  0.00    -0.052 C 
ATOM     44  H   UNL A   1      43.227  21.460  26.969  1.00  0.00     0.027 H 
ATOM     45  H   UNL A   1      42.910  23.175  26.539  1.00  0.00     0.027 H 
BRANCH  43  46
ATOM     46  C   UNL A   1      41.417  21.846  25.950  1.00  0.00    -0.036 C 
ATOM     47  H   UNL A   1      41.761  20.997  25.397  1.00  0.00     0.028 H 
ATOM     48  H   UNL A   1      41.223  22.697  25.331  1.00  0.00     0.028 H 
BRANCH  46  49
ATOM     49  C   UNL A   1      40.093  21.479  26.608  1.00  0.00     0.018 C 
ATOM     50  H   UNL A   1      40.097  21.850  27.611  1.00  0.00     0.049 H 
ATOM     51  H   UNL A   1      40.005  20.413  26.577  1.00  0.00     0.049 H 
BRANCH  49  52
ATOM     52  N   UNL A   1      38.940  22.032  25.912  1.00  0.00    -0.352 N 
ATOM     53  C   UNL A   1      38.385  23.288  25.994  1.00  0.00     0.251 C 
ATOM     54  H   UNL A   1      38.491  21.415  25.290  1.00  0.00     0.163 HD
ATOM     55  O   UNL A   1      37.321  23.532  25.438  1.00  0.00    -0.269 OA
BRANCH  53  56
ATOM     56  C   UNL A   1      39.058  24.335  26.794  1.00  0.00     0.039 A 
ATOM     57  C   UNL A   1      39.916  25.230  26.150  1.00  0.00    -0.049 A 
ATOM     58  C   UNL A   1      38.817  24.457  28.164  1.00  0.00    -0.049 A 
ATOM     59  C   UNL A   1      40.452  26.306  26.861  1.00  0.00    -0.053 A 
ATOM     60  H   UNL A   1      40.151  25.098  25.155  1.00  0.00     0.063 H 
ATOM     61  C   UNL A   1      39.281  25.575  28.851  1.00  0.00    -0.053 A 
ATOM     62  H   UNL A   1      38.295  23.721  28.666  1.00  0.00     0.063 H 
ATOM     63  C   UNL A   1      40.094  26.516  28.203  1.00  0.00    -0.014 A 
ATOM     64  H   UNL A   1      41.114  26.950  26.400  1.00  0.00     0.063 H 
ATOM     65  H   UNL A   1      39.026  25.711  29.842  1.00  0.00     0.063 H 
BRANCH  63  66
ATOM     66  C   UNL A   1      40.524  27.735  28.936  1.00  0.00     0.031 A 
ATOM     67  C   UNL A   1      41.890  27.808  29.554  1.00  0.00     0.074 A 
ATOM     68  C   UNL A   1      39.646  28.739  29.121  1.00  0.00     0.049 A 
ATOM     69  N   UNL A   1      42.412  28.749  30.300  1.00  0.00    -0.248 NA
ATOM     70  C   UNL A   1      42.777  26.657  29.330  1.00  0.00    -0.034 C 
ATOM     71  C   UNL A   1      38.268  28.758  28.628  1.00  0.00    -0.036 A 
ATOM     72  N   UNL A   1      39.775  29.929  29.794  1.00  0.00    -0.354 N 
ATOM     73  C   UNL A   1      43.680  28.300  30.641  1.00  0.00     0.074 A 
ATOM     74  C   UNL A   1      43.826  26.976  30.073  1.00  0.00    -0.034 C 
ATOM     75  H   UNL A   1      42.622  25.819  28.747  1.00  0.00     0.065 H 
ATOM     76  C   UNL A   1      37.683  29.906  29.002  1.00  0.00    -0.036 A 
ATOM     77  H   UNL A   1      37.818  28.008  28.082  1.00  0.00     0.065 H 
ATOM     78  C   UNL A   1      38.629  30.687  29.793  1.00  0.00     0.049 A 
ATOM     79  H   UNL A   1      40.608  30.213  30.233  1.00  0.00     0.167 HD
ATOM     80  C   UNL A   1      44.646  28.943  31.341  1.00  0.00     0.037 A 
ATOM     81  H   UNL A   1      44.641  26.363  30.226  1.00  0.00     0.065 H 
ATOM     82  H   UNL A   1      36.719  30.192  28.768  1.00  0.00     0.065 H 
ATOM     83  C   UNL A   1      38.365  31.872  30.376  1.00  0.00     0.037 A 
ATOM     84  C   UNL A   1      44.500  30.262  31.897  1.00  0.00     0.049 A 
ATOM     85  C   UNL A   1      39.446  32.564  31.158  1.00  0.00     0.074 A 
ATOM     86  C   UNL A   1      45.439  31.028  32.564  1.00  0.00    -0.036 A 
ATOM     87  N   UNL A   1      43.330  31.009  31.859  1.00  0.00    -0.354 N 
ATOM     88  N   UNL A   1      40.671  32.167  31.403  1.00  0.00    -0.248 NA
ATOM     89  C   UNL A   1      39.112  33.871  31.739  1.00  0.00    -0.034 C 
ATOM     90  C   UNL A   1      44.824  32.217  32.974  1.00  0.00    -0.036 A 
ATOM     91  H   UNL A   1      46.424  30.768  32.731  1.00  0.00     0.065 H 
ATOM     92  C   UNL A   1      43.516  32.215  32.519  1.00  0.00     0.049 A 
ATOM     93  H   UNL A   1      42.493  30.726  31.428  1.00  0.00     0.167 HD
ATOM     94  C   UNL A   1      41.258  33.177  32.154  1.00  0.00     0.074 A 
ATOM     95  C   UNL A   1      40.260  34.216  32.305  1.00  0.00    -0.034 C 
ATOM     96  H   UNL A   1      38.217  34.386  31.713  1.00  0.00     0.065 H 
ATOM     97  H   UNL A   1      45.271  32.967  33.525  1.00  0.00     0.065 H 
ATOM     98  C   UNL A   1      42.509  33.234  32.673  1.00  0.00     0.037 A 
ATOM     99  H   UNL A   1      40.422  35.111  32.791  1.00  0.00     0.065 H 
BRANCH  80 100
ATOM    100  C   UNL A   1      45.947  28.219  31.541  1.00  0.00     0.064 A 
ATOM    101  C   UNL A   1      47.012  28.356  30.636  1.00  0.00     0.173 A 
ATOM    102  C   UNL A   1      46.139  27.387  32.654  1.00  0.00     0.173 A 
ATOM    103  F   UNL A   1      46.878  29.130  29.549  1.00  0.00    -0.203 F 
ATOM    104  C   UNL A   1      48.200  27.654  30.814  1.00  0.00     0.198 A 
ATOM    105  C   UNL A   1      47.342  26.714  32.848  1.00  0.00     0.198 A 
ATOM    106  F   UNL A   1      45.158  27.226  33.555  1.00  0.00    -0.203 F 
ATOM    107  F   UNL A   1      49.177  27.752  29.902  1.00  0.00    -0.200 F 
ATOM    108  C   UNL A   1      48.368  26.838  31.922  1.00  0.00     0.200 A 
ATOM    109  F   UNL A   1      47.507  25.935  33.926  1.00  0.00    -0.200 F 
ATOM    110  F   UNL A   1      49.512  26.163  32.093  1.00  0.00    -0.200 F 
ENDBRANCH  80 100
BRANCH  83 111
ATOM    111  C   UNL A   1      37.016  32.476  30.228  1.00  0.00     0.064 A 
ATOM    112  C   UNL A   1      36.040  32.315  31.220  1.00  0.00     0.173 A 
ATOM    113  C   UNL A   1      36.686  33.252  29.106  1.00  0.00     0.173 A 
ATOM    114  F   UNL A   1      36.303  31.566  32.301  1.00  0.00    -0.203 F 
ATOM    115  C   UNL A   1      34.781  32.899  31.093  1.00  0.00     0.198 A 
ATOM    116  C   UNL A   1      35.437  33.858  28.993  1.00  0.00     0.198 A 
ATOM    117  F   UNL A   1      37.587  33.441  28.131  1.00  0.00    -0.203 F 
ATOM    118  F   UNL A   1      33.856  32.703  32.041  1.00  0.00    -0.200 F 
ATOM    119  C   UNL A   1      34.484  33.676  29.984  1.00  0.00     0.200 A 
ATOM    120  F   UNL A   1      35.159  34.621  27.927  1.00  0.00    -0.200 F 
ATOM    121  F   UNL A   1      33.278  34.250  29.869  1.00  0.00    -0.200 F 
ENDBRANCH  83 111
BRANCH  98 122
ATOM    122  C   UNL A   1      42.871  34.466  33.452  1.00  0.00     0.064 A 
ATOM    123  C   UNL A   1      43.305  35.636  32.811  1.00  0.00     0.173 A 
ATOM    124  C   UNL A   1      42.746  34.489  34.849  1.00  0.00     0.173 A 
ATOM    125  F   UNL A   1      43.458  35.660  31.478  1.00  0.00    -0.203 F 
ATOM    126  C   UNL A   1      43.621  36.779  33.543  1.00  0.00     0.198 A 
ATOM    127  C   UNL A   1      43.034  35.642  35.575  1.00  0.00     0.198 A 
ATOM    128  F   UNL A   1      42.331  33.398  35.509  1.00  0.00    -0.203 F 
ATOM    129  F   UNL A   1      44.075  37.871  32.914  1.00  0.00    -0.200 F 
ATOM    130  C   UNL A   1      43.477  36.783  34.922  1.00  0.00     0.200 A 
ATOM    131  F   UNL A   1      42.883  35.648  36.907  1.00  0.00    -0.200 F 
ATOM    132  F   UNL A   1      43.773  37.885  35.625  1.00  0.00    -0.200 F 
ENDBRANCH  98 122
ENDBRANCH  63  66
ENDBRANCH  53  56
ENDBRANCH  49  52
ENDBRANCH  46  49
ENDBRANCH  43  46
ENDBRANCH  40  43
ENDBRANCH   1  40
TORSDOF 17
ENDMDL
MODEL 7
REMARK VINA RESULT:     -12.2      6.336     10.877
REMARK SMILES O=C(Cc1ccccc1Nc1c(F)cccc1C(F)(F)F)NCCCCCCNC(=O)c1ccc(-c2c3nc(c(-c4c(F)c(F)c(F)c(F)c4F)c4ccc([nH]4)c(-c4c(F)c(F)c(F)c(F)c4F)c4nc(c(-c5c(F)c(F)c(F)c(F)c5F)c5ccc2[nH]5)C=C4)C=C3)cc1
REMARK SMILES IDX 24 1 23 4 22 7 1 8 2 9 3 11 4 14 5 15 9 16 6 17 8 19 7 20
REMARK SMILES IDX 10 24 11 26 12 27 17 28 13 29 14 30 16 31 15 32 18 36 19 37
REMARK SMILES IDX 20 38 21 39 25 40 26 43 27 46 28 49 29 52 30 53 31 55 32 56
REMARK SMILES IDX 33 57 94 58 34 59 93 61 35 63 36 66 37 67 87 68 38 69 92 70
REMARK SMILES IDX 86 71 88 72 39 73 91 74 85 76 84 78 40 80 72 83 52 84 71 85
REMARK SMILES IDX 53 86 56 87 70 88 89 89 54 90 55 92 69 94 90 95 57 98 41 100
REMARK SMILES IDX 42 101 50 102 43 103 44 104 48 105 51 106 45 107 46 108
REMARK SMILES IDX 49 109 47 110 73 111 74 112 82 113 75 114 76 115 80 116
REMARK SMILES IDX 83 117 77 118 78 119 81 120 79 121 58 122 59 123 67 124
REMARK SMILES IDX 60 125 61 126 65 127 68 128 62 129 63 130 66 131 64 132
REMARK H PARENT 24 2 24 3 23 5 23 6 22 10 3 12 3 13 5 18 6 21 8 22 7 23 10 25
REMARK H PARENT 14 33 16 34 15 35 25 41 25 42 26 44 26 45 27 47 27 48 28 50
REMARK H PARENT 28 51 29 54 33 60 94 62 34 64 93 65 92 75 86 77 88 79 91 81
REMARK H PARENT 85 82 53 91 56 93 89 96 54 97 90 99
REMARK Flexibility Score: inf
ROOT
ATOM      1  C   UNL A   1      35.808  31.341  28.010  1.00  0.00    -0.036 C 
ATOM      2  H   UNL A   1      36.248  31.685  27.098  1.00  0.00     0.028 H 
ATOM      3  H   UNL A   1      36.377  31.598  28.880  1.00  0.00     0.028 H 
ENDROOT
BRANCH   1   4
ATOM      4  C   UNL A   1      35.757  29.811  27.966  1.00  0.00     0.017 C 
ATOM      5  H   UNL A   1      36.253  29.471  27.081  1.00  0.00     0.049 H 
ATOM      6  H   UNL A   1      36.243  29.431  28.841  1.00  0.00     0.049 H 
BRANCH   4   7
ATOM      7  N   UNL A   1      34.393  29.329  27.957  1.00  0.00    -0.356 N 
ATOM      8  O   UNL A   1      34.327  28.630  25.776  1.00  0.00    -0.275 OA
ATOM      9  C   UNL A   1      33.765  28.806  26.853  1.00  0.00     0.224 C 
ATOM     10  H   UNL A   1      33.882  29.381  28.797  1.00  0.00     0.163 HD
BRANCH   9  11
ATOM     11  C   UNL A   1      32.269  28.601  27.027  1.00  0.00     0.054 C 
ATOM     12  H   UNL A   1      31.865  29.501  27.439  1.00  0.00     0.042 H 
ATOM     13  H   UNL A   1      32.174  27.739  27.653  1.00  0.00     0.042 H 
BRANCH  11  14
ATOM     14  C   UNL A   1      31.479  28.273  25.775  1.00  0.00    -0.015 A 
ATOM     15  C   UNL A   1      31.171  29.329  24.895  1.00  0.00    -0.056 A 
ATOM     16  C   UNL A   1      31.015  26.974  25.472  1.00  0.00     0.042 A 
ATOM     17  C   UNL A   1      30.387  29.116  23.761  1.00  0.00    -0.062 A 
ATOM     18  H   UNL A   1      31.531  30.275  25.092  1.00  0.00     0.063 H 
ATOM     19  C   UNL A   1      30.210  26.787  24.335  1.00  0.00    -0.038 A 
ATOM     20  C   UNL A   1      29.897  27.847  23.487  1.00  0.00    -0.060 A 
ATOM     21  H   UNL A   1      30.172  29.901  23.127  1.00  0.00     0.062 H 
ATOM     22  H   UNL A   1      29.844  25.845  24.124  1.00  0.00     0.064 H 
ATOM     23  H   UNL A   1      29.304  27.688  22.657  1.00  0.00     0.062 H 
BRANCH  16  24
ATOM     24  N   UNL A   1      31.332  25.875  26.304  1.00  0.00    -0.352 N 
ATOM     25  H   UNL A   1      31.365  26.071  27.268  1.00  0.00     0.167 HD
BRANCH  24  26
ATOM     26  C   UNL A   1      31.610  24.532  25.947  1.00  0.00     0.087 A 
ATOM     27  C   UNL A   1      30.641  23.564  26.285  1.00  0.00     0.147 A 
ATOM     28  C   UNL A   1      32.775  24.099  25.283  1.00  0.00     0.082 A 
ATOM     29  F   UNL A   1      29.551  23.950  26.968  1.00  0.00    -0.205 F 
ATOM     30  C   UNL A   1      30.779  22.220  25.958  1.00  0.00    -0.024 A 
ATOM     31  C   UNL A   1      32.891  22.731  24.931  1.00  0.00    -0.048 A 
ATOM     32  C   UNL A   1      31.906  21.801  25.267  1.00  0.00    -0.059 A 
ATOM     33  H   UNL A   1      30.050  21.540  26.228  1.00  0.00     0.065 H 
ATOM     34  H   UNL A   1      33.726  22.414  24.414  1.00  0.00     0.063 H 
ATOM     35  H   UNL A   1      32.016  20.810  25.002  1.00  0.00     0.062 H 
BRANCH  28  36
ATOM     36  C   UNL A   1      33.967  24.980  24.980  1.00  0.00     0.418 C 
ATOM     37  F   UNL A   1      34.412  25.627  26.101  1.00  0.00    -0.166 F 
ATOM     38  F   UNL A   1      35.041  24.280  24.525  1.00  0.00    -0.166 F 
ATOM     39  F   UNL A   1      33.734  25.978  24.088  1.00  0.00    -0.166 F 
ENDBRANCH  28  36
ENDBRANCH  24  26
ENDBRANCH  16  24
ENDBRANCH  11  14
ENDBRANCH   9  11
ENDBRANCH   4   7
ENDBRANCH   1   4
BRANCH   1  40
ATOM     40  C   UNL A   1      34.446  32.030  28.170  1.00  0.00    -0.052 C 
ATOM     41  H   UNL A   1      33.746  31.301  28.520  1.00  0.00     0.027 H 
ATOM     42  H   UNL A   1      34.201  32.431  27.210  1.00  0.00     0.027 H 
BRANCH  40  43
ATOM     43  C   UNL A   1      34.425  33.210  29.142  1.00  0.00    -0.052 C 
ATOM     44  H   UNL A   1      35.398  33.656  29.136  1.00  0.00     0.027 H 
ATOM     45  H   UNL A   1      34.138  32.800  30.087  1.00  0.00     0.027 H 
BRANCH  43  46
ATOM     46  C   UNL A   1      33.409  34.305  28.843  1.00  0.00    -0.036 C 
ATOM     47  H   UNL A   1      32.447  33.963  29.164  1.00  0.00     0.028 H 
ATOM     48  H   UNL A   1      33.459  34.488  27.791  1.00  0.00     0.028 H 
BRANCH  46  49
ATOM     49  C   UNL A   1      33.692  35.636  29.528  1.00  0.00     0.018 C 
ATOM     50  H   UNL A   1      33.700  36.406  28.786  1.00  0.00     0.049 H 
ATOM     51  H   UNL A   1      34.639  35.547  30.020  1.00  0.00     0.049 H 
BRANCH  49  52
ATOM     52  N   UNL A   1      32.704  35.976  30.541  1.00  0.00    -0.352 N 
ATOM     53  C   UNL A   1      32.689  35.681  31.886  1.00  0.00     0.251 C 
ATOM     54  H   UNL A   1      31.932  36.493  30.217  1.00  0.00     0.163 HD
ATOM     55  O   UNL A   1      31.698  35.926  32.562  1.00  0.00    -0.269 OA
BRANCH  53  56
ATOM     56  C   UNL A   1      33.862  35.026  32.504  1.00  0.00     0.039 A 
ATOM     57  C   UNL A   1      33.722  33.734  33.019  1.00  0.00    -0.049 A 
ATOM     58  C   UNL A   1      35.103  35.665  32.543  1.00  0.00    -0.049 A 
ATOM     59  C   UNL A   1      34.847  33.049  33.481  1.00  0.00    -0.053 A 
ATOM     60  H   UNL A   1      32.792  33.290  33.056  1.00  0.00     0.063 H 
ATOM     61  C   UNL A   1      36.236  34.952  32.923  1.00  0.00    -0.053 A 
ATOM     62  H   UNL A   1      35.180  36.663  32.290  1.00  0.00     0.063 H 
ATOM     63  C   UNL A   1      36.120  33.633  33.385  1.00  0.00    -0.014 A 
ATOM     64  H   UNL A   1      34.743  32.108  33.895  1.00  0.00     0.063 H 
ATOM     65  H   UNL A   1      37.166  35.397  32.865  1.00  0.00     0.063 H 
BRANCH  63  66
ATOM     66  C   UNL A   1      37.349  32.869  33.724  1.00  0.00     0.031 A 
ATOM     67  C   UNL A   1      38.115  33.177  34.977  1.00  0.00     0.074 A 
ATOM     68  C   UNL A   1      37.822  31.958  32.851  1.00  0.00     0.049 A 
ATOM     69  N   UNL A   1      39.250  32.678  35.398  1.00  0.00    -0.248 NA
ATOM     70  C   UNL A   1      37.546  34.205  35.861  1.00  0.00    -0.034 C 
ATOM     71  C   UNL A   1      37.205  31.617  31.568  1.00  0.00    -0.036 A 
ATOM     72  N   UNL A   1      38.944  31.168  32.901  1.00  0.00    -0.354 N 
ATOM     73  C   UNL A   1      39.534  33.336  36.586  1.00  0.00     0.074 A 
ATOM     74  C   UNL A   1      38.486  34.314  36.788  1.00  0.00    -0.034 C 
ATOM     75  H   UNL A   1      36.650  34.710  35.780  1.00  0.00     0.065 H 
ATOM     76  C   UNL A   1      37.948  30.679  30.960  1.00  0.00    -0.036 A 
ATOM     77  H   UNL A   1      36.339  32.032  31.192  1.00  0.00     0.065 H 
ATOM     78  C   UNL A   1      39.111  30.381  31.788  1.00  0.00     0.049 A 
ATOM     79  H   UNL A   1      39.568  31.166  33.662  1.00  0.00     0.167 HD
ATOM     80  C   UNL A   1      40.561  33.127  37.445  1.00  0.00     0.037 A 
ATOM     81  H   UNL A   1      38.473  35.004  37.554  1.00  0.00     0.065 H 
ATOM     82  H   UNL A   1      37.730  30.240  30.052  1.00  0.00     0.065 H 
ATOM     83  C   UNL A   1      40.099  29.525  31.464  1.00  0.00     0.037 A 
ATOM     84  C   UNL A   1      41.597  32.147  37.244  1.00  0.00     0.049 A 
ATOM     85  C   UNL A   1      41.236  29.315  32.425  1.00  0.00     0.074 A 
ATOM     86  C   UNL A   1      42.643  31.811  38.086  1.00  0.00    -0.036 A 
ATOM     87  N   UNL A   1      41.723  31.353  36.113  1.00  0.00    -0.354 N 
ATOM     88  N   UNL A   1      41.450  29.883  33.587  1.00  0.00    -0.248 NA
ATOM     89  C   UNL A   1      42.263  28.341  32.034  1.00  0.00    -0.034 C 
ATOM     90  C   UNL A   1      43.431  30.850  37.442  1.00  0.00    -0.036 A 
ATOM     91  H   UNL A   1      42.813  32.202  39.026  1.00  0.00     0.065 H 
ATOM     92  C   UNL A   1      42.848  30.548  36.221  1.00  0.00     0.049 A 
ATOM     93  H   UNL A   1      41.106  31.358  35.347  1.00  0.00     0.167 HD
ATOM     94  C   UNL A   1      42.627  29.329  34.072  1.00  0.00     0.074 A 
ATOM     95  C   UNL A   1      43.069  28.363  33.087  1.00  0.00    -0.034 C 
ATOM     96  H   UNL A   1      42.338  27.786  31.167  1.00  0.00     0.065 H 
ATOM     97  H   UNL A   1      44.300  30.435  37.814  1.00  0.00     0.065 H 
ATOM     98  C   UNL A   1      43.283  29.601  35.227  1.00  0.00     0.037 A 
ATOM     99  H   UNL A   1      43.904  27.766  33.192  1.00  0.00     0.065 H 
BRANCH  80 100
ATOM    100  C   UNL A   1      40.608  33.979  38.681  1.00  0.00     0.064 A 
ATOM    101  C   UNL A   1      41.328  35.185  38.716  1.00  0.00     0.173 A 
ATOM    102  C   UNL A   1      39.919  33.596  39.841  1.00  0.00     0.173 A 
ATOM    103  F   UNL A   1      42.014  35.592  37.637  1.00  0.00    -0.203 F 
ATOM    104  C   UNL A   1      41.392  35.949  39.877  1.00  0.00     0.198 A 
ATOM    105  C   UNL A   1      39.956  34.382  40.991  1.00  0.00     0.198 A 
ATOM    106  F   UNL A   1      39.209  32.458  39.862  1.00  0.00    -0.203 F 
ATOM    107  F   UNL A   1      42.138  37.062  39.903  1.00  0.00    -0.200 F 
ATOM    108  C   UNL A   1      40.702  35.551  41.011  1.00  0.00     0.200 A 
ATOM    109  F   UNL A   1      39.279  34.002  42.083  1.00  0.00    -0.200 F 
ATOM    110  F   UNL A   1      40.764  36.287  42.129  1.00  0.00    -0.200 F 
ENDBRANCH  80 100
BRANCH  83 111
ATOM    111  C   UNL A   1      40.042  28.799  30.170  1.00  0.00     0.064 A 
ATOM    112  C   UNL A   1      40.616  29.340  29.012  1.00  0.00     0.173 A 
ATOM    113  C   UNL A   1      39.440  27.535  30.071  1.00  0.00     0.173 A 
ATOM    114  F   UNL A   1      41.186  30.554  29.053  1.00  0.00    -0.203 F 
ATOM    115  C   UNL A   1      40.583  28.650  27.801  1.00  0.00     0.198 A 
ATOM    116  C   UNL A   1      39.431  26.834  28.866  1.00  0.00     0.198 A 
ATOM    117  F   UNL A   1      38.881  26.970  31.151  1.00  0.00    -0.203 F 
ATOM    118  F   UNL A   1      41.111  29.205  26.703  1.00  0.00    -0.200 F 
ATOM    119  C   UNL A   1      39.998  27.395  27.732  1.00  0.00     0.200 A 
ATOM    120  F   UNL A   1      38.879  25.615  28.807  1.00  0.00    -0.200 F 
ATOM    121  F   UNL A   1      39.979  26.726  26.571  1.00  0.00    -0.200 F 
ENDBRANCH  83 111
BRANCH  98 122
ATOM    122  C   UNL A   1      44.548  28.838  35.492  1.00  0.00     0.064 A 
ATOM    123  C   UNL A   1      45.800  29.336  35.101  1.00  0.00     0.173 A 
ATOM    124  C   UNL A   1      44.513  27.614  36.179  1.00  0.00     0.173 A 
ATOM    125  F   UNL A   1      45.886  30.493  34.426  1.00  0.00    -0.203 F 
ATOM    126  C   UNL A   1      46.969  28.627  35.369  1.00  0.00     0.198 A 
ATOM    127  C   UNL A   1      45.685  26.923  36.472  1.00  0.00     0.198 A 
ATOM    128  F   UNL A   1      43.342  27.097  36.578  1.00  0.00    -0.203 F 
ATOM    129  F   UNL A   1      48.149  29.100  34.947  1.00  0.00    -0.200 F 
ATOM    130  C   UNL A   1      46.911  27.426  36.061  1.00  0.00     0.200 A 
ATOM    131  F   UNL A   1      45.629  25.769  37.151  1.00  0.00    -0.200 F 
ATOM    132  F   UNL A   1      48.037  26.749  36.326  1.00  0.00    -0.200 F 
ENDBRANCH  98 122
ENDBRANCH  63  66
ENDBRANCH  53  56
ENDBRANCH  49  52
ENDBRANCH  46  49
ENDBRANCH  43  46
ENDBRANCH  40  43
ENDBRANCH   1  40
TORSDOF 17
ENDMDL
MODEL 8
REMARK VINA RESULT:     -12.2      4.049      8.441
REMARK SMILES O=C(Cc1ccccc1Nc1c(F)cccc1C(F)(F)F)NCCCCCCNC(=O)c1ccc(-c2c3nc(c(-c4c(F)c(F)c(F)c(F)c4F)c4ccc([nH]4)c(-c4c(F)c(F)c(F)c(F)c4F)c4nc(c(-c5c(F)c(F)c(F)c(F)c5F)c5ccc2[nH]5)C=C4)C=C3)cc1
REMARK SMILES IDX 24 1 23 4 22 7 1 8 2 9 3 11 4 14 5 15 9 16 6 17 8 19 7 20
REMARK SMILES IDX 10 24 11 26 12 27 17 28 13 29 14 30 16 31 15 32 18 36 19 37
REMARK SMILES IDX 20 38 21 39 25 40 26 43 27 46 28 49 29 52 30 53 31 55 32 56
REMARK SMILES IDX 33 57 94 58 34 59 93 61 35 63 36 66 37 67 87 68 38 69 92 70
REMARK SMILES IDX 86 71 88 72 39 73 91 74 85 76 84 78 40 80 72 83 52 84 71 85
REMARK SMILES IDX 53 86 56 87 70 88 89 89 54 90 55 92 69 94 90 95 57 98 41 100
REMARK SMILES IDX 42 101 50 102 43 103 44 104 48 105 51 106 45 107 46 108
REMARK SMILES IDX 49 109 47 110 73 111 74 112 82 113 75 114 76 115 80 116
REMARK SMILES IDX 83 117 77 118 78 119 81 120 79 121 58 122 59 123 67 124
REMARK SMILES IDX 60 125 61 126 65 127 68 128 62 129 63 130 66 131 64 132
REMARK H PARENT 24 2 24 3 23 5 23 6 22 10 3 12 3 13 5 18 6 21 8 22 7 23 10 25
REMARK H PARENT 14 33 16 34 15 35 25 41 25 42 26 44 26 45 27 47 27 48 28 50
REMARK H PARENT 28 51 29 54 33 60 94 62 34 64 93 65 92 75 86 77 88 79 91 81
REMARK H PARENT 85 82 53 91 56 93 89 96 54 97 90 99
REMARK Flexibility Score: inf
ROOT
ATOM      1  C   UNL A   1      31.900  26.091  25.227  1.00  0.00    -0.036 C 
ATOM      2  H   UNL A   1      31.738  26.457  24.235  1.00  0.00     0.028 H 
ATOM      3  H   UNL A   1      32.919  26.157  25.544  1.00  0.00     0.028 H 
ENDROOT
BRANCH   1   4
ATOM      4  C   UNL A   1      31.539  24.602  25.247  1.00  0.00     0.017 C 
ATOM      5  H   UNL A   1      30.690  24.457  25.882  1.00  0.00     0.049 H 
ATOM      6  H   UNL A   1      31.318  24.294  24.246  1.00  0.00     0.049 H 
BRANCH   4   7
ATOM      7  N   UNL A   1      32.638  23.800  25.739  1.00  0.00    -0.356 N 
ATOM      8  O   UNL A   1      31.614  22.999  27.627  1.00  0.00    -0.275 OA
ATOM      9  C   UNL A   1      32.608  23.085  26.912  1.00  0.00     0.224 C 
ATOM     10  H   UNL A   1      33.460  23.767  25.200  1.00  0.00     0.163 HD
BRANCH   9  11
ATOM     11  C   UNL A   1      33.957  22.528  27.335  1.00  0.00     0.054 C 
ATOM     12  H   UNL A   1      33.801  21.526  27.676  1.00  0.00     0.042 H 
ATOM     13  H   UNL A   1      34.319  23.204  28.082  1.00  0.00     0.042 H 
BRANCH  11  14
ATOM     14  C   UNL A   1      35.039  22.489  26.274  1.00  0.00    -0.015 A 
ATOM     15  C   UNL A   1      35.831  23.640  26.098  1.00  0.00    -0.056 A 
ATOM     16  C   UNL A   1      35.264  21.372  25.439  1.00  0.00     0.042 A 
ATOM     17  C   UNL A   1      36.797  23.703  25.094  1.00  0.00    -0.062 A 
ATOM     18  H   UNL A   1      35.695  24.449  26.723  1.00  0.00     0.063 H 
ATOM     19  C   UNL A   1      36.228  21.466  24.422  1.00  0.00    -0.038 A 
ATOM     20  C   UNL A   1      36.989  22.621  24.249  1.00  0.00    -0.060 A 
ATOM     21  H   UNL A   1      37.369  24.555  24.981  1.00  0.00     0.062 H 
ATOM     22  H   UNL A   1      36.377  20.663  23.790  1.00  0.00     0.064 H 
ATOM     23  H   UNL A   1      37.692  22.669  23.495  1.00  0.00     0.062 H 
BRANCH  16  24
ATOM     24  N   UNL A   1      34.521  20.179  25.603  1.00  0.00    -0.352 N 
ATOM     25  H   UNL A   1      34.306  19.940  26.534  1.00  0.00     0.167 HD
BRANCH  24  26
ATOM     26  C   UNL A   1      34.042  19.279  24.619  1.00  0.00     0.087 A 
ATOM     27  C   UNL A   1      34.715  18.047  24.492  1.00  0.00     0.147 A 
ATOM     28  C   UNL A   1      32.947  19.527  23.766  1.00  0.00     0.082 A 
ATOM     29  F   UNL A   1      35.794  17.817  25.258  1.00  0.00    -0.205 F 
ATOM     30  C   UNL A   1      34.319  17.066  23.590  1.00  0.00    -0.024 A 
ATOM     31  C   UNL A   1      32.538  18.508  22.870  1.00  0.00    -0.048 A 
ATOM     32  C   UNL A   1      33.217  17.293  22.780  1.00  0.00    -0.059 A 
ATOM     33  H   UNL A   1      34.842  16.177  23.523  1.00  0.00     0.065 H 
ATOM     34  H   UNL A   1      31.716  18.671  22.267  1.00  0.00     0.063 H 
ATOM     35  H   UNL A   1      32.900  16.568  22.118  1.00  0.00     0.062 H 
BRANCH  28  36
ATOM     36  C   UNL A   1      32.213  20.846  23.674  1.00  0.00     0.418 C 
ATOM     37  F   UNL A   1      33.081  21.900  23.577  1.00  0.00    -0.166 F 
ATOM     38  F   UNL A   1      31.422  20.937  22.571  1.00  0.00    -0.166 F 
ATOM     39  F   UNL A   1      31.438  21.149  24.748  1.00  0.00    -0.166 F 
ENDBRANCH  28  36
ENDBRANCH  24  26
ENDBRANCH  16  24
ENDBRANCH  11  14
ENDBRANCH   9  11
ENDBRANCH   4   7
ENDBRANCH   1   4
BRANCH   1  40
ATOM     40  C   UNL A   1      31.092  26.965  26.195  1.00  0.00    -0.052 C 
ATOM     41  H   UNL A   1      30.511  26.319  26.819  1.00  0.00     0.027 H 
ATOM     42  H   UNL A   1      30.501  27.616  25.587  1.00  0.00     0.027 H 
BRANCH  40  43
ATOM     43  C   UNL A   1      31.926  27.872  27.101  1.00  0.00    -0.052 C 
ATOM     44  H   UNL A   1      31.752  27.574  28.113  1.00  0.00     0.027 H 
ATOM     45  H   UNL A   1      31.610  28.870  26.878  1.00  0.00     0.027 H 
BRANCH  43  46
ATOM     46  C   UNL A   1      33.431  27.856  26.863  1.00  0.00    -0.036 C 
ATOM     47  H   UNL A   1      33.666  26.994  26.273  1.00  0.00     0.028 H 
ATOM     48  H   UNL A   1      33.891  27.841  27.828  1.00  0.00     0.028 H 
BRANCH  46  49
ATOM     49  C   UNL A   1      33.971  29.085  26.144  1.00  0.00     0.018 C 
ATOM     50  H   UNL A   1      33.439  29.204  25.224  1.00  0.00     0.049 H 
ATOM     51  H   UNL A   1      35.018  28.927  25.982  1.00  0.00     0.049 H 
BRANCH  49  52
ATOM     52  N   UNL A   1      33.831  30.306  26.924  1.00  0.00    -0.352 N 
ATOM     53  C   UNL A   1      34.646  30.819  27.907  1.00  0.00     0.251 C 
ATOM     54  H   UNL A   1      33.034  30.846  26.716  1.00  0.00     0.163 HD
ATOM     55  O   UNL A   1      34.292  31.793  28.559  1.00  0.00    -0.269 OA
BRANCH  53  56
ATOM     56  C   UNL A   1      35.937  30.159  28.204  1.00  0.00     0.039 A 
ATOM     57  C   UNL A   1      36.952  30.198  27.244  1.00  0.00    -0.049 A 
ATOM     58  C   UNL A   1      36.160  29.539  29.435  1.00  0.00    -0.049 A 
ATOM     59  C   UNL A   1      38.219  29.702  27.558  1.00  0.00    -0.053 A 
ATOM     60  H   UNL A   1      36.766  30.591  26.309  1.00  0.00     0.063 H 
ATOM     61  C   UNL A   1      37.443  29.124  29.778  1.00  0.00    -0.053 A 
ATOM     62  H   UNL A   1      35.375  29.390  30.090  1.00  0.00     0.063 H 
ATOM     63  C   UNL A   1      38.488  29.212  28.847  1.00  0.00    -0.014 A 
ATOM     64  H   UNL A   1      38.962  29.696  26.841  1.00  0.00     0.063 H 
ATOM     65  H   UNL A   1      37.626  28.749  30.722  1.00  0.00     0.063 H 
BRANCH  63  66
ATOM     66  C   UNL A   1      39.862  28.824  29.255  1.00  0.00     0.031 A 
ATOM     67  C   UNL A   1      40.715  29.770  30.049  1.00  0.00     0.074 A 
ATOM     68  C   UNL A   1      40.372  27.652  28.830  1.00  0.00     0.049 A 
ATOM     69  N   UNL A   1      41.964  29.644  30.425  1.00  0.00    -0.248 NA
ATOM     70  C   UNL A   1      40.093  31.041  30.449  1.00  0.00    -0.034 C 
ATOM     71  C   UNL A   1      39.667  26.676  27.997  1.00  0.00    -0.036 A 
ATOM     72  N   UNL A   1      41.611  27.092  29.021  1.00  0.00    -0.354 N 
ATOM     73  C   UNL A   1      42.277  30.819  31.093  1.00  0.00     0.074 A 
ATOM     74  C   UNL A   1      41.110  31.671  31.019  1.00  0.00    -0.034 C 
ATOM     75  H   UNL A   1      39.120  31.359  30.319  1.00  0.00     0.065 H 
ATOM     76  C   UNL A   1      40.477  25.634  27.760  1.00  0.00    -0.036 A 
ATOM     77  H   UNL A   1      38.702  26.776  27.647  1.00  0.00     0.065 H 
ATOM     78  C   UNL A   1      41.770  25.882  28.390  1.00  0.00     0.049 A 
ATOM     79  H   UNL A   1      42.317  27.515  29.560  1.00  0.00     0.167 HD
ATOM     80  C   UNL A   1      43.425  31.147  31.735  1.00  0.00     0.037 A 
ATOM     81  H   UNL A   1      41.074  32.642  31.366  1.00  0.00     0.065 H 
ATOM     82  H   UNL A   1      40.226  24.791  27.220  1.00  0.00     0.065 H 
ATOM     83  C   UNL A   1      42.842  25.071  28.313  1.00  0.00     0.037 A 
ATOM     84  C   UNL A   1      44.580  30.292  31.814  1.00  0.00     0.049 A 
ATOM     85  C   UNL A   1      44.110  25.458  29.023  1.00  0.00     0.074 A 
ATOM     86  C   UNL A   1      45.766  30.503  32.495  1.00  0.00    -0.036 A 
ATOM     87  N   UNL A   1      44.699  29.064  31.178  1.00  0.00    -0.354 N 
ATOM     88  N   UNL A   1      44.367  26.535  29.724  1.00  0.00    -0.248 NA
ATOM     89  C   UNL A   1      45.233  24.515  28.936  1.00  0.00    -0.034 C 
ATOM     90  C   UNL A   1      46.621  29.427  32.230  1.00  0.00    -0.036 A 
ATOM     91  H   UNL A   1      45.983  31.315  33.095  1.00  0.00     0.065 H 
ATOM     92  C   UNL A   1      45.950  28.520  31.426  1.00  0.00     0.049 A 
ATOM     93  H   UNL A   1      43.998  28.641  30.632  1.00  0.00     0.167 HD
ATOM     94  C   UNL A   1      45.674  26.396  30.172  1.00  0.00     0.074 A 
ATOM     95  C   UNL A   1      46.148  25.118  29.682  1.00  0.00    -0.034 C 
ATOM     96  H   UNL A   1      45.293  23.619  28.428  1.00  0.00     0.065 H 
ATOM     97  H   UNL A   1      47.588  29.326  32.575  1.00  0.00     0.065 H 
ATOM     98  C   UNL A   1      46.413  27.253  30.919  1.00  0.00     0.037 A 
ATOM     99  H   UNL A   1      47.080  24.726  29.887  1.00  0.00     0.065 H 
BRANCH  80 100
ATOM    100  C   UNL A   1      43.479  32.492  32.401  1.00  0.00     0.064 A 
ATOM    101  C   UNL A   1      43.059  32.672  33.729  1.00  0.00     0.173 A 
ATOM    102  C   UNL A   1      43.965  33.613  31.712  1.00  0.00     0.173 A 
ATOM    103  F   UNL A   1      42.574  31.636  34.430  1.00  0.00    -0.203 F 
ATOM    104  C   UNL A   1      43.083  33.930  34.325  1.00  0.00     0.198 A 
ATOM    105  C   UNL A   1      44.020  34.863  32.323  1.00  0.00     0.198 A 
ATOM    106  F   UNL A   1      44.387  33.496  30.444  1.00  0.00    -0.203 F 
ATOM    107  F   UNL A   1      42.616  34.087  35.571  1.00  0.00    -0.200 F 
ATOM    108  C   UNL A   1      43.568  35.023  33.624  1.00  0.00     0.200 A 
ATOM    109  F   UNL A   1      44.502  35.916  31.649  1.00  0.00    -0.200 F 
ATOM    110  F   UNL A   1      43.590  36.234  34.198  1.00  0.00    -0.200 F 
ENDBRANCH  80 100
BRANCH  83 111
ATOM    111  C   UNL A   1      42.749  23.806  27.541  1.00  0.00     0.064 A 
ATOM    112  C   UNL A   1      42.286  22.627  28.140  1.00  0.00     0.173 A 
ATOM    113  C   UNL A   1      43.090  23.757  26.181  1.00  0.00     0.173 A 
ATOM    114  F   UNL A   1      41.965  22.620  29.442  1.00  0.00    -0.203 F 
ATOM    115  C   UNL A   1      42.176  21.444  27.411  1.00  0.00     0.198 A 
ATOM    116  C   UNL A   1      42.955  22.581  25.446  1.00  0.00     0.198 A 
ATOM    117  F   UNL A   1      43.533  24.860  25.559  1.00  0.00    -0.203 F 
ATOM    118  F   UNL A   1      41.762  20.324  28.016  1.00  0.00    -0.200 F 
ATOM    119  C   UNL A   1      42.503  21.424  26.064  1.00  0.00     0.200 A 
ATOM    120  F   UNL A   1      43.256  22.570  24.141  1.00  0.00    -0.200 F 
ATOM    121  F   UNL A   1      42.385  20.290  25.359  1.00  0.00    -0.200 F 
ENDBRANCH  83 111
BRANCH  98 122
ATOM    122  C   UNL A   1      47.815  26.833  31.257  1.00  0.00     0.064 A 
ATOM    123  C   UNL A   1      48.084  25.980  32.338  1.00  0.00     0.173 A 
ATOM    124  C   UNL A   1      48.896  27.256  30.467  1.00  0.00     0.173 A 
ATOM    125  F   UNL A   1      47.087  25.562  33.133  1.00  0.00    -0.203 F 
ATOM    126  C   UNL A   1      49.387  25.583  32.629  1.00  0.00     0.198 A 
ATOM    127  C   UNL A   1      50.193  26.833  30.744  1.00  0.00     0.198 A 
ATOM    128  F   UNL A   1      48.691  28.067  29.420  1.00  0.00    -0.203 F 
ATOM    129  F   UNL A   1      49.626  24.804  33.693  1.00  0.00    -0.200 F 
ATOM    130  C   UNL A   1      50.438  26.003  31.828  1.00  0.00     0.200 A 
ATOM    131  F   UNL A   1      51.206  27.229  29.961  1.00  0.00    -0.200 F 
ATOM    132  F   UNL A   1      51.690  25.613  32.104  1.00  0.00    -0.200 F 
ENDBRANCH  98 122
ENDBRANCH  63  66
ENDBRANCH  53  56
ENDBRANCH  49  52
ENDBRANCH  46  49
ENDBRANCH  43  46
ENDBRANCH  40  43
ENDBRANCH   1  40
TORSDOF 17
ENDMDL
MODEL 9
REMARK VINA RESULT:     -12.1      5.695     11.381
REMARK SMILES O=C(Cc1ccccc1Nc1c(F)cccc1C(F)(F)F)NCCCCCCNC(=O)c1ccc(-c2c3nc(c(-c4c(F)c(F)c(F)c(F)c4F)c4ccc([nH]4)c(-c4c(F)c(F)c(F)c(F)c4F)c4nc(c(-c5c(F)c(F)c(F)c(F)c5F)c5ccc2[nH]5)C=C4)C=C3)cc1
REMARK SMILES IDX 24 1 23 4 22 7 1 8 2 9 3 11 4 14 5 15 9 16 6 17 8 19 7 20
REMARK SMILES IDX 10 24 11 26 12 27 17 28 13 29 14 30 16 31 15 32 18 36 19 37
REMARK SMILES IDX 20 38 21 39 25 40 26 43 27 46 28 49 29 52 30 53 31 55 32 56
REMARK SMILES IDX 33 57 94 58 34 59 93 61 35 63 36 66 37 67 87 68 38 69 92 70
REMARK SMILES IDX 86 71 88 72 39 73 91 74 85 76 84 78 40 80 72 83 52 84 71 85
REMARK SMILES IDX 53 86 56 87 70 88 89 89 54 90 55 92 69 94 90 95 57 98 41 100
REMARK SMILES IDX 42 101 50 102 43 103 44 104 48 105 51 106 45 107 46 108
REMARK SMILES IDX 49 109 47 110 73 111 74 112 82 113 75 114 76 115 80 116
REMARK SMILES IDX 83 117 77 118 78 119 81 120 79 121 58 122 59 123 67 124
REMARK SMILES IDX 60 125 61 126 65 127 68 128 62 129 63 130 66 131 64 132
REMARK H PARENT 24 2 24 3 23 5 23 6 22 10 3 12 3 13 5 18 6 21 8 22 7 23 10 25
REMARK H PARENT 14 33 16 34 15 35 25 41 25 42 26 44 26 45 27 47 27 48 28 50
REMARK H PARENT 28 51 29 54 33 60 94 62 34 64 93 65 92 75 86 77 88 79 91 81
REMARK H PARENT 85 82 53 91 56 93 89 96 54 97 90 99
REMARK Flexibility Score: inf
ROOT
ATOM      1  C   UNL A   1      31.053  29.522  24.373  1.00  0.00    -0.036 C 
ATOM      2  H   UNL A   1      30.315  28.906  24.843  1.00  0.00     0.028 H 
ATOM      3  H   UNL A   1      30.695  30.498  24.122  1.00  0.00     0.028 H 
ENDROOT
BRANCH   1   4
ATOM      4  C   UNL A   1      31.455  28.858  23.053  1.00  0.00     0.017 C 
ATOM      5  H   UNL A   1      30.832  29.235  22.269  1.00  0.00     0.049 H 
ATOM      6  H   UNL A   1      32.483  29.083  22.860  1.00  0.00     0.049 H 
BRANCH   4   7
ATOM      7  N   UNL A   1      31.308  27.420  23.120  1.00  0.00    -0.356 N 
ATOM      8  O   UNL A   1      33.464  26.917  23.711  1.00  0.00    -0.275 OA
ATOM      9  C   UNL A   1      32.331  26.551  23.410  1.00  0.00     0.224 C 
ATOM     10  H   UNL A   1      30.417  27.040  22.946  1.00  0.00     0.163 HD
BRANCH   9  11
ATOM     11  C   UNL A   1      31.990  25.088  23.179  1.00  0.00     0.054 C 
ATOM     12  H   UNL A   1      32.851  24.618  22.753  1.00  0.00     0.042 H 
ATOM     13  H   UNL A   1      31.126  25.097  22.548  1.00  0.00     0.042 H 
BRANCH  11  14
ATOM     14  C   UNL A   1      31.584  24.285  24.399  1.00  0.00    -0.015 A 
ATOM     15  C   UNL A   1      30.593  24.824  25.243  1.00  0.00    -0.056 A 
ATOM     16  C   UNL A   1      32.173  23.048  24.743  1.00  0.00     0.042 A 
ATOM     17  C   UNL A   1      30.219  24.177  26.421  1.00  0.00    -0.062 A 
ATOM     18  H   UNL A   1      30.136  25.712  24.984  1.00  0.00     0.063 H 
ATOM     19  C   UNL A   1      31.796  22.425  25.944  1.00  0.00    -0.038 A 
ATOM     20  C   UNL A   1      30.828  22.983  26.777  1.00  0.00    -0.060 A 
ATOM     21  H   UNL A   1      29.491  24.587  27.026  1.00  0.00     0.062 H 
ATOM     22  H   UNL A   1      32.244  21.535  26.214  1.00  0.00     0.064 H 
ATOM     23  H   UNL A   1      30.565  22.509  27.656  1.00  0.00     0.062 H 
BRANCH  16  24
ATOM     24  N   UNL A   1      33.143  22.447  23.907  1.00  0.00    -0.352 N 
ATOM     25  H   UNL A   1      32.853  22.271  22.982  1.00  0.00     0.167 HD
BRANCH  24  26
ATOM     26  C   UNL A   1      34.473  22.063  24.210  1.00  0.00     0.087 A 
ATOM     27  C   UNL A   1      35.477  23.040  24.047  1.00  0.00     0.147 A 
ATOM     28  C   UNL A   1      34.859  20.784  24.660  1.00  0.00     0.082 A 
ATOM     29  F   UNL A   1      35.135  24.246  23.565  1.00  0.00    -0.205 F 
ATOM     30  C   UNL A   1      36.813  22.798  24.345  1.00  0.00    -0.024 A 
ATOM     31  C   UNL A   1      36.220  20.559  24.986  1.00  0.00    -0.048 A 
ATOM     32  C   UNL A   1      37.187  21.553  24.828  1.00  0.00    -0.059 A 
ATOM     33  H   UNL A   1      37.521  23.538  24.208  1.00  0.00     0.065 H 
ATOM     34  H   UNL A   1      36.503  19.635  25.349  1.00  0.00     0.063 H 
ATOM     35  H   UNL A   1      38.171  21.363  25.071  1.00  0.00     0.062 H 
BRANCH  28  36
ATOM     36  C   UNL A   1      33.935  19.591  24.749  1.00  0.00     0.418 C 
ATOM     37  F   UNL A   1      34.627  18.411  24.694  1.00  0.00    -0.166 F 
ATOM     38  F   UNL A   1      33.244  19.541  25.920  1.00  0.00    -0.166 F 
ATOM     39  F   UNL A   1      33.025  19.491  23.744  1.00  0.00    -0.166 F 
ENDBRANCH  28  36
ENDBRANCH  24  26
ENDBRANCH  16  24
ENDBRANCH  11  14
ENDBRANCH   9  11
ENDBRANCH   4   7
ENDBRANCH   1   4
BRANCH   1  40
ATOM     40  C   UNL A   1      32.203  29.731  25.368  1.00  0.00    -0.052 C 
ATOM     41  H   UNL A   1      32.938  30.350  24.900  1.00  0.00     0.027 H 
ATOM     42  H   UNL A   1      32.563  28.754  25.617  1.00  0.00     0.027 H 
BRANCH  40  43
ATOM     43  C   UNL A   1      31.806  30.386  26.692  1.00  0.00    -0.052 C 
ATOM     44  H   UNL A   1      32.553  30.138  27.416  1.00  0.00     0.027 H 
ATOM     45  H   UNL A   1      30.832  30.005  26.920  1.00  0.00     0.027 H 
BRANCH  43  46
ATOM     46  C   UNL A   1      31.659  31.902  26.671  1.00  0.00    -0.036 C 
ATOM     47  H   UNL A   1      30.721  32.153  27.120  1.00  0.00     0.028 H 
ATOM     48  H   UNL A   1      31.727  32.200  25.646  1.00  0.00     0.028 H 
BRANCH  46  49
ATOM     49  C   UNL A   1      32.757  32.653  27.413  1.00  0.00     0.018 C 
ATOM     50  H   UNL A   1      33.653  32.612  26.830  1.00  0.00     0.049 H 
ATOM     51  H   UNL A   1      32.879  32.182  28.366  1.00  0.00     0.049 H 
BRANCH  49  52
ATOM     52  N   UNL A   1      32.425  34.050  27.657  1.00  0.00    -0.352 N 
ATOM     53  C   UNL A   1      32.975  34.939  28.552  1.00  0.00     0.251 C 
ATOM     54  H   UNL A   1      31.699  34.411  27.100  1.00  0.00     0.163 HD
ATOM     55  O   UNL A   1      32.468  36.041  28.720  1.00  0.00    -0.269 OA
BRANCH  53  56
ATOM     56  C   UNL A   1      34.160  34.542  29.343  1.00  0.00     0.039 A 
ATOM     57  C   UNL A   1      33.974  34.053  30.639  1.00  0.00    -0.049 A 
ATOM     58  C   UNL A   1      35.444  34.615  28.799  1.00  0.00    -0.049 A 
ATOM     59  C   UNL A   1      35.065  33.545  31.349  1.00  0.00    -0.053 A 
ATOM     60  H   UNL A   1      33.037  34.065  31.068  1.00  0.00     0.063 H 
ATOM     61  C   UNL A   1      36.514  34.032  29.471  1.00  0.00    -0.053 A 
ATOM     62  H   UNL A   1      35.599  35.099  27.900  1.00  0.00     0.063 H 
ATOM     63  C   UNL A   1      36.333  33.481  30.748  1.00  0.00    -0.014 A 
ATOM     64  H   UNL A   1      34.939  33.215  32.319  1.00  0.00     0.063 H 
ATOM     65  H   UNL A   1      37.446  34.006  29.028  1.00  0.00     0.063 H 
BRANCH  63  66
ATOM     66  C   UNL A   1      37.473  32.807  31.419  1.00  0.00     0.031 A 
ATOM     67  C   UNL A   1      38.137  31.621  30.783  1.00  0.00     0.074 A 
ATOM     68  C   UNL A   1      37.849  33.211  32.648  1.00  0.00     0.049 A 
ATOM     69  N   UNL A   1      39.088  30.852  31.253  1.00  0.00    -0.248 NA
ATOM     70  C   UNL A   1      37.647  31.226  29.454  1.00  0.00    -0.034 C 
ATOM     71  C   UNL A   1      37.239  34.308  33.401  1.00  0.00    -0.036 A 
ATOM     72  N   UNL A   1      38.822  32.731  33.490  1.00  0.00    -0.354 N 
ATOM     73  C   UNL A   1      39.301  29.881  30.285  1.00  0.00     0.074 A 
ATOM     74  C   UNL A   1      38.340  30.119  29.229  1.00  0.00    -0.034 C 
ATOM     75  H   UNL A   1      36.947  31.689  28.854  1.00  0.00     0.065 H 
ATOM     76  C   UNL A   1      37.858  34.425  34.585  1.00  0.00    -0.036 A 
ATOM     77  H   UNL A   1      36.456  34.895  33.073  1.00  0.00     0.065 H 
ATOM     78  C   UNL A   1      38.881  33.392  34.694  1.00  0.00     0.049 A 
ATOM     79  H   UNL A   1      39.420  31.986  33.254  1.00  0.00     0.167 HD
ATOM     80  C   UNL A   1      40.232  28.897  30.264  1.00  0.00     0.037 A 
ATOM     81  H   UNL A   1      38.212  29.508  28.408  1.00  0.00     0.065 H 
ATOM     82  H   UNL A   1      37.644  35.135  35.305  1.00  0.00     0.065 H 
ATOM     83  C   UNL A   1      39.662  33.178  35.769  1.00  0.00     0.037 A 
ATOM     84  C   UNL A   1      41.192  28.669  31.313  1.00  0.00     0.049 A 
ATOM     85  C   UNL A   1      40.682  32.074  35.732  1.00  0.00     0.074 A 
ATOM     86  C   UNL A   1      42.218  27.742  31.358  1.00  0.00    -0.036 A 
ATOM     87  N   UNL A   1      41.235  29.371  32.509  1.00  0.00    -0.354 N 
ATOM     88  N   UNL A   1      40.932  31.214  34.774  1.00  0.00    -0.248 NA
ATOM     89  C   UNL A   1      41.531  31.914  36.919  1.00  0.00    -0.034 C 
ATOM     90  C   UNL A   1      42.850  27.849  32.602  1.00  0.00    -0.036 A 
ATOM     91  H   UNL A   1      42.474  27.085  30.604  1.00  0.00     0.065 H 
ATOM     92  C   UNL A   1      42.252  28.877  33.313  1.00  0.00     0.049 A 
ATOM     93  H   UNL A   1      40.634  30.111  32.752  1.00  0.00     0.167 HD
ATOM     94  C   UNL A   1      41.972  30.419  35.237  1.00  0.00     0.074 A 
ATOM     95  C   UNL A   1      42.322  30.915  36.552  1.00  0.00    -0.034 C 
ATOM     96  H   UNL A   1      41.515  32.441  37.806  1.00  0.00     0.065 H 
ATOM     97  H   UNL A   1      43.631  27.261  32.934  1.00  0.00     0.065 H 
ATOM     98  C   UNL A   1      42.579  29.372  34.626  1.00  0.00     0.037 A 
ATOM     99  H   UNL A   1      43.090  30.540  37.130  1.00  0.00     0.065 H 
BRANCH  80 100
ATOM    100  C   UNL A   1      40.251  27.994  29.064  1.00  0.00     0.064 A 
ATOM    101  C   UNL A   1      39.537  26.784  29.044  1.00  0.00     0.173 A 
ATOM    102  C   UNL A   1      40.979  28.342  27.917  1.00  0.00     0.173 A 
ATOM    103  F   UNL A   1      38.833  26.397  30.118  1.00  0.00    -0.203 F 
ATOM    104  C   UNL A   1      39.589  25.939  27.939  1.00  0.00     0.198 A 
ATOM    105  C   UNL A   1      41.001  27.511  26.800  1.00  0.00     0.198 A 
ATOM    106  F   UNL A   1      41.673  29.490  27.879  1.00  0.00    -0.203 F 
ATOM    107  F   UNL A   1      38.952  24.760  27.969  1.00  0.00    -0.200 F 
ATOM    108  C   UNL A   1      40.315  26.304  26.816  1.00  0.00     0.200 A 
ATOM    109  F   UNL A   1      41.693  27.871  25.711  1.00  0.00    -0.200 F 
ATOM    110  F   UNL A   1      40.365  25.490  25.753  1.00  0.00    -0.200 F 
ENDBRANCH  80 100
BRANCH  83 111
ATOM    111  C   UNL A   1      39.510  34.043  36.967  1.00  0.00     0.064 A 
ATOM    112  C   UNL A   1      38.741  33.630  38.063  1.00  0.00     0.173 A 
ATOM    113  C   UNL A   1      40.155  35.287  37.053  1.00  0.00     0.173 A 
ATOM    114  F   UNL A   1      38.091  32.458  38.019  1.00  0.00    -0.203 F 
ATOM    115  C   UNL A   1      38.615  34.431  39.197  1.00  0.00     0.198 A 
ATOM    116  C   UNL A   1      40.050  36.074  38.197  1.00  0.00     0.198 A 
ATOM    117  F   UNL A   1      40.907  35.726  36.033  1.00  0.00    -0.203 F 
ATOM    118  F   UNL A   1      37.848  34.025  40.217  1.00  0.00    -0.200 F 
ATOM    119  C   UNL A   1      39.276  35.648  39.266  1.00  0.00     0.200 A 
ATOM    120  F   UNL A   1      40.703  37.242  38.267  1.00  0.00    -0.200 F 
ATOM    121  F   UNL A   1      39.166  36.411  40.362  1.00  0.00    -0.200 F 
ENDBRANCH  83 111
BRANCH  98 122
ATOM    122  C   UNL A   1      43.690  28.693  35.374  1.00  0.00     0.064 A 
ATOM    123  C   UNL A   1      45.027  29.088  35.218  1.00  0.00     0.173 A 
ATOM    124  C   UNL A   1      43.411  27.663  36.286  1.00  0.00     0.173 A 
ATOM    125  F   UNL A   1      45.348  30.056  34.346  1.00  0.00    -0.203 F 
ATOM    126  C   UNL A   1      46.047  28.463  35.932  1.00  0.00     0.198 A 
ATOM    127  C   UNL A   1      44.429  27.061  37.020  1.00  0.00     0.198 A 
ATOM    128  F   UNL A   1      42.149  27.252  36.475  1.00  0.00    -0.203 F 
ATOM    129  F   UNL A   1      47.321  28.826  35.734  1.00  0.00    -0.200 F 
ATOM    130  C   UNL A   1      45.746  27.456  36.837  1.00  0.00     0.200 A 
ATOM    131  F   UNL A   1      44.136  26.097  37.904  1.00  0.00    -0.200 F 
ATOM    132  F   UNL A   1      46.727  26.861  37.530  1.00  0.00    -0.200 F 
ENDBRANCH  98 122
ENDBRANCH  63  66
ENDBRANCH  53  56
ENDBRANCH  49  52
ENDBRANCH  46  49
ENDBRANCH  43  46
ENDBRANCH  40  43
ENDBRANCH   1  40
TORSDOF 17
ENDMDL
MODEL 10
REMARK VINA RESULT:     -12.1      0.865      7.059
REMARK SMILES O=C(Cc1ccccc1Nc1c(F)cccc1C(F)(F)F)NCCCCCCNC(=O)c1ccc(-c2c3nc(c(-c4c(F)c(F)c(F)c(F)c4F)c4ccc([nH]4)c(-c4c(F)c(F)c(F)c(F)c4F)c4nc(c(-c5c(F)c(F)c(F)c(F)c5F)c5ccc2[nH]5)C=C4)C=C3)cc1
REMARK SMILES IDX 24 1 23 4 22 7 1 8 2 9 3 11 4 14 5 15 9 16 6 17 8 19 7 20
REMARK SMILES IDX 10 24 11 26 12 27 17 28 13 29 14 30 16 31 15 32 18 36 19 37
REMARK SMILES IDX 20 38 21 39 25 40 26 43 27 46 28 49 29 52 30 53 31 55 32 56
REMARK SMILES IDX 33 57 94 58 34 59 93 61 35 63 36 66 37 67 87 68 38 69 92 70
REMARK SMILES IDX 86 71 88 72 39 73 91 74 85 76 84 78 40 80 72 83 52 84 71 85
REMARK SMILES IDX 53 86 56 87 70 88 89 89 54 90 55 92 69 94 90 95 57 98 41 100
REMARK SMILES IDX 42 101 50 102 43 103 44 104 48 105 51 106 45 107 46 108
REMARK SMILES IDX 49 109 47 110 73 111 74 112 82 113 75 114 76 115 80 116
REMARK SMILES IDX 83 117 77 118 78 119 81 120 79 121 58 122 59 123 67 124
REMARK SMILES IDX 60 125 61 126 65 127 68 128 62 129 63 130 66 131 64 132
REMARK H PARENT 24 2 24 3 23 5 23 6 22 10 3 12 3 13 5 18 6 21 8 22 7 23 10 25
REMARK H PARENT 14 33 16 34 15 35 25 41 25 42 26 44 26 45 27 47 27 48 28 50
REMARK H PARENT 28 51 29 54 33 60 94 62 34 64 93 65 92 75 86 77 88 79 91 81
REMARK H PARENT 85 82 53 91 56 93 89 96 54 97 90 99
REMARK Flexibility Score: inf
ROOT
ATOM      1  C   UNL A   1      35.715  23.252  24.826  1.00  0.00    -0.036 C 
ATOM      2  H   UNL A   1      35.750  23.573  25.846  1.00  0.00     0.028 H 
ATOM      3  H   UNL A   1      36.455  23.717  24.209  1.00  0.00     0.028 H 
ENDROOT
BRANCH   1   4
ATOM      4  C   UNL A   1      34.356  23.659  24.248  1.00  0.00     0.017 C 
ATOM      5  H   UNL A   1      34.197  23.134  23.329  1.00  0.00     0.049 H 
ATOM      6  H   UNL A   1      33.597  23.413  24.960  1.00  0.00     0.049 H 
BRANCH   4   7
ATOM      7  N   UNL A   1      34.297  25.082  23.993  1.00  0.00    -0.356 N 
ATOM      8  O   UNL A   1      33.125  25.683  25.868  1.00  0.00    -0.275 OA
ATOM      9  C   UNL A   1      33.655  25.987  24.803  1.00  0.00     0.224 C 
ATOM     10  H   UNL A   1      34.745  25.424  23.185  1.00  0.00     0.163 HD
BRANCH   9  11
ATOM     11  C   UNL A   1      33.521  27.376  24.202  1.00  0.00     0.054 C 
ATOM     12  H   UNL A   1      32.768  27.329  23.444  1.00  0.00     0.042 H 
ATOM     13  H   UNL A   1      34.499  27.625  23.846  1.00  0.00     0.042 H 
BRANCH  11  14
ATOM     14  C   UNL A   1      33.147  28.495  25.154  1.00  0.00    -0.015 A 
ATOM     15  C   UNL A   1      33.879  28.613  26.351  1.00  0.00    -0.056 A 
ATOM     16  C   UNL A   1      32.085  29.395  24.911  1.00  0.00     0.042 A 
ATOM     17  C   UNL A   1      33.547  29.573  27.307  1.00  0.00    -0.062 A 
ATOM     18  H   UNL A   1      34.675  27.980  26.523  1.00  0.00     0.063 H 
ATOM     19  C   UNL A   1      31.756  30.340  25.897  1.00  0.00    -0.038 A 
ATOM     20  C   UNL A   1      32.478  30.429  27.086  1.00  0.00    -0.060 A 
ATOM     21  H   UNL A   1      34.095  29.645  28.179  1.00  0.00     0.062 H 
ATOM     22  H   UNL A   1      30.963  30.981  25.738  1.00  0.00     0.064 H 
ATOM     23  H   UNL A   1      32.219  31.131  27.797  1.00  0.00     0.062 H 
BRANCH  16  24
ATOM     24  N   UNL A   1      31.347  29.341  23.706  1.00  0.00    -0.352 N 
ATOM     25  H   UNL A   1      31.881  29.404  22.881  1.00  0.00     0.167 HD
BRANCH  24  26
ATOM     26  C   UNL A   1      29.950  29.210  23.517  1.00  0.00     0.087 A 
ATOM     27  C   UNL A   1      29.202  30.399  23.395  1.00  0.00     0.147 A 
ATOM     28  C   UNL A   1      29.258  27.983  23.441  1.00  0.00     0.082 A 
ATOM     29  F   UNL A   1      29.835  31.577  23.521  1.00  0.00    -0.205 F 
ATOM     30  C   UNL A   1      27.830  30.403  23.171  1.00  0.00    -0.024 A 
ATOM     31  C   UNL A   1      27.865  28.001  23.185  1.00  0.00    -0.048 A 
ATOM     32  C   UNL A   1      27.158  29.196  23.054  1.00  0.00    -0.059 A 
ATOM     33  H   UNL A   1      27.317  31.296  23.092  1.00  0.00     0.065 H 
ATOM     34  H   UNL A   1      27.360  27.105  23.094  1.00  0.00     0.063 H 
ATOM     35  H   UNL A   1      26.142  29.182  22.870  1.00  0.00     0.062 H 
BRANCH  28  36
ATOM     36  C   UNL A   1      29.884  26.630  23.694  1.00  0.00     0.418 C 
ATOM     37  F   UNL A   1      28.969  25.620  23.569  1.00  0.00    -0.166 F 
ATOM     38  F   UNL A   1      30.869  26.326  22.806  1.00  0.00    -0.166 F 
ATOM     39  F   UNL A   1      30.402  26.458  24.939  1.00  0.00    -0.166 F 
ENDBRANCH  28  36
ENDBRANCH  24  26
ENDBRANCH  16  24
ENDBRANCH  11  14
ENDBRANCH   9  11
ENDBRANCH   4   7
ENDBRANCH   1   4
BRANCH   1  40
ATOM     40  C   UNL A   1      36.009  21.747  24.789  1.00  0.00    -0.052 C 
ATOM     41  H   UNL A   1      35.324  21.292  24.105  1.00  0.00     0.027 H 
ATOM     42  H   UNL A   1      35.903  21.398  25.795  1.00  0.00     0.027 H 
BRANCH  40  43
ATOM     43  C   UNL A   1      37.427  21.372  24.358  1.00  0.00    -0.052 C 
ATOM     44  H   UNL A   1      38.067  22.200  24.584  1.00  0.00     0.027 H 
ATOM     45  H   UNL A   1      37.360  21.144  23.315  1.00  0.00     0.027 H 
BRANCH  43  46
ATOM     46  C   UNL A   1      38.021  20.131  25.013  1.00  0.00    -0.036 C 
ATOM     47  H   UNL A   1      38.348  19.470  24.239  1.00  0.00     0.028 H 
ATOM     48  H   UNL A   1      37.249  19.712  25.624  1.00  0.00     0.028 H 
BRANCH  46  49
ATOM     49  C   UNL A   1      39.202  20.406  25.934  1.00  0.00     0.018 C 
ATOM     50  H   UNL A   1      38.835  20.534  26.931  1.00  0.00     0.049 H 
ATOM     51  H   UNL A   1      39.692  21.286  25.573  1.00  0.00     0.049 H 
BRANCH  49  52
ATOM     52  N   UNL A   1      40.184  19.330  25.935  1.00  0.00    -0.352 N 
ATOM     53  C   UNL A   1      41.549  19.389  26.100  1.00  0.00     0.251 C 
ATOM     54  H   UNL A   1      39.816  18.428  25.798  1.00  0.00     0.163 HD
ATOM     55  O   UNL A   1      42.236  18.390  25.927  1.00  0.00    -0.269 OA
BRANCH  53  56
ATOM     56  C   UNL A   1      42.189  20.676  26.447  1.00  0.00     0.039 A 
ATOM     57  C   UNL A   1      42.661  21.496  25.418  1.00  0.00    -0.049 A 
ATOM     58  C   UNL A   1      42.291  21.092  27.777  1.00  0.00    -0.049 A 
ATOM     59  C   UNL A   1      43.142  22.772  25.717  1.00  0.00    -0.053 A 
ATOM     60  H   UNL A   1      42.651  21.160  24.444  1.00  0.00     0.063 H 
ATOM     61  C   UNL A   1      42.690  22.393  28.066  1.00  0.00    -0.053 A 
ATOM     62  H   UNL A   1      42.071  20.435  28.543  1.00  0.00     0.063 H 
ATOM     63  C   UNL A   1      43.109  23.250  27.037  1.00  0.00    -0.014 A 
ATOM     64  H   UNL A   1      43.524  23.367  24.965  1.00  0.00     0.063 H 
ATOM     65  H   UNL A   1      42.679  22.729  29.042  1.00  0.00     0.063 H 
BRANCH  63  66
ATOM     66  C   UNL A   1      43.469  24.655  27.360  1.00  0.00     0.031 A 
ATOM     67  C   UNL A   1      44.907  25.080  27.407  1.00  0.00     0.074 A 
ATOM     68  C   UNL A   1      42.497  25.523  27.701  1.00  0.00     0.049 A 
ATOM     69  N   UNL A   1      45.418  26.236  27.750  1.00  0.00    -0.248 NA
ATOM     70  C   UNL A   1      45.907  24.063  27.049  1.00  0.00    -0.034 C 
ATOM     71  C   UNL A   1      41.068  25.213  27.760  1.00  0.00    -0.036 A 
ATOM     72  N   UNL A   1      42.568  26.840  28.085  1.00  0.00    -0.354 N 
ATOM     73  C   UNL A   1      46.795  26.081  27.660  1.00  0.00     0.074 A 
ATOM     74  C   UNL A   1      47.041  24.703  27.290  1.00  0.00    -0.034 C 
ATOM     75  H   UNL A   1      45.762  23.101  26.703  1.00  0.00     0.065 H 
ATOM     76  C   UNL A   1      40.396  26.309  28.142  1.00  0.00    -0.036 A 
ATOM     77  H   UNL A   1      40.646  24.297  27.543  1.00  0.00     0.065 H 
ATOM     78  C   UNL A   1      41.346  27.388  28.393  1.00  0.00     0.049 A 
ATOM     79  H   UNL A   1      43.412  27.343  28.134  1.00  0.00     0.167 HD
ATOM     80  C   UNL A   1      47.765  27.010  27.841  1.00  0.00     0.037 A 
ATOM     81  H   UNL A   1      47.978  24.277  27.221  1.00  0.00     0.065 H 
ATOM     82  H   UNL A   1      39.371  26.379  28.242  1.00  0.00     0.065 H 
ATOM     83  C   UNL A   1      41.028  28.617  28.843  1.00  0.00     0.037 A 
ATOM     84  C   UNL A   1      47.514  28.381  28.201  1.00  0.00     0.049 A 
ATOM     85  C   UNL A   1      42.120  29.630  29.049  1.00  0.00     0.074 A 
ATOM     86  C   UNL A   1      48.421  29.416  28.344  1.00  0.00    -0.036 A 
ATOM     87  N   UNL A   1      46.262  28.906  28.486  1.00  0.00    -0.354 N 
ATOM     88  N   UNL A   1      43.412  29.497  28.879  1.00  0.00    -0.248 NA
ATOM     89  C   UNL A   1      41.708  30.965  29.504  1.00  0.00    -0.034 C 
ATOM     90  C   UNL A   1      47.724  30.554  28.765  1.00  0.00    -0.036 A 
ATOM     91  H   UNL A   1      49.437  29.359  28.171  1.00  0.00     0.065 H 
ATOM     92  C   UNL A   1      46.375  30.244  28.835  1.00  0.00     0.049 A 
ATOM     93  H   UNL A   1      45.416  28.404  28.447  1.00  0.00     0.167 HD
ATOM     94  C   UNL A   1      43.968  30.729  29.193  1.00  0.00     0.074 A 
ATOM     95  C   UNL A   1      42.869  31.605  29.542  1.00  0.00    -0.034 C 
ATOM     96  H   UNL A   1      40.764  31.312  29.733  1.00  0.00     0.065 H 
ATOM     97  H   UNL A   1      48.144  31.471  28.987  1.00  0.00     0.065 H 
ATOM     98  C   UNL A   1      45.273  31.099  29.194  1.00  0.00     0.037 A 
ATOM     99  H   UNL A   1      42.974  32.601  29.788  1.00  0.00     0.065 H 
BRANCH  80 100
ATOM    100  C   UNL A   1      49.186  26.565  27.653  1.00  0.00     0.064 A 
ATOM    101  C   UNL A   1      50.021  26.286  28.748  1.00  0.00     0.173 A 
ATOM    102  C   UNL A   1      49.721  26.403  26.366  1.00  0.00     0.173 A 
ATOM    103  F   UNL A   1      49.563  26.435  30.000  1.00  0.00    -0.203 F 
ATOM    104  C   UNL A   1      51.347  25.906  28.561  1.00  0.00     0.198 A 
ATOM    105  C   UNL A   1      51.038  25.989  26.183  1.00  0.00     0.198 A 
ATOM    106  F   UNL A   1      48.967  26.648  25.284  1.00  0.00    -0.203 F 
ATOM    107  F   UNL A   1      52.141  25.709  29.623  1.00  0.00    -0.200 F 
ATOM    108  C   UNL A   1      51.854  25.753  27.280  1.00  0.00     0.200 A 
ATOM    109  F   UNL A   1      51.523  25.829  24.944  1.00  0.00    -0.200 F 
ATOM    110  F   UNL A   1      53.130  25.388  27.101  1.00  0.00    -0.200 F 
ENDBRANCH  80 100
BRANCH  83 111
ATOM    111  C   UNL A   1      39.607  28.951  29.115  1.00  0.00     0.064 A 
ATOM    112  C   UNL A   1      38.770  29.427  28.097  1.00  0.00     0.173 A 
ATOM    113  C   UNL A   1      39.049  28.772  30.390  1.00  0.00     0.173 A 
ATOM    114  F   UNL A   1      39.263  29.633  26.867  1.00  0.00    -0.203 F 
ATOM    115  C   UNL A   1      37.430  29.721  28.346  1.00  0.00     0.198 A 
ATOM    116  C   UNL A   1      37.703  29.040  30.631  1.00  0.00     0.198 A 
ATOM    117  F   UNL A   1      39.806  28.313  31.397  1.00  0.00    -0.203 F 
ATOM    118  F   UNL A   1      36.661  30.205  27.362  1.00  0.00    -0.200 F 
ATOM    119  C   UNL A   1      36.896  29.519  29.609  1.00  0.00     0.200 A 
ATOM    120  F   UNL A   1      37.187  28.829  31.849  1.00  0.00    -0.200 F 
ATOM    121  F   UNL A   1      35.604  29.788  29.844  1.00  0.00    -0.200 F 
ENDBRANCH  83 111
BRANCH  98 122
ATOM    122  C   UNL A   1      45.582  32.516  29.581  1.00  0.00     0.064 A 
ATOM    123  C   UNL A   1      45.898  32.862  30.904  1.00  0.00     0.173 A 
ATOM    124  C   UNL A   1      45.603  33.532  28.613  1.00  0.00     0.173 A 
ATOM    125  F   UNL A   1      45.875  31.931  31.869  1.00  0.00    -0.203 F 
ATOM    126  C   UNL A   1      46.202  34.178  31.247  1.00  0.00     0.198 A 
ATOM    127  C   UNL A   1      45.936  34.840  28.954  1.00  0.00     0.198 A 
ATOM    128  F   UNL A   1      45.314  33.253  27.334  1.00  0.00    -0.203 F 
ATOM    129  F   UNL A   1      46.456  34.494  32.524  1.00  0.00    -0.200 F 
ATOM    130  C   UNL A   1      46.228  35.163  30.271  1.00  0.00     0.200 A 
ATOM    131  F   UNL A   1      45.974  35.789  28.008  1.00  0.00    -0.200 F 
ATOM    132  F   UNL A   1      46.529  36.427  30.601  1.00  0.00    -0.200 F 
ENDBRANCH  98 122
ENDBRANCH  63  66
ENDBRANCH  53  56
ENDBRANCH  49  52
ENDBRANCH  46  49
ENDBRANCH  43  46
ENDBRANCH  40  43
ENDBRANCH   1  40
TORSDOF 17
ENDMDL
