MODEL 1
REMARK VINA RESULT:     -10.8      0.000      0.000
REMARK SMILES CCOc1cccc(OCC)c1-c1ccc([C@@H](C)C(=O)NCCCCCCNC(=O)c2ccc(-c3c4nc(c(-c5c(F)c(F)c(F)c(F)c5F)c5ccc([nH]5)c(-c5c(F)c(F)c(F)c(F)c5F)c5nc(c(-c6c(F)c(F)c(F)c(F)c6F)c6ccc3[nH]6)C=C5)C=C4)cc2)cc1F
REMARK SMILES IDX 23 1 22 4 21 7 19 8 20 9 17 11 16 13 13 14 14 15 95 16 15 17
REMARK SMILES IDX 94 19 96 20 12 23 4 24 5 25 6 26 8 28 7 29 3 32 2 33 1 36
REMARK SMILES IDX 9 40 10 41 11 44 18 48 24 52 25 55 26 58 27 61 28 64 29 65
REMARK SMILES IDX 30 67 31 68 32 69 93 70 33 71 92 73 34 75 35 78 36 79 86 80
REMARK SMILES IDX 37 81 91 82 85 83 87 84 38 85 90 86 84 88 83 90 39 92 71 95
REMARK SMILES IDX 51 96 70 97 52 98 55 99 69 100 88 101 53 102 54 104 68 106
REMARK SMILES IDX 89 107 56 110 40 112 41 113 49 114 42 115 43 116 47 117
REMARK SMILES IDX 50 118 44 119 45 120 48 121 46 122 72 123 73 124 81 125
REMARK SMILES IDX 74 126 75 127 79 128 82 129 76 130 77 131 80 132 78 133
REMARK SMILES IDX 57 134 58 135 66 136 59 137 60 138 64 139 67 140 61 141
REMARK SMILES IDX 62 142 65 143 63 144
REMARK H PARENT 23 2 23 3 22 5 22 6 21 10 17 12 14 18 15 21 94 22 5 27 6 30
REMARK H PARENT 7 31 2 34 2 35 1 37 1 38 1 39 10 42 10 43 11 45 11 46 11 47
REMARK H PARENT 18 49 18 50 18 51 24 53 24 54 25 56 25 57 26 59 26 60 27 62
REMARK H PARENT 27 63 28 66 32 72 93 74 33 76 92 77 91 87 85 89 87 91 90 93
REMARK H PARENT 84 94 52 103 55 105 88 108 53 109 89 111
REMARK Flexibility Score: inf
ROOT
ATOM      1  C   UNL A   1      34.476  32.802  29.340  1.00  0.00    -0.036 C 
ATOM      2  H   UNL A   1      35.099  32.118  29.876  1.00  0.00     0.028 H 
ATOM      3  H   UNL A   1      33.570  33.053  29.850  1.00  0.00     0.028 H 
ENDROOT
BRANCH   1   4
ATOM      4  C   UNL A   1      34.045  32.122  28.025  1.00  0.00     0.017 C 
ATOM      5  H   UNL A   1      33.007  31.873  28.086  1.00  0.00     0.049 H 
ATOM      6  H   UNL A   1      34.227  32.802  27.219  1.00  0.00     0.049 H 
BRANCH   4   7
ATOM      7  N   UNL A   1      34.810  30.906  27.779  1.00  0.00    -0.356 N 
ATOM      8  C   UNL A   1      34.563  29.726  27.145  1.00  0.00     0.227 C 
ATOM      9  O   UNL A   1      35.466  28.883  27.240  1.00  0.00    -0.274 OA
ATOM     10  H   UNL A   1      35.717  30.947  28.160  1.00  0.00     0.163 HD
BRANCH   8  11
ATOM     11  C   UNL A   1      33.290  29.371  26.343  1.00  0.00     0.060 C 
ATOM     12  H   UNL A   1      33.359  30.004  25.483  1.00  0.00     0.045 H 
BRANCH  11  13
ATOM     13  C   UNL A   1      33.266  27.956  25.792  1.00  0.00    -0.033 A 
ATOM     14  C   UNL A   1      33.273  25.251  24.905  1.00  0.00     0.025 A 
ATOM     15  C   UNL A   1      32.908  25.590  26.203  1.00  0.00    -0.051 A 
ATOM     16  C   UNL A   1      33.668  26.293  24.056  1.00  0.00     0.131 A 
ATOM     17  C   UNL A   1      32.805  26.915  26.585  1.00  0.00    -0.057 A 
ATOM     18  H   UNL A   1      32.711  24.845  26.889  1.00  0.00     0.063 H 
ATOM     19  C   UNL A   1      33.693  27.628  24.498  1.00  0.00    -0.022 A 
ATOM     20  F   UNL A   1      34.052  26.032  22.798  1.00  0.00    -0.206 F 
ATOM     21  H   UNL A   1      32.370  27.137  27.494  1.00  0.00     0.063 H 
ATOM     22  H   UNL A   1      34.031  28.371  23.866  1.00  0.00     0.066 H 
BRANCH  14  23
ATOM     23  C   UNL A   1      33.297  23.824  24.568  1.00  0.00     0.069 A 
ATOM     24  C   UNL A   1      34.524  23.135  24.764  1.00  0.00     0.130 A 
ATOM     25  C   UNL A   1      34.632  21.751  24.623  1.00  0.00    -0.019 A 
ATOM     26  C   UNL A   1      33.506  21.009  24.303  1.00  0.00    -0.055 A 
ATOM     27  H   UNL A   1      35.542  21.283  24.757  1.00  0.00     0.066 H 
ATOM     28  C   UNL A   1      32.157  23.058  24.226  1.00  0.00     0.130 A 
ATOM     29  C   UNL A   1      32.292  21.661  24.096  1.00  0.00    -0.019 A 
ATOM     30  H   UNL A   1      33.565  19.982  24.220  1.00  0.00     0.063 H 
ATOM     31  H   UNL A   1      31.463  21.102  23.839  1.00  0.00     0.066 H 
BRANCH  24  32
ATOM     32  O   UNL A   1      35.666  23.854  25.031  1.00  0.00    -0.493 OA
BRANCH  32  33
ATOM     33  C   UNL A   1      36.662  23.101  25.729  1.00  0.00     0.085 C 
ATOM     34  H   UNL A   1      36.247  22.705  26.632  1.00  0.00     0.070 H 
ATOM     35  H   UNL A   1      37.001  22.291  25.115  1.00  0.00     0.070 H 
BRANCH  33  36
ATOM     36  C   UNL A   1      37.829  24.017  26.063  1.00  0.00    -0.031 C 
ATOM     37  H   UNL A   1      38.025  24.663  25.232  1.00  0.00     0.027 H 
ATOM     38  H   UNL A   1      38.699  23.427  26.267  1.00  0.00     0.027 H 
ATOM     39  H   UNL A   1      37.587  24.605  26.923  1.00  0.00     0.027 H 
ENDBRANCH  33  36
ENDBRANCH  32  33
ENDBRANCH  24  32
BRANCH  28  40
ATOM     40  O   UNL A   1      30.864  23.421  23.959  1.00  0.00    -0.493 OA
BRANCH  40  41
ATOM     41  C   UNL A   1      30.476  24.507  23.130  1.00  0.00     0.085 C 
ATOM     42  H   UNL A   1      29.735  24.171  22.436  1.00  0.00     0.070 H 
ATOM     43  H   UNL A   1      31.338  24.867  22.607  1.00  0.00     0.070 H 
BRANCH  41  44
ATOM     44  C   UNL A   1      29.901  25.642  23.968  1.00  0.00    -0.031 C 
ATOM     45  H   UNL A   1      30.320  26.572  23.643  1.00  0.00     0.027 H 
ATOM     46  H   UNL A   1      30.141  25.483  24.998  1.00  0.00     0.027 H 
ATOM     47  H   UNL A   1      28.838  25.669  23.849  1.00  0.00     0.027 H 
ENDBRANCH  41  44
ENDBRANCH  40  41
ENDBRANCH  28  40
ENDBRANCH  14  23
ENDBRANCH  11  13
BRANCH  11  48
ATOM     48  C   UNL A   1      31.982  29.769  27.021  1.00  0.00    -0.049 C 
ATOM     49  H   UNL A   1      31.280  28.967  26.941  1.00  0.00     0.024 H 
ATOM     50  H   UNL A   1      31.583  30.640  26.542  1.00  0.00     0.024 H 
ATOM     51  H   UNL A   1      32.166  29.982  28.053  1.00  0.00     0.024 H 
ENDBRANCH  11  48
ENDBRANCH   8  11
ENDBRANCH   4   7
ENDBRANCH   1   4
BRANCH   1  52
ATOM     52  C   UNL A   1      35.244  34.113  29.186  1.00  0.00    -0.052 C 
ATOM     53  H   UNL A   1      36.206  33.888  28.773  1.00  0.00     0.027 H 
ATOM     54  H   UNL A   1      35.293  34.549  30.161  1.00  0.00     0.027 H 
BRANCH  52  55
ATOM     55  C   UNL A   1      34.571  35.152  28.285  1.00  0.00    -0.052 C 
ATOM     56  H   UNL A   1      34.337  34.677  27.355  1.00  0.00     0.027 H 
ATOM     57  H   UNL A   1      35.270  35.958  28.199  1.00  0.00     0.027 H 
BRANCH  55  58
ATOM     58  C   UNL A   1      33.282  35.777  28.831  1.00  0.00    -0.036 C 
ATOM     59  H   UNL A   1      32.632  34.982  29.134  1.00  0.00     0.028 H 
ATOM     60  H   UNL A   1      32.885  36.377  28.039  1.00  0.00     0.028 H 
BRANCH  58  61
ATOM     61  C   UNL A   1      33.464  36.718  30.022  1.00  0.00     0.018 C 
ATOM     62  H   UNL A   1      33.403  37.728  29.676  1.00  0.00     0.049 H 
ATOM     63  H   UNL A   1      34.420  36.515  30.458  1.00  0.00     0.049 H 
BRANCH  61  64
ATOM     64  N   UNL A   1      32.450  36.509  31.044  1.00  0.00    -0.352 N 
ATOM     65  C   UNL A   1      32.438  35.647  32.110  1.00  0.00     0.251 C 
ATOM     66  H   UNL A   1      31.649  37.074  30.956  1.00  0.00     0.163 HD
ATOM     67  O   UNL A   1      31.390  35.449  32.726  1.00  0.00    -0.269 OA
BRANCH  65  68
ATOM     68  C   UNL A   1      33.670  34.943  32.525  1.00  0.00     0.039 A 
ATOM     69  C   UNL A   1      33.582  33.609  32.935  1.00  0.00    -0.049 A 
ATOM     70  C   UNL A   1      34.900  35.606  32.556  1.00  0.00    -0.049 A 
ATOM     71  C   UNL A   1      34.737  32.923  33.319  1.00  0.00    -0.053 A 
ATOM     72  H   UNL A   1      32.667  33.133  32.954  1.00  0.00     0.063 H 
ATOM     73  C   UNL A   1      36.060  34.901  32.878  1.00  0.00    -0.053 A 
ATOM     74  H   UNL A   1      34.950  36.613  32.342  1.00  0.00     0.063 H 
ATOM     75  C   UNL A   1      35.990  33.555  33.264  1.00  0.00    -0.014 A 
ATOM     76  H   UNL A   1      34.668  31.947  33.646  1.00  0.00     0.063 H 
ATOM     77  H   UNL A   1      36.976  35.375  32.831  1.00  0.00     0.063 H 
BRANCH  75  78
ATOM     78  C   UNL A   1      37.237  32.821  33.605  1.00  0.00     0.031 A 
ATOM     79  C   UNL A   1      37.980  33.138  34.873  1.00  0.00     0.074 A 
ATOM     80  C   UNL A   1      37.732  31.915  32.740  1.00  0.00     0.049 A 
ATOM     81  N   UNL A   1      39.125  32.668  35.301  1.00  0.00    -0.248 NA
ATOM     82  C   UNL A   1      37.367  34.133  35.767  1.00  0.00    -0.034 C 
ATOM     83  C   UNL A   1      37.127  31.552  31.458  1.00  0.00    -0.036 A 
ATOM     84  N   UNL A   1      38.867  31.146  32.800  1.00  0.00    -0.354 N 
ATOM     85  C   UNL A   1      39.372  33.314  36.506  1.00  0.00     0.074 A 
ATOM     86  C   UNL A   1      38.287  34.248  36.715  1.00  0.00    -0.034 C 
ATOM     87  H   UNL A   1      36.459  34.615  35.679  1.00  0.00     0.065 H 
ATOM     88  C   UNL A   1      37.890  30.625  30.858  1.00  0.00    -0.036 A 
ATOM     89  H   UNL A   1      36.253  31.947  31.076  1.00  0.00     0.065 H 
ATOM     90  C   UNL A   1      39.056  30.354  31.694  1.00  0.00     0.049 A 
ATOM     91  H   UNL A   1      39.489  31.160  33.564  1.00  0.00     0.167 HD
ATOM     92  C   UNL A   1      40.398  33.127  37.370  1.00  0.00     0.037 A 
ATOM     93  H   UNL A   1      38.235  34.915  37.499  1.00  0.00     0.065 H 
ATOM     94  H   UNL A   1      37.685  30.175  29.952  1.00  0.00     0.065 H 
ATOM     95  C   UNL A   1      40.062  29.515  31.381  1.00  0.00     0.037 A 
ATOM     96  C   UNL A   1      41.468  32.184  37.168  1.00  0.00     0.049 A 
ATOM     97  C   UNL A   1      41.195  29.333  32.355  1.00  0.00     0.074 A 
ATOM     98  C   UNL A   1      42.531  31.893  38.004  1.00  0.00    -0.036 A 
ATOM     99  N   UNL A   1      41.610  31.380  36.047  1.00  0.00    -0.354 N 
ATOM    100  N   UNL A   1      41.386  29.906  33.519  1.00  0.00    -0.248 NA
ATOM    101  C   UNL A   1      42.247  28.379  31.978  1.00  0.00    -0.034 C 
ATOM    102  C   UNL A   1      43.338  30.941  37.371  1.00  0.00    -0.036 A 
ATOM    103  H   UNL A   1      42.700  32.305  38.935  1.00  0.00     0.065 H 
ATOM    104  C   UNL A   1      42.750  30.603  36.163  1.00  0.00     0.049 A 
ATOM    105  H   UNL A   1      40.990  31.364  35.281  1.00  0.00     0.167 HD
ATOM    106  C   UNL A   1      42.562  29.367  34.021  1.00  0.00     0.074 A 
ATOM    107  C   UNL A   1      43.031  28.406  33.045  1.00  0.00    -0.034 C 
ATOM    108  H   UNL A   1      42.349  27.833  31.108  1.00  0.00     0.065 H 
ATOM    109  H   UNL A   1      44.220  30.555  37.742  1.00  0.00     0.065 H 
ATOM    110  C   UNL A   1      43.198  29.644  35.186  1.00  0.00     0.037 A 
ATOM    111  H   UNL A   1      43.870  27.816  33.167  1.00  0.00     0.065 H 
BRANCH  92 112
ATOM    112  C   UNL A   1      40.410  33.951  38.625  1.00  0.00     0.064 A 
ATOM    113  C   UNL A   1      41.091  35.176  38.690  1.00  0.00     0.173 A 
ATOM    114  C   UNL A   1      39.694  33.538  39.760  1.00  0.00     0.173 A 
ATOM    115  F   UNL A   1      41.799  35.611  37.637  1.00  0.00    -0.203 F 
ATOM    116  C   UNL A   1      41.077  35.944  39.852  1.00  0.00     0.198 A 
ATOM    117  C   UNL A   1      39.658  34.323  40.909  1.00  0.00     0.198 A 
ATOM    118  F   UNL A   1      39.020  32.378  39.750  1.00  0.00    -0.203 F 
ATOM    119  F   UNL A   1      41.771  37.089  39.904  1.00  0.00    -0.200 F 
ATOM    120  C   UNL A   1      40.354  35.521  40.957  1.00  0.00     0.200 A 
ATOM    121  F   UNL A   1      38.947  33.920  41.972  1.00  0.00    -0.200 F 
ATOM    122  F   UNL A   1      40.332  36.267  42.070  1.00  0.00    -0.200 F 
ENDBRANCH  92 112
BRANCH  95 123
ATOM    123  C   UNL A   1      40.041  28.775  30.093  1.00  0.00     0.064 A 
ATOM    124  C   UNL A   1      39.437  27.513  29.995  1.00  0.00     0.173 A 
ATOM    125  C   UNL A   1      40.635  29.305  28.938  1.00  0.00     0.173 A 
ATOM    126  F   UNL A   1      38.873  26.955  31.077  1.00  0.00    -0.203 F 
ATOM    127  C   UNL A   1      39.451  26.799  28.798  1.00  0.00     0.198 A 
ATOM    128  C   UNL A   1      40.621  28.603  27.734  1.00  0.00     0.198 A 
ATOM    129  F   UNL A   1      41.219  30.511  28.976  1.00  0.00    -0.203 F 
ATOM    130  F   UNL A   1      38.913  25.573  28.747  1.00  0.00    -0.200 F 
ATOM    131  C   UNL A   1      40.039  27.347  27.668  1.00  0.00     0.200 A 
ATOM    132  F   UNL A   1      41.177  29.143  26.641  1.00  0.00    -0.200 F 
ATOM    133  F   UNL A   1      40.052  26.660  26.517  1.00  0.00    -0.200 F 
ENDBRANCH  95 123
BRANCH 110 134
ATOM    134  C   UNL A   1      44.451  28.874  35.486  1.00  0.00     0.064 A 
ATOM    135  C   UNL A   1      45.715  29.347  35.105  1.00  0.00     0.173 A 
ATOM    136  C   UNL A   1      44.388  27.665  36.196  1.00  0.00     0.173 A 
ATOM    137  F   UNL A   1      45.827  30.490  34.410  1.00  0.00    -0.203 F 
ATOM    138  C   UNL A   1      46.868  28.627  35.403  1.00  0.00     0.198 A 
ATOM    139  C   UNL A   1      45.546  26.962  36.518  1.00  0.00     0.198 A 
ATOM    140  F   UNL A   1      43.204  27.172  36.588  1.00  0.00    -0.203 F 
ATOM    141  F   UNL A   1      48.061  29.073  34.987  1.00  0.00    -0.200 F 
ATOM    142  C   UNL A   1      46.783  27.440  36.115  1.00  0.00     0.200 A 
ATOM    143  F   UNL A   1      45.463  25.823  37.218  1.00  0.00    -0.200 F 
ATOM    144  F   UNL A   1      47.895  26.751  36.407  1.00  0.00    -0.200 F 
ENDBRANCH 110 134
ENDBRANCH  75  78
ENDBRANCH  65  68
ENDBRANCH  61  64
ENDBRANCH  58  61
ENDBRANCH  55  58
ENDBRANCH  52  55
ENDBRANCH   1  52
TORSDOF 22
ENDMDL
MODEL 2
REMARK VINA RESULT:     -10.5      4.809     11.736
REMARK SMILES CCOc1cccc(OCC)c1-c1ccc([C@@H](C)C(=O)NCCCCCCNC(=O)c2ccc(-c3c4nc(c(-c5c(F)c(F)c(F)c(F)c5F)c5ccc([nH]5)c(-c5c(F)c(F)c(F)c(F)c5F)c5nc(c(-c6c(F)c(F)c(F)c(F)c6F)c6ccc3[nH]6)C=C5)C=C4)cc2)cc1F
REMARK SMILES IDX 23 1 22 4 21 7 19 8 20 9 17 11 16 13 13 14 14 15 95 16 15 17
REMARK SMILES IDX 94 19 96 20 12 23 4 24 5 25 6 26 8 28 7 29 3 32 2 33 1 36
REMARK SMILES IDX 9 40 10 41 11 44 18 48 24 52 25 55 26 58 27 61 28 64 29 65
REMARK SMILES IDX 30 67 31 68 32 69 93 70 33 71 92 73 34 75 35 78 36 79 86 80
REMARK SMILES IDX 37 81 91 82 85 83 87 84 38 85 90 86 84 88 83 90 39 92 71 95
REMARK SMILES IDX 51 96 70 97 52 98 55 99 69 100 88 101 53 102 54 104 68 106
REMARK SMILES IDX 89 107 56 110 40 112 41 113 49 114 42 115 43 116 47 117
REMARK SMILES IDX 50 118 44 119 45 120 48 121 46 122 72 123 73 124 81 125
REMARK SMILES IDX 74 126 75 127 79 128 82 129 76 130 77 131 80 132 78 133
REMARK SMILES IDX 57 134 58 135 66 136 59 137 60 138 64 139 67 140 61 141
REMARK SMILES IDX 62 142 65 143 63 144
REMARK H PARENT 23 2 23 3 22 5 22 6 21 10 17 12 14 18 15 21 94 22 5 27 6 30
REMARK H PARENT 7 31 2 34 2 35 1 37 1 38 1 39 10 42 10 43 11 45 11 46 11 47
REMARK H PARENT 18 49 18 50 18 51 24 53 24 54 25 56 25 57 26 59 26 60 27 62
REMARK H PARENT 27 63 28 66 32 72 93 74 33 76 92 77 91 87 85 89 87 91 90 93
REMARK H PARENT 84 94 52 103 55 105 88 108 53 109 89 111
REMARK Flexibility Score: inf
ROOT
ATOM      1  C   UNL A   1      43.972  22.950  29.715  1.00  0.00    -0.036 C 
ATOM      2  H   UNL A   1      43.775  21.974  30.104  1.00  0.00     0.028 H 
ATOM      3  H   UNL A   1      44.824  22.995  29.069  1.00  0.00     0.028 H 
ENDROOT
BRANCH   1   4
ATOM      4  C   UNL A   1      44.294  23.880  30.902  1.00  0.00     0.017 C 
ATOM      5  H   UNL A   1      45.352  24.028  30.951  1.00  0.00     0.049 H 
ATOM      6  H   UNL A   1      43.786  24.809  30.749  1.00  0.00     0.049 H 
BRANCH   4   7
ATOM      7  N   UNL A   1      43.835  23.310  32.163  1.00  0.00    -0.356 N 
ATOM      8  C   UNL A   1      43.982  23.640  33.476  1.00  0.00     0.227 C 
ATOM      9  O   UNL A   1      43.504  22.823  34.277  1.00  0.00    -0.274 OA
ATOM     10  H   UNL A   1      43.293  22.499  32.036  1.00  0.00     0.163 HD
BRANCH   8  11
ATOM     11  C   UNL A   1      44.673  24.909  34.026  1.00  0.00     0.060 C 
ATOM     12  H   UNL A   1      45.423  25.116  33.292  1.00  0.00     0.045 H 
BRANCH  11  13
ATOM     13  C   UNL A   1      43.791  26.146  34.051  1.00  0.00    -0.033 A 
ATOM     14  C   UNL A   1      42.244  28.535  33.996  1.00  0.00     0.025 A 
ATOM     15  C   UNL A   1      42.897  28.064  32.862  1.00  0.00    -0.051 A 
ATOM     16  C   UNL A   1      42.402  27.801  35.179  1.00  0.00     0.131 A 
ATOM     17  C   UNL A   1      43.553  26.848  32.879  1.00  0.00    -0.057 A 
ATOM     18  H   UNL A   1      42.891  28.629  31.999  1.00  0.00     0.063 H 
ATOM     19  C   UNL A   1      43.189  26.636  35.219  1.00  0.00    -0.022 A 
ATOM     20  F   UNL A   1      41.816  28.212  36.313  1.00  0.00    -0.206 F 
ATOM     21  H   UNL A   1      43.879  26.447  31.986  1.00  0.00     0.063 H 
ATOM     22  H   UNL A   1      43.325  26.140  36.113  1.00  0.00     0.066 H 
BRANCH  14  23
ATOM     23  C   UNL A   1      41.520  29.804  33.872  1.00  0.00     0.069 A 
ATOM     24  C   UNL A   1      40.103  29.734  33.790  1.00  0.00     0.130 A 
ATOM     25  C   UNL A   1      39.297  30.872  33.820  1.00  0.00    -0.019 A 
ATOM     26  C   UNL A   1      39.886  32.119  33.958  1.00  0.00    -0.055 A 
ATOM     27  H   UNL A   1      38.272  30.787  33.741  1.00  0.00     0.066 H 
ATOM     28  C   UNL A   1      42.110  31.084  33.997  1.00  0.00     0.130 A 
ATOM     29  C   UNL A   1      41.274  32.218  34.032  1.00  0.00    -0.019 A 
ATOM     30  H   UNL A   1      39.302  32.968  34.007  1.00  0.00     0.063 H 
ATOM     31  H   UNL A   1      41.704  33.152  34.115  1.00  0.00     0.066 H 
BRANCH  24  32
ATOM     32  O   UNL A   1      39.499  28.512  33.599  1.00  0.00    -0.493 OA
BRANCH  32  33
ATOM     33  C   UNL A   1      39.276  28.197  32.221  1.00  0.00     0.085 C 
ATOM     34  H   UNL A   1      39.714  28.953  31.604  1.00  0.00     0.070 H 
ATOM     35  H   UNL A   1      39.722  27.252  31.988  1.00  0.00     0.070 H 
BRANCH  33  36
ATOM     36  C   UNL A   1      37.778  28.136  31.966  1.00  0.00    -0.031 C 
ATOM     37  H   UNL A   1      37.264  27.974  32.891  1.00  0.00     0.027 H 
ATOM     38  H   UNL A   1      37.563  27.331  31.294  1.00  0.00     0.027 H 
ATOM     39  H   UNL A   1      37.451  29.058  31.534  1.00  0.00     0.027 H 
ENDBRANCH  33  36
ENDBRANCH  32  33
ENDBRANCH  24  32
BRANCH  28  40
ATOM     40  O   UNL A   1      43.420  31.477  34.078  1.00  0.00    -0.493 OA
BRANCH  40  41
ATOM     41  C   UNL A   1      44.336  31.061  35.079  1.00  0.00     0.085 C 
ATOM     42  H   UNL A   1      43.837  30.409  35.764  1.00  0.00     0.070 H 
ATOM     43  H   UNL A   1      44.704  31.925  35.592  1.00  0.00     0.070 H 
BRANCH  41  44
ATOM     44  C   UNL A   1      45.514  30.323  34.454  1.00  0.00    -0.031 C 
ATOM     45  H   UNL A   1      46.429  30.701  34.862  1.00  0.00     0.027 H 
ATOM     46  H   UNL A   1      45.508  30.471  33.395  1.00  0.00     0.027 H 
ATOM     47  H   UNL A   1      45.433  29.277  34.669  1.00  0.00     0.027 H 
ENDBRANCH  41  44
ENDBRANCH  40  41
ENDBRANCH  28  40
ENDBRANCH  14  23
ENDBRANCH  11  13
BRANCH  11  48
ATOM     48  C   UNL A   1      45.443  24.699  35.327  1.00  0.00    -0.049 C 
ATOM     49  H   UNL A   1      45.962  25.598  35.584  1.00  0.00     0.024 H 
ATOM     50  H   UNL A   1      46.148  23.904  35.200  1.00  0.00     0.024 H 
ATOM     51  H   UNL A   1      44.758  24.447  36.109  1.00  0.00     0.024 H 
ENDBRANCH  11  48
ENDBRANCH   8  11
ENDBRANCH   4   7
ENDBRANCH   1   4
BRANCH   1  52
ATOM     52  C   UNL A   1      42.777  23.362  28.857  1.00  0.00    -0.052 C 
ATOM     53  H   UNL A   1      42.566  24.392  29.055  1.00  0.00     0.027 H 
ATOM     54  H   UNL A   1      41.976  22.706  29.125  1.00  0.00     0.027 H 
BRANCH  52  55
ATOM     55  C   UNL A   1      42.980  23.198  27.349  1.00  0.00    -0.052 C 
ATOM     56  H   UNL A   1      44.030  23.108  27.167  1.00  0.00     0.027 H 
ATOM     57  H   UNL A   1      42.533  24.062  26.901  1.00  0.00     0.027 H 
BRANCH  55  58
ATOM     58  C   UNL A   1      42.286  21.992  26.707  1.00  0.00    -0.036 C 
ATOM     59  H   UNL A   1      42.983  21.180  26.690  1.00  0.00     0.028 H 
ATOM     60  H   UNL A   1      41.976  22.312  25.734  1.00  0.00     0.028 H 
BRANCH  58  61
ATOM     61  C   UNL A   1      41.019  21.512  27.416  1.00  0.00     0.018 C 
ATOM     62  H   UNL A   1      40.887  22.083  28.311  1.00  0.00     0.049 H 
ATOM     63  H   UNL A   1      41.138  20.471  27.634  1.00  0.00     0.049 H 
BRANCH  61  64
ATOM     64  N   UNL A   1      39.836  21.663  26.582  1.00  0.00    -0.352 N 
ATOM     65  C   UNL A   1      39.009  22.743  26.414  1.00  0.00     0.251 C 
ATOM     66  H   UNL A   1      39.592  20.866  26.059  1.00  0.00     0.163 HD
ATOM     67  O   UNL A   1      37.924  22.603  25.847  1.00  0.00    -0.269 OA
BRANCH  65  68
ATOM     68  C   UNL A   1      39.402  24.078  26.912  1.00  0.00     0.039 A 
ATOM     69  C   UNL A   1      39.121  24.415  28.240  1.00  0.00    -0.049 A 
ATOM     70  C   UNL A   1      40.002  25.014  26.064  1.00  0.00    -0.049 A 
ATOM     71  C   UNL A   1      39.495  25.667  28.733  1.00  0.00    -0.053 A 
ATOM     72  H   UNL A   1      38.638  23.741  28.853  1.00  0.00     0.063 H 
ATOM     73  C   UNL A   1      40.431  26.238  26.575  1.00  0.00    -0.053 A 
ATOM     74  H   UNL A   1      40.126  24.800  25.063  1.00  0.00     0.063 H 
ATOM     75  C   UNL A   1      40.181  26.578  27.913  1.00  0.00    -0.014 A 
ATOM     76  H   UNL A   1      39.264  25.925  29.706  1.00  0.00     0.063 H 
ATOM     77  H   UNL A   1      40.937  26.898  25.965  1.00  0.00     0.063 H 
BRANCH  75  78
ATOM     78  C   UNL A   1      40.646  27.888  28.439  1.00  0.00     0.031 A 
ATOM     79  C   UNL A   1      42.096  28.098  28.778  1.00  0.00     0.074 A 
ATOM     80  C   UNL A   1      39.750  28.867  28.670  1.00  0.00     0.049 A 
ATOM     81  N   UNL A   1      42.677  29.136  29.323  1.00  0.00    -0.248 NA
ATOM     82  C   UNL A   1      43.010  26.982  28.487  1.00  0.00    -0.034 C 
ATOM     83  C   UNL A   1      38.311  28.770  28.423  1.00  0.00    -0.036 A 
ATOM     84  N   UNL A   1      39.916  30.130  29.180  1.00  0.00    -0.354 N 
ATOM     85  C   UNL A   1      44.018  28.797  29.448  1.00  0.00     0.074 A 
ATOM     86  C   UNL A   1      44.156  27.437  28.972  1.00  0.00    -0.034 C 
ATOM     87  H   UNL A   1      42.811  26.080  28.026  1.00  0.00     0.065 H 
ATOM     88  C   UNL A   1      37.726  29.927  28.772  1.00  0.00    -0.036 A 
ATOM     89  H   UNL A   1      37.823  27.944  28.043  1.00  0.00     0.065 H 
ATOM     90  C   UNL A   1      38.741  30.834  29.300  1.00  0.00     0.049 A 
ATOM     91  H   UNL A   1      40.792  30.499  29.435  1.00  0.00     0.167 HD
ATOM     92  C   UNL A   1      45.044  29.559  29.896  1.00  0.00     0.037 A 
ATOM     93  H   UNL A   1      45.033  26.895  29.005  1.00  0.00     0.065 H 
ATOM     94  H   UNL A   1      36.721  30.142  28.681  1.00  0.00     0.065 H 
ATOM     95  C   UNL A   1      38.508  32.065  29.794  1.00  0.00     0.037 A 
ATOM     96  C   UNL A   1      44.908  30.918  30.353  1.00  0.00     0.049 A 
ATOM     97  C   UNL A   1      39.665  32.887  30.294  1.00  0.00     0.074 A 
ATOM     98  C   UNL A   1      45.893  31.786  30.788  1.00  0.00    -0.036 A 
ATOM     99  N   UNL A   1      43.705  31.605  30.435  1.00  0.00    -0.354 N 
ATOM    100  N   UNL A   1      40.937  32.576  30.351  1.00  0.00    -0.248 NA
ATOM    101  C   UNL A   1      39.356  34.236  30.790  1.00  0.00    -0.034 C 
ATOM    102  C   UNL A   1      45.283  32.985  31.170  1.00  0.00    -0.036 A 
ATOM    103  H   UNL A   1      46.905  31.584  30.824  1.00  0.00     0.065 H 
ATOM    104  C   UNL A   1      43.923  32.881  30.927  1.00  0.00     0.049 A 
ATOM    105  H   UNL A   1      42.827  31.240  30.180  1.00  0.00     0.167 HD
ATOM    106  C   UNL A   1      41.581  33.695  30.863  1.00  0.00     0.074 A 
ATOM    107  C   UNL A   1      40.561  34.699  31.082  1.00  0.00    -0.034 C 
ATOM    108  H   UNL A   1      38.438  34.700  30.885  1.00  0.00     0.065 H 
ATOM    109  H   UNL A   1      45.764  33.808  31.565  1.00  0.00     0.065 H 
ATOM    110  C   UNL A   1      42.898  33.873  31.130  1.00  0.00     0.037 A 
ATOM    111  H   UNL A   1      40.751  35.655  31.423  1.00  0.00     0.065 H 
BRANCH  92 112
ATOM    112  C   UNL A   1      46.415  28.946  29.903  1.00  0.00     0.064 A 
ATOM    113  C   UNL A   1      46.909  28.270  31.030  1.00  0.00     0.173 A 
ATOM    114  C   UNL A   1      47.226  28.990  28.758  1.00  0.00     0.173 A 
ATOM    115  F   UNL A   1      46.178  28.209  32.153  1.00  0.00    -0.203 F 
ATOM    116  C   UNL A   1      48.173  27.685  31.019  1.00  0.00     0.198 A 
ATOM    117  C   UNL A   1      48.476  28.377  28.742  1.00  0.00     0.198 A 
ATOM    118  F   UNL A   1      46.800  29.617  27.652  1.00  0.00    -0.203 F 
ATOM    119  F   UNL A   1      48.640  27.084  32.122  1.00  0.00    -0.200 F 
ATOM    120  C   UNL A   1      48.952  27.732  29.873  1.00  0.00     0.200 A 
ATOM    121  F   UNL A   1      49.222  28.412  27.629  1.00  0.00    -0.200 F 
ATOM    122  F   UNL A   1      50.162  27.159  29.861  1.00  0.00    -0.200 F 
ENDBRANCH  92 112
BRANCH  95 123
ATOM    123  C   UNL A   1      37.122  32.601  29.832  1.00  0.00     0.064 A 
ATOM    124  C   UNL A   1      36.591  33.309  28.743  1.00  0.00     0.173 A 
ATOM    125  C   UNL A   1      36.305  32.431  30.959  1.00  0.00     0.173 A 
ATOM    126  F   UNL A   1      37.341  33.514  27.649  1.00  0.00    -0.203 F 
ATOM    127  C   UNL A   1      35.307  33.847  28.791  1.00  0.00     0.198 A 
ATOM    128  C   UNL A   1      35.010  32.944  30.993  1.00  0.00     0.198 A 
ATOM    129  F   UNL A   1      36.761  31.756  32.024  1.00  0.00    -0.203 F 
ATOM    130  F   UNL A   1      34.845  34.562  27.757  1.00  0.00    -0.200 F 
ATOM    131  C   UNL A   1      34.516  33.660  29.914  1.00  0.00     0.200 A 
ATOM    132  F   UNL A   1      34.243  32.747  32.075  1.00  0.00    -0.200 F 
ATOM    133  F   UNL A   1      33.281  34.178  29.960  1.00  0.00    -0.200 F 
ENDBRANCH  95 123
BRANCH 110 134
ATOM    134  C   UNL A   1      43.318  35.215  31.655  1.00  0.00     0.064 A 
ATOM    135  C   UNL A   1      43.723  36.247  30.797  1.00  0.00     0.173 A 
ATOM    136  C   UNL A   1      43.279  35.481  33.032  1.00  0.00     0.173 A 
ATOM    137  F   UNL A   1      43.793  36.038  29.474  1.00  0.00    -0.203 F 
ATOM    138  C   UNL A   1      44.096  37.490  31.301  1.00  0.00     0.198 A 
ATOM    139  C   UNL A   1      43.624  36.734  33.530  1.00  0.00     0.198 A 
ATOM    140  F   UNL A   1      42.893  34.528  33.894  1.00  0.00    -0.203 F 
ATOM    141  F   UNL A   1      44.526  38.448  30.467  1.00  0.00    -0.200 F 
ATOM    142  C   UNL A   1      44.040  37.735  32.665  1.00  0.00     0.200 A 
ATOM    143  F   UNL A   1      43.556  36.972  34.846  1.00  0.00    -0.200 F 
ATOM    144  F   UNL A   1      44.393  38.934  33.147  1.00  0.00    -0.200 F 
ENDBRANCH 110 134
ENDBRANCH  75  78
ENDBRANCH  65  68
ENDBRANCH  61  64
ENDBRANCH  58  61
ENDBRANCH  55  58
ENDBRANCH  52  55
ENDBRANCH   1  52
TORSDOF 22
ENDMDL
MODEL 3
REMARK VINA RESULT:     -10.5      0.674      2.223
REMARK SMILES CCOc1cccc(OCC)c1-c1ccc([C@@H](C)C(=O)NCCCCCCNC(=O)c2ccc(-c3c4nc(c(-c5c(F)c(F)c(F)c(F)c5F)c5ccc([nH]5)c(-c5c(F)c(F)c(F)c(F)c5F)c5nc(c(-c6c(F)c(F)c(F)c(F)c6F)c6ccc3[nH]6)C=C5)C=C4)cc2)cc1F
REMARK SMILES IDX 23 1 22 4 21 7 19 8 20 9 17 11 16 13 13 14 14 15 95 16 15 17
REMARK SMILES IDX 94 19 96 20 12 23 4 24 5 25 6 26 8 28 7 29 3 32 2 33 1 36
REMARK SMILES IDX 9 40 10 41 11 44 18 48 24 52 25 55 26 58 27 61 28 64 29 65
REMARK SMILES IDX 30 67 31 68 32 69 93 70 33 71 92 73 34 75 35 78 36 79 86 80
REMARK SMILES IDX 37 81 91 82 85 83 87 84 38 85 90 86 84 88 83 90 39 92 71 95
REMARK SMILES IDX 51 96 70 97 52 98 55 99 69 100 88 101 53 102 54 104 68 106
REMARK SMILES IDX 89 107 56 110 40 112 41 113 49 114 42 115 43 116 47 117
REMARK SMILES IDX 50 118 44 119 45 120 48 121 46 122 72 123 73 124 81 125
REMARK SMILES IDX 74 126 75 127 79 128 82 129 76 130 77 131 80 132 78 133
REMARK SMILES IDX 57 134 58 135 66 136 59 137 60 138 64 139 67 140 61 141
REMARK SMILES IDX 62 142 65 143 63 144
REMARK H PARENT 23 2 23 3 22 5 22 6 21 10 17 12 14 18 15 21 94 22 5 27 6 30
REMARK H PARENT 7 31 2 34 2 35 1 37 1 38 1 39 10 42 10 43 11 45 11 46 11 47
REMARK H PARENT 18 49 18 50 18 51 24 53 24 54 25 56 25 57 26 59 26 60 27 62
REMARK H PARENT 27 63 28 66 32 72 93 74 33 76 92 77 91 87 85 89 87 91 90 93
REMARK H PARENT 84 94 52 103 55 105 88 108 53 109 89 111
REMARK Flexibility Score: inf
ROOT
ATOM      1  C   UNL A   1      34.409  33.012  29.276  1.00  0.00    -0.036 C 
ATOM      2  H   UNL A   1      34.979  32.363  29.907  1.00  0.00     0.028 H 
ATOM      3  H   UNL A   1      33.494  33.348  29.715  1.00  0.00     0.028 H 
ENDROOT
BRANCH   1   4
ATOM      4  C   UNL A   1      34.006  32.217  28.017  1.00  0.00     0.017 C 
ATOM      5  H   UNL A   1      32.965  31.979  28.075  1.00  0.00     0.049 H 
ATOM      6  H   UNL A   1      34.211  32.821  27.158  1.00  0.00     0.049 H 
BRANCH   4   7
ATOM      7  N   UNL A   1      34.771  30.982  27.900  1.00  0.00    -0.356 N 
ATOM      8  C   UNL A   1      34.605  29.809  27.228  1.00  0.00     0.227 C 
ATOM      9  O   UNL A   1      35.457  28.942  27.472  1.00  0.00    -0.274 OA
ATOM     10  H   UNL A   1      35.599  30.999  28.431  1.00  0.00     0.163 HD
BRANCH   8  11
ATOM     11  C   UNL A   1      33.479  29.488  26.218  1.00  0.00     0.060 C 
ATOM     12  H   UNL A   1      33.819  29.956  25.318  1.00  0.00     0.045 H 
BRANCH  11  13
ATOM     13  C   UNL A   1      33.344  28.015  25.872  1.00  0.00    -0.033 A 
ATOM     14  C   UNL A   1      33.084  25.297  25.066  1.00  0.00     0.025 A 
ATOM     15  C   UNL A   1      33.822  26.210  24.320  1.00  0.00    -0.051 A 
ATOM     16  C   UNL A   1      32.446  25.776  26.218  1.00  0.00     0.131 A 
ATOM     17  C   UNL A   1      34.028  27.497  24.782  1.00  0.00    -0.057 A 
ATOM     18  H   UNL A   1      34.221  25.924  23.413  1.00  0.00     0.063 H 
ATOM     19  C   UNL A   1      32.547  27.124  26.604  1.00  0.00    -0.022 A 
ATOM     20  F   UNL A   1      31.702  24.952  26.970  1.00  0.00    -0.206 F 
ATOM     21  H   UNL A   1      34.715  28.094  24.297  1.00  0.00     0.063 H 
ATOM     22  H   UNL A   1      32.031  27.460  27.432  1.00  0.00     0.066 H 
BRANCH  14  23
ATOM     23  C   UNL A   1      32.969  23.936  24.533  1.00  0.00     0.069 A 
ATOM     24  C   UNL A   1      32.183  23.767  23.361  1.00  0.00     0.130 A 
ATOM     25  C   UNL A   1      32.118  22.554  22.675  1.00  0.00    -0.019 A 
ATOM     26  C   UNL A   1      32.859  21.475  23.130  1.00  0.00    -0.055 A 
ATOM     27  H   UNL A   1      31.524  22.460  21.836  1.00  0.00     0.066 H 
ATOM     28  C   UNL A   1      33.709  22.823  24.996  1.00  0.00     0.130 A 
ATOM     29  C   UNL A   1      33.631  21.610  24.283  1.00  0.00    -0.019 A 
ATOM     30  H   UNL A   1      32.841  20.578  22.620  1.00  0.00     0.063 H 
ATOM     31  H   UNL A   1      34.165  20.796  24.625  1.00  0.00     0.066 H 
BRANCH  24  32
ATOM     32  O   UNL A   1      31.397  24.808  22.920  1.00  0.00    -0.493 OA
BRANCH  32  33
ATOM     33  C   UNL A   1      30.090  24.820  23.504  1.00  0.00     0.085 C 
ATOM     34  H   UNL A   1      29.378  24.441  22.800  1.00  0.00     0.070 H 
ATOM     35  H   UNL A   1      30.079  24.203  24.379  1.00  0.00     0.070 H 
BRANCH  33  36
ATOM     36  C   UNL A   1      29.730  26.249  23.876  1.00  0.00    -0.031 C 
ATOM     37  H   UNL A   1      28.912  26.243  24.567  1.00  0.00     0.027 H 
ATOM     38  H   UNL A   1      29.447  26.787  22.995  1.00  0.00     0.027 H 
ATOM     39  H   UNL A   1      30.575  26.724  24.328  1.00  0.00     0.027 H 
ENDBRANCH  33  36
ENDBRANCH  32  33
ENDBRANCH  24  32
BRANCH  28  40
ATOM     40  O   UNL A   1      34.527  22.665  26.082  1.00  0.00    -0.493 OA
BRANCH  40  41
ATOM     41  C   UNL A   1      35.927  22.437  26.023  1.00  0.00     0.085 C 
ATOM     42  H   UNL A   1      36.128  21.661  25.314  1.00  0.00     0.070 H 
ATOM     43  H   UNL A   1      36.272  22.148  26.995  1.00  0.00     0.070 H 
BRANCH  41  44
ATOM     44  C   UNL A   1      36.660  23.704  25.600  1.00  0.00    -0.031 C 
ATOM     45  H   UNL A   1      37.194  24.104  26.437  1.00  0.00     0.027 H 
ATOM     46  H   UNL A   1      35.952  24.426  25.251  1.00  0.00     0.027 H 
ATOM     47  H   UNL A   1      37.349  23.471  24.815  1.00  0.00     0.027 H 
ENDBRANCH  41  44
ENDBRANCH  40  41
ENDBRANCH  28  40
ENDBRANCH  14  23
ENDBRANCH  11  13
BRANCH  11  48
ATOM     48  C   UNL A   1      32.141  30.153  26.527  1.00  0.00    -0.049 C 
ATOM     49  H   UNL A   1      32.200  30.653  27.471  1.00  0.00     0.024 H 
ATOM     50  H   UNL A   1      31.373  29.407  26.567  1.00  0.00     0.024 H 
ATOM     51  H   UNL A   1      31.910  30.862  25.761  1.00  0.00     0.024 H 
ENDBRANCH  11  48
ENDBRANCH   8  11
ENDBRANCH   4   7
ENDBRANCH   1   4
BRANCH   1  52
ATOM     52  C   UNL A   1      35.239  34.270  29.026  1.00  0.00    -0.052 C 
ATOM     53  H   UNL A   1      36.067  34.003  28.403  1.00  0.00     0.027 H 
ATOM     54  H   UNL A   1      35.532  34.632  29.989  1.00  0.00     0.027 H 
BRANCH  52  55
ATOM     55  C   UNL A   1      34.483  35.416  28.349  1.00  0.00    -0.052 C 
ATOM     56  H   UNL A   1      34.271  35.119  27.343  1.00  0.00     0.027 H 
ATOM     57  H   UNL A   1      35.123  36.270  28.426  1.00  0.00     0.027 H 
BRANCH  55  58
ATOM     58  C   UNL A   1      33.160  35.827  29.006  1.00  0.00    -0.036 C 
ATOM     59  H   UNL A   1      32.712  34.949  29.424  1.00  0.00     0.028 H 
ATOM     60  H   UNL A   1      32.576  36.282  28.235  1.00  0.00     0.028 H 
BRANCH  58  61
ATOM     61  C   UNL A   1      33.278  36.870  30.117  1.00  0.00     0.018 C 
ATOM     62  H   UNL A   1      33.099  37.839  29.701  1.00  0.00     0.049 H 
ATOM     63  H   UNL A   1      34.263  36.802  30.530  1.00  0.00     0.049 H 
BRANCH  61  64
ATOM     64  N   UNL A   1      32.324  36.636  31.190  1.00  0.00    -0.352 N 
ATOM     65  C   UNL A   1      32.347  35.714  32.204  1.00  0.00     0.251 C 
ATOM     66  H   UNL A   1      31.541  37.233  31.187  1.00  0.00     0.163 HD
ATOM     67  O   UNL A   1      31.333  35.516  32.876  1.00  0.00    -0.269 OA
BRANCH  65  68
ATOM     68  C   UNL A   1      33.574  34.945  32.497  1.00  0.00     0.039 A 
ATOM     69  C   UNL A   1      34.816  35.577  32.371  1.00  0.00    -0.049 A 
ATOM     70  C   UNL A   1      33.510  33.594  32.849  1.00  0.00    -0.049 A 
ATOM     71  C   UNL A   1      35.987  34.871  32.655  1.00  0.00    -0.053 A 
ATOM     72  H   UNL A   1      34.866  36.562  32.068  1.00  0.00     0.063 H 
ATOM     73  C   UNL A   1      34.675  32.910  33.194  1.00  0.00    -0.053 A 
ATOM     74  H   UNL A   1      32.603  33.104  32.853  1.00  0.00     0.063 H 
ATOM     75  C   UNL A   1      35.925  33.541  33.099  1.00  0.00    -0.014 A 
ATOM     76  H   UNL A   1      36.903  35.331  32.537  1.00  0.00     0.063 H 
ATOM     77  H   UNL A   1      34.617  31.933  33.522  1.00  0.00     0.063 H 
BRANCH  75  78
ATOM     78  C   UNL A   1      37.155  32.795  33.470  1.00  0.00     0.031 A 
ATOM     79  C   UNL A   1      37.876  33.110  34.751  1.00  0.00     0.074 A 
ATOM     80  C   UNL A   1      37.657  31.876  32.621  1.00  0.00     0.049 A 
ATOM     81  N   UNL A   1      39.006  32.630  35.207  1.00  0.00    -0.248 NA
ATOM     82  C   UNL A   1      37.257  34.119  35.626  1.00  0.00    -0.034 C 
ATOM     83  C   UNL A   1      37.074  31.512  31.329  1.00  0.00    -0.036 A 
ATOM     84  N   UNL A   1      38.781  31.095  32.711  1.00  0.00    -0.354 N 
ATOM     85  C   UNL A   1      39.235  33.281  36.412  1.00  0.00     0.074 A 
ATOM     86  C   UNL A   1      38.158  34.229  36.592  1.00  0.00    -0.034 C 
ATOM     87  H   UNL A   1      36.357  34.612  35.516  1.00  0.00     0.065 H 
ATOM     88  C   UNL A   1      37.838  30.572  30.752  1.00  0.00    -0.036 A 
ATOM     89  H   UNL A   1      36.213  31.915  30.927  1.00  0.00     0.065 H 
ATOM     90  C   UNL A   1      38.983  30.292  31.613  1.00  0.00     0.049 A 
ATOM     91  H   UNL A   1      39.387  31.105  33.487  1.00  0.00     0.167 HD
ATOM     92  C   UNL A   1      40.241  33.087  37.298  1.00  0.00     0.037 A 
ATOM     93  H   UNL A   1      38.098  34.902  37.371  1.00  0.00     0.065 H 
ATOM     94  H   UNL A   1      37.646  30.118  29.845  1.00  0.00     0.065 H 
ATOM     95  C   UNL A   1      39.985  29.440  31.327  1.00  0.00     0.037 A 
ATOM     96  C   UNL A   1      41.303  32.130  37.125  1.00  0.00     0.049 A 
ATOM     97  C   UNL A   1      41.095  29.250  32.326  1.00  0.00     0.074 A 
ATOM     98  C   UNL A   1      42.345  31.831  37.985  1.00  0.00    -0.036 A 
ATOM     99  N   UNL A   1      41.458  31.317  36.012  1.00  0.00    -0.354 N 
ATOM    100  N   UNL A   1      41.269  29.829  33.489  1.00  0.00    -0.248 NA
ATOM    101  C   UNL A   1      42.143  28.281  31.977  1.00  0.00    -0.034 C 
ATOM    102  C   UNL A   1      43.153  30.865  37.375  1.00  0.00    -0.036 A 
ATOM    103  H   UNL A   1      42.500  32.248  38.916  1.00  0.00     0.065 H 
ATOM    104  C   UNL A   1      42.586  30.527  36.157  1.00  0.00     0.049 A 
ATOM    105  H   UNL A   1      40.855  31.303  35.234  1.00  0.00     0.167 HD
ATOM    106  C   UNL A   1      42.428  29.278  34.020  1.00  0.00     0.074 A 
ATOM    107  C   UNL A   1      42.905  28.305  33.060  1.00  0.00    -0.034 C 
ATOM    108  H   UNL A   1      42.256  27.728  31.112  1.00  0.00     0.065 H 
ATOM    109  H   UNL A   1      44.022  30.471  37.767  1.00  0.00     0.065 H 
ATOM    110  C   UNL A   1      43.042  29.555  35.196  1.00  0.00     0.037 A 
ATOM    111  H   UNL A   1      43.734  27.706  33.203  1.00  0.00     0.065 H 
BRANCH  92 112
ATOM    112  C   UNL A   1      40.237  33.919  38.548  1.00  0.00     0.064 A 
ATOM    113  C   UNL A   1      40.912  35.148  38.612  1.00  0.00     0.173 A 
ATOM    114  C   UNL A   1      39.512  33.510  39.678  1.00  0.00     0.173 A 
ATOM    115  F   UNL A   1      41.628  35.579  37.562  1.00  0.00    -0.203 F 
ATOM    116  C   UNL A   1      40.883  35.923  39.769  1.00  0.00     0.198 A 
ATOM    117  C   UNL A   1      39.461  34.303  40.822  1.00  0.00     0.198 A 
ATOM    118  F   UNL A   1      38.843  32.347  39.669  1.00  0.00    -0.203 F 
ATOM    119  F   UNL A   1      41.572  37.072  39.820  1.00  0.00    -0.200 F 
ATOM    120  C   UNL A   1      40.151  35.504  40.869  1.00  0.00     0.200 A 
ATOM    121  F   UNL A   1      38.742  33.903  41.880  1.00  0.00    -0.200 F 
ATOM    122  F   UNL A   1      40.115  36.257  41.977  1.00  0.00    -0.200 F 
ENDBRANCH  92 112
BRANCH  95 123
ATOM    123  C   UNL A   1      39.982  28.691  30.044  1.00  0.00     0.064 A 
ATOM    124  C   UNL A   1      39.395  27.420  29.950  1.00  0.00     0.173 A 
ATOM    125  C   UNL A   1      40.576  29.221  28.889  1.00  0.00     0.173 A 
ATOM    126  F   UNL A   1      38.831  26.862  31.032  1.00  0.00    -0.203 F 
ATOM    127  C   UNL A   1      39.425  26.699  28.758  1.00  0.00     0.198 A 
ATOM    128  C   UNL A   1      40.579  28.512  27.690  1.00  0.00     0.198 A 
ATOM    129  F   UNL A   1      41.144  30.435  28.923  1.00  0.00    -0.203 F 
ATOM    130  F   UNL A   1      38.903  25.467  28.711  1.00  0.00    -0.200 F 
ATOM    131  C   UNL A   1      40.013  27.247  27.628  1.00  0.00     0.200 A 
ATOM    132  F   UNL A   1      41.134  29.052  26.596  1.00  0.00    -0.200 F 
ATOM    133  F   UNL A   1      40.042  26.553  26.481  1.00  0.00    -0.200 F 
ENDBRANCH  95 123
BRANCH 110 134
ATOM    134  C   UNL A   1      44.279  28.772  35.527  1.00  0.00     0.064 A 
ATOM    135  C   UNL A   1      44.218  27.562  36.232  1.00  0.00     0.173 A 
ATOM    136  C   UNL A   1      45.539  29.221  35.100  1.00  0.00     0.173 A 
ATOM    137  F   UNL A   1      43.039  27.098  36.677  1.00  0.00    -0.203 F 
ATOM    138  C   UNL A   1      45.374  26.841  36.519  1.00  0.00     0.198 A 
ATOM    139  C   UNL A   1      46.689  28.483  35.362  1.00  0.00     0.198 A 
ATOM    140  F   UNL A   1      45.651  30.370  34.417  1.00  0.00    -0.203 F 
ATOM    141  F   UNL A   1      45.297  25.712  37.236  1.00  0.00    -0.200 F 
ATOM    142  C   UNL A   1      46.607  27.298  36.078  1.00  0.00     0.200 A 
ATOM    143  F   UNL A   1      47.877  28.919  34.924  1.00  0.00    -0.200 F 
ATOM    144  F   UNL A   1      47.718  26.600  36.349  1.00  0.00    -0.200 F 
ENDBRANCH 110 134
ENDBRANCH  75  78
ENDBRANCH  65  68
ENDBRANCH  61  64
ENDBRANCH  58  61
ENDBRANCH  55  58
ENDBRANCH  52  55
ENDBRANCH   1  52
TORSDOF 22
ENDMDL
MODEL 4
REMARK VINA RESULT:     -10.5      4.439      9.196
REMARK SMILES CCOc1cccc(OCC)c1-c1ccc([C@@H](C)C(=O)NCCCCCCNC(=O)c2ccc(-c3c4nc(c(-c5c(F)c(F)c(F)c(F)c5F)c5ccc([nH]5)c(-c5c(F)c(F)c(F)c(F)c5F)c5nc(c(-c6c(F)c(F)c(F)c(F)c6F)c6ccc3[nH]6)C=C5)C=C4)cc2)cc1F
REMARK SMILES IDX 23 1 22 4 21 7 19 8 20 9 17 11 16 13 13 14 14 15 95 16 15 17
REMARK SMILES IDX 94 19 96 20 12 23 4 24 5 25 6 26 8 28 7 29 3 32 2 33 1 36
REMARK SMILES IDX 9 40 10 41 11 44 18 48 24 52 25 55 26 58 27 61 28 64 29 65
REMARK SMILES IDX 30 67 31 68 32 69 93 70 33 71 92 73 34 75 35 78 36 79 86 80
REMARK SMILES IDX 37 81 91 82 85 83 87 84 38 85 90 86 84 88 83 90 39 92 71 95
REMARK SMILES IDX 51 96 70 97 52 98 55 99 69 100 88 101 53 102 54 104 68 106
REMARK SMILES IDX 89 107 56 110 40 112 41 113 49 114 42 115 43 116 47 117
REMARK SMILES IDX 50 118 44 119 45 120 48 121 46 122 72 123 73 124 81 125
REMARK SMILES IDX 74 126 75 127 79 128 82 129 76 130 77 131 80 132 78 133
REMARK SMILES IDX 57 134 58 135 66 136 59 137 60 138 64 139 67 140 61 141
REMARK SMILES IDX 62 142 65 143 63 144
REMARK H PARENT 23 2 23 3 22 5 22 6 21 10 17 12 14 18 15 21 94 22 5 27 6 30
REMARK H PARENT 7 31 2 34 2 35 1 37 1 38 1 39 10 42 10 43 11 45 11 46 11 47
REMARK H PARENT 18 49 18 50 18 51 24 53 24 54 25 56 25 57 26 59 26 60 27 62
REMARK H PARENT 27 63 28 66 32 72 93 74 33 76 92 77 91 87 85 89 87 91 90 93
REMARK H PARENT 84 94 52 103 55 105 88 108 53 109 89 111
REMARK Flexibility Score: inf
ROOT
ATOM      1  C   UNL A   1      36.336  31.863  32.172  1.00  0.00    -0.036 C 
ATOM      2  H   UNL A   1      35.972  32.584  32.874  1.00  0.00     0.028 H 
ATOM      3  H   UNL A   1      35.608  31.136  31.882  1.00  0.00     0.028 H 
ENDROOT
BRANCH   1   4
ATOM      4  C   UNL A   1      37.474  31.073  32.850  1.00  0.00     0.017 C 
ATOM      5  H   UNL A   1      37.399  30.044  32.567  1.00  0.00     0.049 H 
ATOM      6  H   UNL A   1      38.408  31.488  32.532  1.00  0.00     0.049 H 
BRANCH   4   7
ATOM      7  N   UNL A   1      37.400  31.172  34.302  1.00  0.00    -0.356 N 
ATOM      8  C   UNL A   1      38.312  31.310  35.304  1.00  0.00     0.227 C 
ATOM      9  O   UNL A   1      37.841  31.258  36.449  1.00  0.00    -0.274 OA
ATOM     10  H   UNL A   1      36.475  31.129  34.636  1.00  0.00     0.163 HD
BRANCH   8  11
ATOM     11  C   UNL A   1      39.834  31.522  35.129  1.00  0.00     0.060 C 
ATOM     12  H   UNL A   1      40.117  32.014  36.036  1.00  0.00     0.045 H 
BRANCH  11  13
ATOM     13  C   UNL A   1      40.649  30.240  35.102  1.00  0.00    -0.033 A 
ATOM     14  C   UNL A   1      42.048  27.764  34.990  1.00  0.00     0.025 A 
ATOM     15  C   UNL A   1      41.145  28.135  34.000  1.00  0.00    -0.051 A 
ATOM     16  C   UNL A   1      42.221  28.646  36.064  1.00  0.00     0.131 A 
ATOM     17  C   UNL A   1      40.557  29.386  34.013  1.00  0.00    -0.057 A 
ATOM     18  H   UNL A   1      40.912  27.470  33.246  1.00  0.00     0.063 H 
ATOM     19  C   UNL A   1      41.511  29.857  36.140  1.00  0.00    -0.022 A 
ATOM     20  F   UNL A   1      43.061  28.337  37.064  1.00  0.00    -0.206 F 
ATOM     21  H   UNL A   1      40.029  29.696  33.182  1.00  0.00     0.063 H 
ATOM     22  H   UNL A   1      41.624  30.467  36.964  1.00  0.00     0.066 H 
BRANCH  14  23
ATOM     23  C   UNL A   1      42.672  26.443  34.864  1.00  0.00     0.069 A 
ATOM     24  C   UNL A   1      41.907  25.324  35.293  1.00  0.00     0.130 A 
ATOM     25  C   UNL A   1      42.328  24.010  35.087  1.00  0.00    -0.019 A 
ATOM     26  C   UNL A   1      43.522  23.774  34.423  1.00  0.00    -0.055 A 
ATOM     27  H   UNL A   1      41.757  23.220  35.426  1.00  0.00     0.066 H 
ATOM     28  C   UNL A   1      43.896  26.189  34.201  1.00  0.00     0.130 A 
ATOM     29  C   UNL A   1      44.296  24.853  34.000  1.00  0.00    -0.019 A 
ATOM     30  H   UNL A   1      43.834  22.808  34.242  1.00  0.00     0.063 H 
ATOM     31  H   UNL A   1      45.193  24.667  33.524  1.00  0.00     0.066 H 
BRANCH  24  32
ATOM     32  O   UNL A   1      40.746  25.533  36.001  1.00  0.00    -0.493 OA
BRANCH  32  33
ATOM     33  C   UNL A   1      40.930  25.492  37.419  1.00  0.00     0.085 C 
ATOM     34  H   UNL A   1      41.702  24.792  37.662  1.00  0.00     0.070 H 
ATOM     35  H   UNL A   1      41.211  26.462  37.777  1.00  0.00     0.070 H 
BRANCH  33  36
ATOM     36  C   UNL A   1      39.626  25.061  38.074  1.00  0.00    -0.031 C 
ATOM     37  H   UNL A   1      39.624  23.998  38.199  1.00  0.00     0.027 H 
ATOM     38  H   UNL A   1      38.803  25.348  37.452  1.00  0.00     0.027 H 
ATOM     39  H   UNL A   1      39.533  25.533  39.029  1.00  0.00     0.027 H 
ENDBRANCH  33  36
ENDBRANCH  32  33
ENDBRANCH  24  32
BRANCH  28  40
ATOM     40  O   UNL A   1      44.847  27.034  33.695  1.00  0.00    -0.493 OA
BRANCH  40  41
ATOM     41  C   UNL A   1      45.524  28.038  34.436  1.00  0.00     0.085 C 
ATOM     42  H   UNL A   1      44.974  28.246  35.330  1.00  0.00     0.070 H 
ATOM     43  H   UNL A   1      45.599  28.920  33.834  1.00  0.00     0.070 H 
BRANCH  41  44
ATOM     44  C   UNL A   1      46.928  27.577  34.808  1.00  0.00    -0.031 C 
ATOM     45  H   UNL A   1      47.648  28.216  34.340  1.00  0.00     0.027 H 
ATOM     46  H   UNL A   1      47.073  26.571  34.474  1.00  0.00     0.027 H 
ATOM     47  H   UNL A   1      47.048  27.622  35.870  1.00  0.00     0.027 H 
ENDBRANCH  41  44
ENDBRANCH  40  41
ENDBRANCH  28  40
ENDBRANCH  14  23
ENDBRANCH  11  13
BRANCH  11  48
ATOM     48  C   UNL A   1      40.215  32.494  34.016  1.00  0.00    -0.049 C 
ATOM     49  H   UNL A   1      41.280  32.552  33.943  1.00  0.00     0.024 H 
ATOM     50  H   UNL A   1      39.819  33.463  34.239  1.00  0.00     0.024 H 
ATOM     51  H   UNL A   1      39.812  32.149  33.088  1.00  0.00     0.024 H 
ENDBRANCH  11  48
ENDBRANCH   8  11
ENDBRANCH   4   7
ENDBRANCH   1   4
BRANCH   1  52
ATOM     52  C   UNL A   1      36.717  32.606  30.893  1.00  0.00    -0.052 C 
ATOM     53  H   UNL A   1      36.779  31.890  30.099  1.00  0.00     0.027 H 
ATOM     54  H   UNL A   1      37.647  33.095  31.096  1.00  0.00     0.027 H 
BRANCH  52  55
ATOM     55  C   UNL A   1      35.738  33.704  30.469  1.00  0.00    -0.052 C 
ATOM     56  H   UNL A   1      36.280  34.417  29.884  1.00  0.00     0.027 H 
ATOM     57  H   UNL A   1      35.337  34.101  31.379  1.00  0.00     0.027 H 
BRANCH  55  58
ATOM     58  C   UNL A   1      34.530  33.243  29.647  1.00  0.00    -0.036 C 
ATOM     59  H   UNL A   1      33.915  34.097  29.455  1.00  0.00     0.028 H 
ATOM     60  H   UNL A   1      34.046  32.488  30.231  1.00  0.00     0.028 H 
BRANCH  58  61
ATOM     61  C   UNL A   1      34.862  32.589  28.306  1.00  0.00     0.018 C 
ATOM     62  H   UNL A   1      35.916  32.411  28.260  1.00  0.00     0.049 H 
ATOM     63  H   UNL A   1      34.547  33.254  27.529  1.00  0.00     0.049 H 
BRANCH  61  64
ATOM     64  N   UNL A   1      34.163  31.326  28.125  1.00  0.00    -0.352 N 
ATOM     65  C   UNL A   1      34.660  30.055  27.998  1.00  0.00     0.251 C 
ATOM     66  H   UNL A   1      33.182  31.395  28.088  1.00  0.00     0.163 HD
ATOM     67  O   UNL A   1      33.924  29.143  27.617  1.00  0.00    -0.269 OA
BRANCH  65  68
ATOM     68  C   UNL A   1      36.076  29.764  28.307  1.00  0.00     0.039 A 
ATOM     69  C   UNL A   1      36.406  29.268  29.572  1.00  0.00    -0.049 A 
ATOM     70  C   UNL A   1      37.083  30.022  27.372  1.00  0.00    -0.049 A 
ATOM     71  C   UNL A   1      37.736  28.976  29.879  1.00  0.00    -0.053 A 
ATOM     72  H   UNL A   1      35.667  29.120  30.277  1.00  0.00     0.063 H 
ATOM     73  C   UNL A   1      38.401  29.669  27.658  1.00  0.00    -0.053 A 
ATOM     74  H   UNL A   1      36.851  30.472  26.474  1.00  0.00     0.063 H 
ATOM     75  C   UNL A   1      38.742  29.145  28.913  1.00  0.00    -0.014 A 
ATOM     76  H   UNL A   1      37.982  28.634  30.821  1.00  0.00     0.063 H 
ATOM     77  H   UNL A   1      39.132  29.795  26.939  1.00  0.00     0.063 H 
BRANCH  75  78
ATOM     78  C   UNL A   1      40.153  28.776  29.199  1.00  0.00     0.031 A 
ATOM     79  C   UNL A   1      41.056  29.736  29.922  1.00  0.00     0.074 A 
ATOM     80  C   UNL A   1      40.637  27.601  28.750  1.00  0.00     0.049 A 
ATOM     81  N   UNL A   1      42.334  29.632  30.188  1.00  0.00    -0.248 NA
ATOM     82  C   UNL A   1      40.448  30.993  30.386  1.00  0.00    -0.034 C 
ATOM     83  C   UNL A   1      39.872  26.604  27.999  1.00  0.00    -0.036 A 
ATOM     84  N   UNL A   1      41.891  27.054  28.846  1.00  0.00    -0.354 N 
ATOM     85  C   UNL A   1      42.682  30.806  30.841  1.00  0.00     0.074 A 
ATOM     86  C   UNL A   1      41.496  31.634  30.883  1.00  0.00    -0.034 C 
ATOM     87  H   UNL A   1      39.463  31.297  30.337  1.00  0.00     0.065 H 
ATOM     88  C   UNL A   1      40.670  25.564  27.711  1.00  0.00    -0.036 A 
ATOM     89  H   UNL A   1      38.878  26.689  27.733  1.00  0.00     0.065 H 
ATOM     90  C   UNL A   1      42.009  25.834  28.224  1.00  0.00     0.049 A 
ATOM     91  H   UNL A   1      42.637  27.493  29.315  1.00  0.00     0.167 HD
ATOM     92  C   UNL A   1      43.876  31.153  31.377  1.00  0.00     0.037 A 
ATOM     93  H   UNL A   1      41.470  32.596  31.253  1.00  0.00     0.065 H 
ATOM     94  H   UNL A   1      40.382  24.710  27.209  1.00  0.00     0.065 H 
ATOM     95  C   UNL A   1      43.080  25.032  28.072  1.00  0.00     0.037 A 
ATOM     96  C   UNL A   1      45.052  30.320  31.349  1.00  0.00     0.049 A 
ATOM     97  C   UNL A   1      44.398  25.445  28.670  1.00  0.00     0.074 A 
ATOM     98  C   UNL A   1      46.297  30.565  31.900  1.00  0.00    -0.036 A 
ATOM     99  N   UNL A   1      45.124  29.079  30.733  1.00  0.00    -0.354 N 
ATOM    100  N   UNL A   1      44.699  26.533  29.337  1.00  0.00    -0.248 NA
ATOM    101  C   UNL A   1      45.523  24.515  28.503  1.00  0.00    -0.034 C 
ATOM    102  C   UNL A   1      47.135  29.490  31.584  1.00  0.00    -0.036 A 
ATOM    103  H   UNL A   1      46.562  31.397  32.450  1.00  0.00     0.065 H 
ATOM    104  C   UNL A   1      46.397  28.553  30.878  1.00  0.00     0.049 A 
ATOM    105  H   UNL A   1      44.380  28.638  30.263  1.00  0.00     0.167 HD
ATOM    106  C   UNL A   1      46.036  26.407  29.689  1.00  0.00     0.074 A 
ATOM    107  C   UNL A   1      46.483  25.128  29.179  1.00  0.00    -0.034 C 
ATOM    108  H   UNL A   1      45.556  23.618  27.992  1.00  0.00     0.065 H 
ATOM    109  H   UNL A   1      48.132  29.409  31.834  1.00  0.00     0.065 H 
ATOM    110  C   UNL A   1      46.823  27.274  30.373  1.00  0.00     0.037 A 
ATOM    111  H   UNL A   1      47.430  24.743  29.325  1.00  0.00     0.065 H 
BRANCH  92 112
ATOM    112  C   UNL A   1      43.974  32.489  32.055  1.00  0.00     0.064 A 
ATOM    113  C   UNL A   1      43.809  32.620  33.443  1.00  0.00     0.173 A 
ATOM    114  C   UNL A   1      44.282  33.645  31.320  1.00  0.00     0.173 A 
ATOM    115  F   UNL A   1      43.504  31.548  34.189  1.00  0.00    -0.203 F 
ATOM    116  C   UNL A   1      43.925  33.861  34.065  1.00  0.00     0.198 A 
ATOM    117  C   UNL A   1      44.426  34.878  31.950  1.00  0.00     0.198 A 
ATOM    118  F   UNL A   1      44.455  33.575  29.991  1.00  0.00    -0.203 F 
ATOM    119  F   UNL A   1      43.720  33.967  35.385  1.00  0.00    -0.200 F 
ATOM    120  C   UNL A   1      44.241  34.987  33.320  1.00  0.00     0.200 A 
ATOM    121  F   UNL A   1      44.745  35.963  31.231  1.00  0.00    -0.200 F 
ATOM    122  F   UNL A   1      44.362  36.177  33.922  1.00  0.00    -0.200 F 
ENDBRANCH  92 112
BRANCH  95 123
ATOM    123  C   UNL A   1      42.951  23.751  27.330  1.00  0.00     0.064 A 
ATOM    124  C   UNL A   1      42.485  22.591  27.967  1.00  0.00     0.173 A 
ATOM    125  C   UNL A   1      43.302  23.654  25.976  1.00  0.00     0.173 A 
ATOM    126  F   UNL A   1      42.155  22.628  29.267  1.00  0.00    -0.203 F 
ATOM    127  C   UNL A   1      42.401  21.379  27.284  1.00  0.00     0.198 A 
ATOM    128  C   UNL A   1      43.188  22.449  25.287  1.00  0.00     0.198 A 
ATOM    129  F   UNL A   1      43.746  24.735  25.318  1.00  0.00    -0.203 F 
ATOM    130  F   UNL A   1      42.002  20.276  27.931  1.00  0.00    -0.200 F 
ATOM    131  C   UNL A   1      42.747  21.310  25.944  1.00  0.00     0.200 A 
ATOM    132  F   UNL A   1      43.510  22.390  23.987  1.00  0.00    -0.200 F 
ATOM    133  F   UNL A   1      42.666  20.144  25.288  1.00  0.00    -0.200 F 
ENDBRANCH  95 123
BRANCH 110 134
ATOM    134  C   UNL A   1      48.240  26.853  30.639  1.00  0.00     0.064 A 
ATOM    135  C   UNL A   1      48.561  25.961  31.672  1.00  0.00     0.173 A 
ATOM    136  C   UNL A   1      49.283  27.322  29.827  1.00  0.00     0.173 A 
ATOM    137  F   UNL A   1      47.601  25.496  32.487  1.00  0.00    -0.203 F 
ATOM    138  C   UNL A   1      49.878  25.571  31.896  1.00  0.00     0.198 A 
ATOM    139  C   UNL A   1      50.595  26.907  30.035  1.00  0.00     0.198 A 
ATOM    140  F   UNL A   1      49.028  28.173  28.822  1.00  0.00    -0.203 F 
ATOM    141  F   UNL A   1      50.169  24.754  32.919  1.00  0.00    -0.200 F 
ATOM    142  C   UNL A   1      50.893  26.038  31.074  1.00  0.00     0.200 A 
ATOM    143  F   UNL A   1      51.572  27.349  29.231  1.00  0.00    -0.200 F 
ATOM    144  F   UNL A   1      52.159  25.656  31.287  1.00  0.00    -0.200 F 
ENDBRANCH 110 134
ENDBRANCH  75  78
ENDBRANCH  65  68
ENDBRANCH  61  64
ENDBRANCH  58  61
ENDBRANCH  55  58
ENDBRANCH  52  55
ENDBRANCH   1  52
TORSDOF 22
ENDMDL
MODEL 5
REMARK VINA RESULT:     -10.5      5.299     11.059
REMARK SMILES CCOc1cccc(OCC)c1-c1ccc([C@@H](C)C(=O)NCCCCCCNC(=O)c2ccc(-c3c4nc(c(-c5c(F)c(F)c(F)c(F)c5F)c5ccc([nH]5)c(-c5c(F)c(F)c(F)c(F)c5F)c5nc(c(-c6c(F)c(F)c(F)c(F)c6F)c6ccc3[nH]6)C=C5)C=C4)cc2)cc1F
REMARK SMILES IDX 23 1 22 4 21 7 19 8 20 9 17 11 16 13 13 14 14 15 95 16 15 17
REMARK SMILES IDX 94 19 96 20 12 23 4 24 5 25 6 26 8 28 7 29 3 32 2 33 1 36
REMARK SMILES IDX 9 40 10 41 11 44 18 48 24 52 25 55 26 58 27 61 28 64 29 65
REMARK SMILES IDX 30 67 31 68 32 69 93 70 33 71 92 73 34 75 35 78 36 79 86 80
REMARK SMILES IDX 37 81 91 82 85 83 87 84 38 85 90 86 84 88 83 90 39 92 71 95
REMARK SMILES IDX 51 96 70 97 52 98 55 99 69 100 88 101 53 102 54 104 68 106
REMARK SMILES IDX 89 107 56 110 40 112 41 113 49 114 42 115 43 116 47 117
REMARK SMILES IDX 50 118 44 119 45 120 48 121 46 122 72 123 73 124 81 125
REMARK SMILES IDX 74 126 75 127 79 128 82 129 76 130 77 131 80 132 78 133
REMARK SMILES IDX 57 134 58 135 66 136 59 137 60 138 64 139 67 140 61 141
REMARK SMILES IDX 62 142 65 143 63 144
REMARK H PARENT 23 2 23 3 22 5 22 6 21 10 17 12 14 18 15 21 94 22 5 27 6 30
REMARK H PARENT 7 31 2 34 2 35 1 37 1 38 1 39 10 42 10 43 11 45 11 46 11 47
REMARK H PARENT 18 49 18 50 18 51 24 53 24 54 25 56 25 57 26 59 26 60 27 62
REMARK H PARENT 27 63 28 66 32 72 93 74 33 76 92 77 91 87 85 89 87 91 90 93
REMARK H PARENT 84 94 52 103 55 105 88 108 53 109 89 111
REMARK Flexibility Score: inf
ROOT
ATOM      1  C   UNL A   1      41.253  32.747  34.573  1.00  0.00    -0.036 C 
ATOM      2  H   UNL A   1      42.269  32.419  34.636  1.00  0.00     0.028 H 
ATOM      3  H   UNL A   1      40.813  32.979  35.519  1.00  0.00     0.028 H 
ENDROOT
BRANCH   1   4
ATOM      4  C   UNL A   1      40.416  31.590  33.991  1.00  0.00     0.017 C 
ATOM      5  H   UNL A   1      39.868  31.948  33.145  1.00  0.00     0.049 H 
ATOM      6  H   UNL A   1      41.081  30.802  33.708  1.00  0.00     0.049 H 
BRANCH   4   7
ATOM      7  N   UNL A   1      39.478  31.065  34.975  1.00  0.00    -0.356 N 
ATOM      8  C   UNL A   1      38.431  31.581  35.677  1.00  0.00     0.227 C 
ATOM      9  O   UNL A   1      37.932  30.813  36.512  1.00  0.00    -0.274 OA
ATOM     10  H   UNL A   1      39.638  30.116  35.180  1.00  0.00     0.163 HD
BRANCH   8  11
ATOM     11  C   UNL A   1      37.838  33.000  35.517  1.00  0.00     0.060 C 
ATOM     12  H   UNL A   1      38.706  33.621  35.452  1.00  0.00     0.045 H 
BRANCH  11  13
ATOM     13  C   UNL A   1      37.090  33.227  34.214  1.00  0.00    -0.033 A 
ATOM     14  C   UNL A   1      35.650  33.802  31.827  1.00  0.00     0.025 A 
ATOM     15  C   UNL A   1      36.400  34.775  32.476  1.00  0.00    -0.051 A 
ATOM     16  C   UNL A   1      35.606  32.529  32.412  1.00  0.00     0.131 A 
ATOM     17  C   UNL A   1      37.180  34.453  33.572  1.00  0.00    -0.057 A 
ATOM     18  H   UNL A   1      36.377  35.749  32.136  1.00  0.00     0.063 H 
ATOM     19  C   UNL A   1      36.291  32.248  33.606  1.00  0.00    -0.022 A 
ATOM     20  F   UNL A   1      34.883  31.550  31.847  1.00  0.00    -0.206 F 
ATOM     21  H   UNL A   1      37.853  35.151  33.925  1.00  0.00     0.063 H 
ATOM     22  H   UNL A   1      36.205  31.316  34.039  1.00  0.00     0.066 H 
BRANCH  14  23
ATOM     23  C   UNL A   1      34.903  34.217  30.636  1.00  0.00     0.069 A 
ATOM     24  C   UNL A   1      33.714  34.966  30.849  1.00  0.00     0.130 A 
ATOM     25  C   UNL A   1      32.999  35.545  29.799  1.00  0.00    -0.019 A 
ATOM     26  C   UNL A   1      33.466  35.409  28.502  1.00  0.00    -0.055 A 
ATOM     27  H   UNL A   1      32.130  36.069  29.987  1.00  0.00     0.066 H 
ATOM     28  C   UNL A   1      35.361  34.073  29.305  1.00  0.00     0.130 A 
ATOM     29  C   UNL A   1      34.624  34.671  28.263  1.00  0.00    -0.019 A 
ATOM     30  H   UNL A   1      32.962  35.852  27.718  1.00  0.00     0.063 H 
ATOM     31  H   UNL A   1      34.954  34.559  27.292  1.00  0.00     0.066 H 
BRANCH  24  32
ATOM     32  O   UNL A   1      33.202  35.070  32.122  1.00  0.00    -0.493 OA
BRANCH  32  33
ATOM     33  C   UNL A   1      32.779  36.395  32.458  1.00  0.00     0.085 C 
ATOM     34  H   UNL A   1      32.695  36.983  31.568  1.00  0.00     0.070 H 
ATOM     35  H   UNL A   1      31.826  36.359  32.945  1.00  0.00     0.070 H 
BRANCH  33  36
ATOM     36  C   UNL A   1      33.808  37.021  33.387  1.00  0.00    -0.031 C 
ATOM     37  H   UNL A   1      34.092  37.982  33.010  1.00  0.00     0.027 H 
ATOM     38  H   UNL A   1      34.672  36.390  33.439  1.00  0.00     0.027 H 
ATOM     39  H   UNL A   1      33.387  37.131  34.364  1.00  0.00     0.027 H 
ENDBRANCH  33  36
ENDBRANCH  32  33
ENDBRANCH  24  32
BRANCH  28  40
ATOM     40  O   UNL A   1      36.438  33.409  28.782  1.00  0.00    -0.493 OA
BRANCH  40  41
ATOM     41  C   UNL A   1      37.796  33.768  28.986  1.00  0.00     0.085 C 
ATOM     42  H   UNL A   1      37.841  34.750  29.408  1.00  0.00     0.070 H 
ATOM     43  H   UNL A   1      38.305  33.747  28.045  1.00  0.00     0.070 H 
BRANCH  41  44
ATOM     44  C   UNL A   1      38.475  32.785  29.933  1.00  0.00    -0.031 C 
ATOM     45  H   UNL A   1      38.407  33.153  30.936  1.00  0.00     0.027 H 
ATOM     46  H   UNL A   1      39.503  32.679  29.660  1.00  0.00     0.027 H 
ATOM     47  H   UNL A   1      37.987  31.834  29.868  1.00  0.00     0.027 H 
ENDBRANCH  41  44
ENDBRANCH  40  41
ENDBRANCH  28  40
ENDBRANCH  14  23
ENDBRANCH  11  13
BRANCH  11  48
ATOM     48  C   UNL A   1      37.078  33.511  36.737  1.00  0.00    -0.049 C 
ATOM     49  H   UNL A   1      36.495  32.717  37.153  1.00  0.00     0.024 H 
ATOM     50  H   UNL A   1      36.431  34.313  36.444  1.00  0.00     0.024 H 
ATOM     51  H   UNL A   1      37.774  33.864  37.469  1.00  0.00     0.024 H 
ENDBRANCH  11  48
ENDBRANCH   8  11
ENDBRANCH   4   7
ENDBRANCH   1   4
BRANCH   1  52
ATOM     52  C   UNL A   1      41.230  34.047  33.772  1.00  0.00    -0.052 C 
ATOM     53  H   UNL A   1      40.407  34.002  33.089  1.00  0.00     0.027 H 
ATOM     54  H   UNL A   1      42.180  34.117  33.286  1.00  0.00     0.027 H 
BRANCH  52  55
ATOM     55  C   UNL A   1      41.083  35.319  34.612  1.00  0.00    -0.052 C 
ATOM     56  H   UNL A   1      40.604  35.051  35.530  1.00  0.00     0.027 H 
ATOM     57  H   UNL A   1      40.519  36.001  34.009  1.00  0.00     0.027 H 
BRANCH  55  58
ATOM     58  C   UNL A   1      42.386  36.048  34.956  1.00  0.00    -0.036 C 
ATOM     59  H   UNL A   1      43.073  35.329  35.351  1.00  0.00     0.028 H 
ATOM     60  H   UNL A   1      42.120  36.815  35.653  1.00  0.00     0.028 H 
BRANCH  58  61
ATOM     61  C   UNL A   1      43.066  36.760  33.787  1.00  0.00     0.018 C 
ATOM     62  H   UNL A   1      42.647  37.739  33.688  1.00  0.00     0.049 H 
ATOM     63  H   UNL A   1      42.901  36.176  32.905  1.00  0.00     0.049 H 
BRANCH  61  64
ATOM     64  N   UNL A   1      44.503  36.881  33.982  1.00  0.00    -0.352 N 
ATOM     65  C   UNL A   1      45.498  35.954  33.804  1.00  0.00     0.251 C 
ATOM     66  H   UNL A   1      44.807  37.765  34.289  1.00  0.00     0.163 HD
ATOM     67  O   UNL A   1      46.626  36.173  34.247  1.00  0.00    -0.269 OA
BRANCH  65  68
ATOM     68  C   UNL A   1      45.229  34.687  33.093  1.00  0.00     0.039 A 
ATOM     69  C   UNL A   1      45.277  34.672  31.695  1.00  0.00    -0.049 A 
ATOM     70  C   UNL A   1      44.885  33.527  33.793  1.00  0.00    -0.049 A 
ATOM     71  C   UNL A   1      45.039  33.481  31.004  1.00  0.00    -0.053 A 
ATOM     72  H   UNL A   1      45.488  35.538  31.176  1.00  0.00     0.063 H 
ATOM     73  C   UNL A   1      44.711  32.327  33.106  1.00  0.00    -0.053 A 
ATOM     74  H   UNL A   1      44.760  33.560  34.817  1.00  0.00     0.063 H 
ATOM     75  C   UNL A   1      44.784  32.292  31.706  1.00  0.00    -0.014 A 
ATOM     76  H   UNL A   1      45.050  33.477  29.972  1.00  0.00     0.063 H 
ATOM     77  H   UNL A   1      44.527  31.458  33.632  1.00  0.00     0.063 H 
BRANCH  75  78
ATOM     78  C   UNL A   1      44.594  31.003  30.991  1.00  0.00     0.031 A 
ATOM     79  C   UNL A   1      43.222  30.577  30.547  1.00  0.00     0.074 A 
ATOM     80  C   UNL A   1      45.650  30.188  30.799  1.00  0.00     0.049 A 
ATOM     81  N   UNL A   1      42.843  29.455  29.988  1.00  0.00    -0.248 NA
ATOM     82  C   UNL A   1      42.125  31.528  30.787  1.00  0.00    -0.034 C 
ATOM     83  C   UNL A   1      47.022  30.469  31.222  1.00  0.00    -0.036 A 
ATOM     84  N   UNL A   1      45.730  28.949  30.214  1.00  0.00    -0.354 N 
ATOM     85  C   UNL A   1      41.470  29.563  29.816  1.00  0.00     0.074 A 
ATOM     86  C   UNL A   1      41.072  30.835  30.380  1.00  0.00    -0.034 C 
ATOM     87  H   UNL A   1      42.166  32.485  31.171  1.00  0.00     0.065 H 
ATOM     88  C   UNL A   1      47.809  29.439  30.874  1.00  0.00    -0.036 A 
ATOM     89  H   UNL A   1      47.334  31.323  31.711  1.00  0.00     0.065 H 
ATOM     90  C   UNL A   1      46.994  28.410  30.237  1.00  0.00     0.049 A 
ATOM     91  H   UNL A   1      44.956  28.489  29.814  1.00  0.00     0.167 HD
ATOM     92  C   UNL A   1      40.622  28.691  29.221  1.00  0.00     0.037 A 
ATOM     93  H   UNL A   1      40.096  31.159  30.453  1.00  0.00     0.065 H 
ATOM     94  H   UNL A   1      48.828  29.384  31.031  1.00  0.00     0.065 H 
ATOM     95  C   UNL A   1      47.441  27.215  29.806  1.00  0.00     0.037 A 
ATOM     96  C   UNL A   1      41.023  27.432  28.645  1.00  0.00     0.049 A 
ATOM     97  C   UNL A   1      46.475  26.260  29.157  1.00  0.00     0.074 A 
ATOM     98  C   UNL A   1      40.245  26.498  27.984  1.00  0.00    -0.036 A 
ATOM     99  N   UNL A   1      42.317  26.933  28.664  1.00  0.00    -0.354 N 
ATOM    100  N   UNL A   1      45.188  26.399  28.947  1.00  0.00    -0.248 NA
ATOM    101  C   UNL A   1      47.026  24.986  28.675  1.00  0.00    -0.034 C 
ATOM    102  C   UNL A   1      41.061  25.415  27.638  1.00  0.00    -0.036 A 
ATOM    103  H   UNL A   1      39.237  26.585  27.781  1.00  0.00     0.065 H 
ATOM    104  C   UNL A   1      42.356  25.698  28.040  1.00  0.00     0.049 A 
ATOM    105  H   UNL A   1      43.093  27.390  29.062  1.00  0.00     0.167 HD
ATOM    106  C   UNL A   1      44.782  25.246  28.289  1.00  0.00     0.074 A 
ATOM    107  C   UNL A   1      45.962  24.426  28.117  1.00  0.00    -0.034 C 
ATOM    108  H   UNL A   1      47.989  24.622  28.751  1.00  0.00     0.065 H 
ATOM    109  H   UNL A   1      40.750  24.554  27.164  1.00  0.00     0.065 H 
ATOM    110  C   UNL A   1      43.542  24.898  27.868  1.00  0.00     0.037 A 
ATOM    111  H   UNL A   1      45.973  23.520  27.622  1.00  0.00     0.065 H 
BRANCH  92 112
ATOM    112  C   UNL A   1      39.171  29.070  29.149  1.00  0.00     0.064 A 
ATOM    113  C   UNL A   1      38.580  29.478  27.943  1.00  0.00     0.173 A 
ATOM    114  C   UNL A   1      38.349  28.980  30.283  1.00  0.00     0.173 A 
ATOM    115  F   UNL A   1      39.323  29.591  26.832  1.00  0.00    -0.203 F 
ATOM    116  C   UNL A   1      37.227  29.805  27.881  1.00  0.00     0.198 A 
ATOM    117  C   UNL A   1      36.991  29.279  30.210  1.00  0.00     0.198 A 
ATOM    118  F   UNL A   1      38.861  28.589  31.460  1.00  0.00    -0.203 F 
ATOM    119  F   UNL A   1      36.696  30.234  26.728  1.00  0.00    -0.200 F 
ATOM    120  C   UNL A   1      36.433  29.697  29.013  1.00  0.00     0.200 A 
ATOM    121  F   UNL A   1      36.222  29.161  31.302  1.00  0.00    -0.200 F 
ATOM    122  F   UNL A   1      35.130  30.002  28.949  1.00  0.00    -0.200 F 
ENDBRANCH  92 112
BRANCH  95 123
ATOM    123  C   UNL A   1      48.874  26.856  29.965  1.00  0.00     0.064 A 
ATOM    124  C   UNL A   1      49.827  27.247  29.013  1.00  0.00     0.173 A 
ATOM    125  C   UNL A   1      49.319  26.102  31.061  1.00  0.00     0.173 A 
ATOM    126  F   UNL A   1      49.447  27.952  27.936  1.00  0.00    -0.203 F 
ATOM    127  C   UNL A   1      51.164  26.878  29.138  1.00  0.00     0.198 A 
ATOM    128  C   UNL A   1      50.663  25.760  31.201  1.00  0.00     0.198 A 
ATOM    129  F   UNL A   1      48.451  25.709  32.004  1.00  0.00    -0.203 F 
ATOM    130  F   UNL A   1      52.043  27.221  28.187  1.00  0.00    -0.200 F 
ATOM    131  C   UNL A   1      51.582  26.139  30.234  1.00  0.00     0.200 A 
ATOM    132  F   UNL A   1      51.065  25.058  32.270  1.00  0.00    -0.200 F 
ATOM    133  F   UNL A   1      52.869  25.783  30.355  1.00  0.00    -0.200 F 
ENDBRANCH  95 123
BRANCH 110 134
ATOM    134  C   UNL A   1      43.403  23.588  27.148  1.00  0.00     0.064 A 
ATOM    135  C   UNL A   1      43.858  23.419  25.832  1.00  0.00     0.173 A 
ATOM    136  C   UNL A   1      42.840  22.478  27.797  1.00  0.00     0.173 A 
ATOM    137  F   UNL A   1      44.388  24.454  25.162  1.00  0.00    -0.203 F 
ATOM    138  C   UNL A   1      43.733  22.194  25.184  1.00  0.00     0.198 A 
ATOM    139  C   UNL A   1      42.745  21.246  27.156  1.00  0.00     0.198 A 
ATOM    140  F   UNL A   1      42.396  22.586  29.058  1.00  0.00    -0.203 F 
ATOM    141  F   UNL A   1      44.131  22.068  23.910  1.00  0.00    -0.200 F 
ATOM    142  C   UNL A   1      43.184  21.107  25.848  1.00  0.00     0.200 A 
ATOM    143  F   UNL A   1      42.227  20.195  27.804  1.00  0.00    -0.200 F 
ATOM    144  F   UNL A   1      43.071  19.926  25.225  1.00  0.00    -0.200 F 
ENDBRANCH 110 134
ENDBRANCH  75  78
ENDBRANCH  65  68
ENDBRANCH  61  64
ENDBRANCH  58  61
ENDBRANCH  55  58
ENDBRANCH  52  55
ENDBRANCH   1  52
TORSDOF 22
ENDMDL
MODEL 6
REMARK VINA RESULT:     -10.4      6.412     12.160
REMARK SMILES CCOc1cccc(OCC)c1-c1ccc([C@@H](C)C(=O)NCCCCCCNC(=O)c2ccc(-c3c4nc(c(-c5c(F)c(F)c(F)c(F)c5F)c5ccc([nH]5)c(-c5c(F)c(F)c(F)c(F)c5F)c5nc(c(-c6c(F)c(F)c(F)c(F)c6F)c6ccc3[nH]6)C=C5)C=C4)cc2)cc1F
REMARK SMILES IDX 23 1 22 4 21 7 19 8 20 9 17 11 16 13 13 14 14 15 95 16 15 17
REMARK SMILES IDX 94 19 96 20 12 23 4 24 5 25 6 26 8 28 7 29 3 32 2 33 1 36
REMARK SMILES IDX 9 40 10 41 11 44 18 48 24 52 25 55 26 58 27 61 28 64 29 65
REMARK SMILES IDX 30 67 31 68 32 69 93 70 33 71 92 73 34 75 35 78 36 79 86 80
REMARK SMILES IDX 37 81 91 82 85 83 87 84 38 85 90 86 84 88 83 90 39 92 71 95
REMARK SMILES IDX 51 96 70 97 52 98 55 99 69 100 88 101 53 102 54 104 68 106
REMARK SMILES IDX 89 107 56 110 40 112 41 113 49 114 42 115 43 116 47 117
REMARK SMILES IDX 50 118 44 119 45 120 48 121 46 122 72 123 73 124 81 125
REMARK SMILES IDX 74 126 75 127 79 128 82 129 76 130 77 131 80 132 78 133
REMARK SMILES IDX 57 134 58 135 66 136 59 137 60 138 64 139 67 140 61 141
REMARK SMILES IDX 62 142 65 143 63 144
REMARK H PARENT 23 2 23 3 22 5 22 6 21 10 17 12 14 18 15 21 94 22 5 27 6 30
REMARK H PARENT 7 31 2 34 2 35 1 37 1 38 1 39 10 42 10 43 11 45 11 46 11 47
REMARK H PARENT 18 49 18 50 18 51 24 53 24 54 25 56 25 57 26 59 26 60 27 62
REMARK H PARENT 27 63 28 66 32 72 93 74 33 76 92 77 91 87 85 89 87 91 90 93
REMARK H PARENT 84 94 52 103 55 105 88 108 53 109 89 111
REMARK Flexibility Score: inf
ROOT
ATOM      1  C   UNL A   1      40.087  23.287  27.064  1.00  0.00    -0.036 C 
ATOM      2  H   UNL A   1      40.277  23.544  28.085  1.00  0.00     0.028 H 
ATOM      3  H   UNL A   1      40.736  23.772  26.367  1.00  0.00     0.028 H 
ENDROOT
BRANCH   1   4
ATOM      4  C   UNL A   1      38.661  23.759  26.713  1.00  0.00     0.017 C 
ATOM      5  H   UNL A   1      37.993  23.453  27.489  1.00  0.00     0.049 H 
ATOM      6  H   UNL A   1      38.674  24.825  26.618  1.00  0.00     0.049 H 
BRANCH   4   7
ATOM      7  N   UNL A   1      38.210  23.193  25.448  1.00  0.00    -0.356 N 
ATOM      8  C   UNL A   1      37.066  22.593  25.017  1.00  0.00     0.227 C 
ATOM      9  O   UNL A   1      37.112  22.152  23.859  1.00  0.00    -0.274 OA
ATOM     10  H   UNL A   1      38.891  23.260  24.740  1.00  0.00     0.163 HD
BRANCH   8  11
ATOM     11  C   UNL A   1      35.761  22.428  25.829  1.00  0.00     0.060 C 
ATOM     12  H   UNL A   1      36.095  22.500  26.843  1.00  0.00     0.045 H 
BRANCH  11  13
ATOM     13  C   UNL A   1      34.765  23.563  25.659  1.00  0.00    -0.033 A 
ATOM     14  C   UNL A   1      33.025  25.790  25.319  1.00  0.00     0.025 A 
ATOM     15  C   UNL A   1      34.199  25.665  24.585  1.00  0.00    -0.051 A 
ATOM     16  C   UNL A   1      32.745  24.787  26.257  1.00  0.00     0.131 A 
ATOM     17  C   UNL A   1      34.977  24.526  24.684  1.00  0.00    -0.057 A 
ATOM     18  H   UNL A   1      34.494  26.431  23.960  1.00  0.00     0.063 H 
ATOM     19  C   UNL A   1      33.616  23.701  26.450  1.00  0.00    -0.022 A 
ATOM     20  F   UNL A   1      31.639  24.858  27.012  1.00  0.00    -0.206 F 
ATOM     21  H   UNL A   1      35.743  24.388  24.007  1.00  0.00     0.063 H 
ATOM     22  H   UNL A   1      33.408  23.000  27.179  1.00  0.00     0.066 H 
BRANCH  14  23
ATOM     23  C   UNL A   1      32.229  27.003  25.106  1.00  0.00     0.069 A 
ATOM     24  C   UNL A   1      32.583  28.149  25.868  1.00  0.00     0.130 A 
ATOM     25  C   UNL A   1      32.003  29.399  25.650  1.00  0.00    -0.019 A 
ATOM     26  C   UNL A   1      31.062  29.545  24.643  1.00  0.00    -0.055 A 
ATOM     27  H   UNL A   1      32.271  30.207  26.232  1.00  0.00     0.066 H 
ATOM     28  C   UNL A   1      31.256  27.162  24.091  1.00  0.00     0.130 A 
ATOM     29  C   UNL A   1      30.689  28.435  23.886  1.00  0.00    -0.019 A 
ATOM     30  H   UNL A   1      30.642  30.468  24.453  1.00  0.00     0.063 H 
ATOM     31  H   UNL A   1      29.973  28.550  23.151  1.00  0.00     0.066 H 
BRANCH  24  32
ATOM     32  O   UNL A   1      33.475  28.017  26.908  1.00  0.00    -0.493 OA
BRANCH  32  33
ATOM     33  C   UNL A   1      34.665  28.795  26.738  1.00  0.00     0.085 C 
ATOM     34  H   UNL A   1      35.524  28.178  26.901  1.00  0.00     0.070 H 
ATOM     35  H   UNL A   1      34.701  29.189  25.744  1.00  0.00     0.070 H 
BRANCH  33  36
ATOM     36  C   UNL A   1      34.657  29.935  27.745  1.00  0.00    -0.031 C 
ATOM     37  H   UNL A   1      33.658  30.302  27.860  1.00  0.00     0.027 H 
ATOM     38  H   UNL A   1      35.288  30.725  27.395  1.00  0.00     0.027 H 
ATOM     39  H   UNL A   1      35.017  29.581  28.688  1.00  0.00     0.027 H 
ENDBRANCH  33  36
ENDBRANCH  32  33
ENDBRANCH  24  32
BRANCH  28  40
ATOM     40  O   UNL A   1      30.699  26.266  23.218  1.00  0.00    -0.493 OA
BRANCH  40  41
ATOM     41  C   UNL A   1      29.923  25.137  23.591  1.00  0.00     0.085 C 
ATOM     42  H   UNL A   1      29.021  25.126  23.015  1.00  0.00     0.070 H 
ATOM     43  H   UNL A   1      29.695  25.204  24.634  1.00  0.00     0.070 H 
BRANCH  41  44
ATOM     44  C   UNL A   1      30.694  23.848  23.338  1.00  0.00    -0.031 C 
ATOM     45  H   UNL A   1      31.553  24.059  22.735  1.00  0.00     0.027 H 
ATOM     46  H   UNL A   1      30.065  23.149  22.829  1.00  0.00     0.027 H 
ATOM     47  H   UNL A   1      31.007  23.431  24.273  1.00  0.00     0.027 H 
ENDBRANCH  41  44
ENDBRANCH  40  41
ENDBRANCH  28  40
ENDBRANCH  14  23
ENDBRANCH  11  13
BRANCH  11  48
ATOM     48  C   UNL A   1      35.117  21.049  25.722  1.00  0.00    -0.049 C 
ATOM     49  H   UNL A   1      35.346  20.621  24.770  1.00  0.00     0.024 H 
ATOM     50  H   UNL A   1      34.056  21.142  25.825  1.00  0.00     0.024 H 
ATOM     51  H   UNL A   1      35.497  20.418  26.498  1.00  0.00     0.024 H 
ENDBRANCH  11  48
ENDBRANCH   8  11
ENDBRANCH   4   7
ENDBRANCH   1   4
BRANCH   1  52
ATOM     52  C   UNL A   1      40.346  21.790  26.902  1.00  0.00    -0.052 C 
ATOM     53  H   UNL A   1      40.422  21.577  25.856  1.00  0.00     0.027 H 
ATOM     54  H   UNL A   1      39.528  21.291  27.378  1.00  0.00     0.027 H 
BRANCH  52  55
ATOM     55  C   UNL A   1      41.617  21.279  27.586  1.00  0.00    -0.052 C 
ATOM     56  H   UNL A   1      41.418  21.206  28.634  1.00  0.00     0.027 H 
ATOM     57  H   UNL A   1      42.384  21.982  27.335  1.00  0.00     0.027 H 
BRANCH  55  58
ATOM     58  C   UNL A   1      42.131  19.915  27.110  1.00  0.00    -0.036 C 
ATOM     59  H   UNL A   1      41.567  19.156  27.609  1.00  0.00     0.028 H 
ATOM     60  H   UNL A   1      43.176  19.896  27.341  1.00  0.00     0.028 H 
BRANCH  58  61
ATOM     61  C   UNL A   1      42.029  19.667  25.605  1.00  0.00     0.018 C 
ATOM     62  H   UNL A   1      41.838  20.598  25.113  1.00  0.00     0.049 H 
ATOM     63  H   UNL A   1      41.233  18.971  25.439  1.00  0.00     0.049 H 
BRANCH  61  64
ATOM     64  N   UNL A   1      43.250  19.091  25.062  1.00  0.00    -0.352 N 
ATOM     65  C   UNL A   1      44.419  19.699  24.685  1.00  0.00     0.251 C 
ATOM     66  H   UNL A   1      43.233  18.114  24.947  1.00  0.00     0.163 HD
ATOM     67  O   UNL A   1      45.252  19.072  24.028  1.00  0.00    -0.269 OA
BRANCH  65  68
ATOM     68  C   UNL A   1      44.691  21.104  25.052  1.00  0.00     0.039 A 
ATOM     69  C   UNL A   1      44.369  22.116  24.142  1.00  0.00    -0.049 A 
ATOM     70  C   UNL A   1      45.304  21.425  26.267  1.00  0.00    -0.049 A 
ATOM     71  C   UNL A   1      44.606  23.452  24.475  1.00  0.00    -0.053 A 
ATOM     72  H   UNL A   1      43.957  21.877  23.227  1.00  0.00     0.063 H 
ATOM     73  C   UNL A   1      45.481  22.761  26.623  1.00  0.00    -0.053 A 
ATOM     74  H   UNL A   1      45.624  20.674  26.897  1.00  0.00     0.063 H 
ATOM     75  C   UNL A   1      45.136  23.787  25.732  1.00  0.00    -0.014 A 
ATOM     76  H   UNL A   1      44.391  24.196  23.793  1.00  0.00     0.063 H 
ATOM     77  H   UNL A   1      45.868  22.996  27.551  1.00  0.00     0.063 H 
BRANCH  75  78
ATOM     78  C   UNL A   1      45.333  25.205  26.130  1.00  0.00     0.031 A 
ATOM     79  C   UNL A   1      46.697  25.832  26.051  1.00  0.00     0.074 A 
ATOM     80  C   UNL A   1      44.294  25.908  26.623  1.00  0.00     0.049 A 
ATOM     81  N   UNL A   1      47.085  27.024  26.430  1.00  0.00    -0.248 NA
ATOM     82  C   UNL A   1      47.775  25.000  25.493  1.00  0.00    -0.034 C 
ATOM     83  C   UNL A   1      42.933  25.398  26.790  1.00  0.00    -0.036 A 
ATOM     84  N   UNL A   1      44.226  27.196  27.090  1.00  0.00    -0.354 N 
ATOM     85  C   UNL A   1      48.447  27.081  26.166  1.00  0.00     0.074 A 
ATOM     86  C   UNL A   1      48.831  25.788  25.644  1.00  0.00    -0.034 C 
ATOM     87  H   UNL A   1      47.723  24.052  25.089  1.00  0.00     0.065 H 
ATOM     88  C   UNL A   1      42.162  26.365  27.311  1.00  0.00    -0.036 A 
ATOM     89  H   UNL A   1      42.617  24.446  26.546  1.00  0.00     0.065 H 
ATOM     90  C   UNL A   1      42.980  27.550  27.549  1.00  0.00     0.049 A 
ATOM     91  H   UNL A   1      44.996  27.811  27.095  1.00  0.00     0.167 HD
ATOM     92  C   UNL A   1      49.294  28.126  26.321  1.00  0.00     0.037 A 
ATOM     93  H   UNL A   1      49.799  25.514  25.418  1.00  0.00     0.065 H 
ATOM     94  H   UNL A   1      41.153  26.284  27.511  1.00  0.00     0.065 H 
ATOM     95  C   UNL A   1      42.550  28.695  28.113  1.00  0.00     0.037 A 
ATOM     96  C   UNL A   1      48.907  29.419  26.825  1.00  0.00     0.049 A 
ATOM     97  C   UNL A   1      43.515  29.837  28.282  1.00  0.00     0.074 A 
ATOM     98  C   UNL A   1      49.683  30.553  26.981  1.00  0.00    -0.036 A 
ATOM     99  N   UNL A   1      47.629  29.747  27.254  1.00  0.00    -0.354 N 
ATOM    100  N   UNL A   1      44.788  29.899  27.973  1.00  0.00    -0.248 NA
ATOM    101  C   UNL A   1      42.983  31.074  28.871  1.00  0.00    -0.034 C 
ATOM    102  C   UNL A   1      48.885  31.556  27.543  1.00  0.00    -0.036 A 
ATOM    103  H   UNL A   1      50.679  30.645  26.726  1.00  0.00     0.065 H 
ATOM    104  C   UNL A   1      47.600  31.061  27.690  1.00  0.00     0.049 A 
ATOM    105  H   UNL A   1      46.857  29.135  27.251  1.00  0.00     0.167 HD
ATOM    106  C   UNL A   1      45.200  31.182  28.305  1.00  0.00     0.074 A 
ATOM    107  C   UNL A   1      44.038  31.873  28.821  1.00  0.00    -0.034 C 
ATOM    108  H   UNL A   1      42.034  31.269  29.230  1.00  0.00     0.065 H 
ATOM    109  H   UNL A   1      49.201  32.503  27.802  1.00  0.00     0.065 H 
ATOM    110  C   UNL A   1      46.432  31.738  28.192  1.00  0.00     0.037 A 
ATOM    111  H   UNL A   1      44.033  32.864  29.113  1.00  0.00     0.065 H 
BRANCH  92 112
ATOM    112  C   UNL A   1      50.730  27.922  25.930  1.00  0.00     0.064 A 
ATOM    113  C   UNL A   1      51.715  27.631  26.887  1.00  0.00     0.173 A 
ATOM    114  C   UNL A   1      51.119  27.970  24.582  1.00  0.00     0.173 A 
ATOM    115  F   UNL A   1      51.397  27.584  28.189  1.00  0.00    -0.203 F 
ATOM    116  C   UNL A   1      53.039  27.420  26.512  1.00  0.00     0.198 A 
ATOM    117  C   UNL A   1      52.439  27.729  24.209  1.00  0.00     0.198 A 
ATOM    118  F   UNL A   1      50.217  28.238  23.627  1.00  0.00    -0.203 F 
ATOM    119  F   UNL A   1      53.970  27.187  27.448  1.00  0.00    -0.200 F 
ATOM    120  C   UNL A   1      53.398  27.461  25.173  1.00  0.00     0.200 A 
ATOM    121  F   UNL A   1      52.782  27.756  22.913  1.00  0.00    -0.200 F 
ATOM    122  F   UNL A   1      54.671  27.248  24.813  1.00  0.00    -0.200 F 
ENDBRANCH  92 112
BRANCH  95 123
ATOM    123  C   UNL A   1      41.136  28.824  28.550  1.00  0.00     0.064 A 
ATOM    124  C   UNL A   1      40.125  29.158  27.636  1.00  0.00     0.173 A 
ATOM    125  C   UNL A   1      40.766  28.632  29.889  1.00  0.00     0.173 A 
ATOM    126  F   UNL A   1      40.432  29.371  26.347  1.00  0.00    -0.203 F 
ATOM    127  C   UNL A   1      38.804  29.319  28.050  1.00  0.00     0.198 A 
ATOM    128  C   UNL A   1      39.439  28.763  30.295  1.00  0.00     0.198 A 
ATOM    129  F   UNL A   1      41.692  28.304  30.801  1.00  0.00    -0.203 F 
ATOM    130  F   UNL A   1      37.869  29.688  27.165  1.00  0.00    -0.200 F 
ATOM    131  C   UNL A   1      38.462  29.117  29.378  1.00  0.00     0.200 A 
ATOM    132  F   UNL A   1      39.111  28.552  31.577  1.00  0.00    -0.200 F 
ATOM    133  F   UNL A   1      37.191  29.271  29.776  1.00  0.00    -0.200 F 
ENDBRANCH  95 123
BRANCH 110 134
ATOM    134  C   UNL A   1      46.578  33.174  28.604  1.00  0.00     0.064 A 
ATOM    135  C   UNL A   1      46.366  34.224  27.700  1.00  0.00     0.173 A 
ATOM    136  C   UNL A   1      46.901  33.502  29.930  1.00  0.00     0.173 A 
ATOM    137  F   UNL A   1      46.072  33.963  26.417  1.00  0.00    -0.203 F 
ATOM    138  C   UNL A   1      46.493  35.551  28.102  1.00  0.00     0.198 A 
ATOM    139  C   UNL A   1      46.997  34.830  30.336  1.00  0.00     0.198 A 
ATOM    140  F   UNL A   1      47.108  32.534  30.835  1.00  0.00    -0.203 F 
ATOM    141  F   UNL A   1      46.332  36.538  27.210  1.00  0.00    -0.200 F 
ATOM    142  C   UNL A   1      46.801  35.853  29.420  1.00  0.00     0.200 A 
ATOM    143  F   UNL A   1      47.282  35.119  31.612  1.00  0.00    -0.200 F 
ATOM    144  F   UNL A   1      46.916  37.130  29.807  1.00  0.00    -0.200 F 
ENDBRANCH 110 134
ENDBRANCH  75  78
ENDBRANCH  65  68
ENDBRANCH  61  64
ENDBRANCH  58  61
ENDBRANCH  55  58
ENDBRANCH  52  55
ENDBRANCH   1  52
TORSDOF 22
ENDMDL
MODEL 7
REMARK VINA RESULT:     -10.3      0.430      6.968
REMARK SMILES CCOc1cccc(OCC)c1-c1ccc([C@@H](C)C(=O)NCCCCCCNC(=O)c2ccc(-c3c4nc(c(-c5c(F)c(F)c(F)c(F)c5F)c5ccc([nH]5)c(-c5c(F)c(F)c(F)c(F)c5F)c5nc(c(-c6c(F)c(F)c(F)c(F)c6F)c6ccc3[nH]6)C=C5)C=C4)cc2)cc1F
REMARK SMILES IDX 23 1 22 4 21 7 19 8 20 9 17 11 16 13 13 14 14 15 95 16 15 17
REMARK SMILES IDX 94 19 96 20 12 23 4 24 5 25 6 26 8 28 7 29 3 32 2 33 1 36
REMARK SMILES IDX 9 40 10 41 11 44 18 48 24 52 25 55 26 58 27 61 28 64 29 65
REMARK SMILES IDX 30 67 31 68 32 69 93 70 33 71 92 73 34 75 35 78 36 79 86 80
REMARK SMILES IDX 37 81 91 82 85 83 87 84 38 85 90 86 84 88 83 90 39 92 71 95
REMARK SMILES IDX 51 96 70 97 52 98 55 99 69 100 88 101 53 102 54 104 68 106
REMARK SMILES IDX 89 107 56 110 40 112 41 113 49 114 42 115 43 116 47 117
REMARK SMILES IDX 50 118 44 119 45 120 48 121 46 122 72 123 73 124 81 125
REMARK SMILES IDX 74 126 75 127 79 128 82 129 76 130 77 131 80 132 78 133
REMARK SMILES IDX 57 134 58 135 66 136 59 137 60 138 64 139 67 140 61 141
REMARK SMILES IDX 62 142 65 143 63 144
REMARK H PARENT 23 2 23 3 22 5 22 6 21 10 17 12 14 18 15 21 94 22 5 27 6 30
REMARK H PARENT 7 31 2 34 2 35 1 37 1 38 1 39 10 42 10 43 11 45 11 46 11 47
REMARK H PARENT 18 49 18 50 18 51 24 53 24 54 25 56 25 57 26 59 26 60 27 62
REMARK H PARENT 27 63 28 66 32 72 93 74 33 76 92 77 91 87 85 89 87 91 90 93
REMARK H PARENT 84 94 52 103 55 105 88 108 53 109 89 111
REMARK Flexibility Score: inf
ROOT
ATOM      1  C   UNL A   1      34.693  32.879  29.220  1.00  0.00    -0.036 C 
ATOM      2  H   UNL A   1      35.679  32.553  29.477  1.00  0.00     0.028 H 
ATOM      3  H   UNL A   1      33.939  32.568  29.913  1.00  0.00     0.028 H 
ENDROOT
BRANCH   1   4
ATOM      4  C   UNL A   1      34.317  32.233  27.871  1.00  0.00     0.017 C 
ATOM      5  H   UNL A   1      33.266  32.031  27.863  1.00  0.00     0.049 H 
ATOM      6  H   UNL A   1      34.580  32.912  27.087  1.00  0.00     0.049 H 
BRANCH   4   7
ATOM      7  N   UNL A   1      35.041  30.986  27.657  1.00  0.00    -0.356 N 
ATOM      8  C   UNL A   1      34.746  29.791  27.074  1.00  0.00     0.227 C 
ATOM      9  O   UNL A   1      35.626  28.925  27.184  1.00  0.00    -0.274 OA
ATOM     10  H   UNL A   1      35.956  31.014  28.019  1.00  0.00     0.163 HD
BRANCH   8  11
ATOM     11  C   UNL A   1      33.447  29.445  26.310  1.00  0.00     0.060 C 
ATOM     12  H   UNL A   1      33.492  30.082  25.452  1.00  0.00     0.045 H 
BRANCH  11  13
ATOM     13  C   UNL A   1      33.401  28.032  25.753  1.00  0.00    -0.033 A 
ATOM     14  C   UNL A   1      33.381  25.333  24.848  1.00  0.00     0.025 A 
ATOM     15  C   UNL A   1      33.123  25.658  26.175  1.00  0.00    -0.051 A 
ATOM     16  C   UNL A   1      33.682  26.388  23.977  1.00  0.00     0.131 A 
ATOM     17  C   UNL A   1      33.030  26.978  26.574  1.00  0.00    -0.057 A 
ATOM     18  H   UNL A   1      32.999  24.905  26.870  1.00  0.00     0.063 H 
ATOM     19  C   UNL A   1      33.722  27.720  24.424  1.00  0.00    -0.022 A 
ATOM     20  F   UNL A   1      33.961  26.141  22.688  1.00  0.00    -0.206 F 
ATOM     21  H   UNL A   1      32.671  27.188  27.519  1.00  0.00     0.063 H 
ATOM     22  H   UNL A   1      33.990  28.473  23.771  1.00  0.00     0.066 H 
BRANCH  14  23
ATOM     23  C   UNL A   1      33.400  23.909  24.500  1.00  0.00     0.069 A 
ATOM     24  C   UNL A   1      34.656  23.246  24.565  1.00  0.00     0.130 A 
ATOM     25  C   UNL A   1      34.779  21.866  24.403  1.00  0.00    -0.019 A 
ATOM     26  C   UNL A   1      33.643  21.101  24.193  1.00  0.00    -0.055 A 
ATOM     27  H   UNL A   1      35.708  21.418  24.439  1.00  0.00     0.066 H 
ATOM     28  C   UNL A   1      32.249  23.119  24.270  1.00  0.00     0.130 A 
ATOM     29  C   UNL A   1      32.400  21.727  24.116  1.00  0.00    -0.019 A 
ATOM     30  H   UNL A   1      33.715  20.077  24.096  1.00  0.00     0.063 H 
ATOM     31  H   UNL A   1      31.561  21.151  23.940  1.00  0.00     0.066 H 
BRANCH  24  32
ATOM     32  O   UNL A   1      35.803  23.990  24.719  1.00  0.00    -0.493 OA
BRANCH  32  33
ATOM     33  C   UNL A   1      36.945  23.205  25.080  1.00  0.00     0.085 C 
ATOM     34  H   UNL A   1      36.625  22.253  25.449  1.00  0.00     0.070 H 
ATOM     35  H   UNL A   1      37.568  23.056  24.222  1.00  0.00     0.070 H 
BRANCH  33  36
ATOM     36  C   UNL A   1      37.724  23.937  26.162  1.00  0.00    -0.031 C 
ATOM     37  H   UNL A   1      38.288  23.231  26.735  1.00  0.00     0.027 H 
ATOM     38  H   UNL A   1      37.042  24.454  26.805  1.00  0.00     0.027 H 
ATOM     39  H   UNL A   1      38.389  24.641  25.708  1.00  0.00     0.027 H 
ENDBRANCH  33  36
ENDBRANCH  32  33
ENDBRANCH  24  32
BRANCH  28  40
ATOM     40  O   UNL A   1      30.928  23.455  24.138  1.00  0.00    -0.493 OA
BRANCH  40  41
ATOM     41  C   UNL A   1      30.417  24.416  23.226  1.00  0.00     0.085 C 
ATOM     42  H   UNL A   1      29.592  23.991  22.694  1.00  0.00     0.070 H 
ATOM     43  H   UNL A   1      31.194  24.692  22.544  1.00  0.00     0.070 H 
BRANCH  41  44
ATOM     44  C   UNL A   1      29.947  25.662  23.966  1.00  0.00    -0.031 C 
ATOM     45  H   UNL A   1      29.595  26.385  23.259  1.00  0.00     0.027 H 
ATOM     46  H   UNL A   1      30.762  26.075  24.523  1.00  0.00     0.027 H 
ATOM     47  H   UNL A   1      29.154  25.401  24.635  1.00  0.00     0.027 H 
ENDBRANCH  41  44
ENDBRANCH  40  41
ENDBRANCH  28  40
ENDBRANCH  14  23
ENDBRANCH  11  13
BRANCH  11  48
ATOM     48  C   UNL A   1      32.163  29.843  27.031  1.00  0.00    -0.049 C 
ATOM     49  H   UNL A   1      32.237  29.581  28.065  1.00  0.00     0.024 H 
ATOM     50  H   UNL A   1      31.333  29.329  26.591  1.00  0.00     0.024 H 
ATOM     51  H   UNL A   1      32.016  30.899  26.940  1.00  0.00     0.024 H 
ENDBRANCH  11  48
ENDBRANCH   8  11
ENDBRANCH   4   7
ENDBRANCH   1   4
BRANCH   1  52
ATOM     52  C   UNL A   1      34.681  34.406  29.248  1.00  0.00    -0.052 C 
ATOM     53  H   UNL A   1      35.569  34.754  28.761  1.00  0.00     0.027 H 
ATOM     54  H   UNL A   1      34.626  34.687  30.278  1.00  0.00     0.027 H 
BRANCH  52  55
ATOM     55  C   UNL A   1      33.476  35.053  28.561  1.00  0.00    -0.052 C 
ATOM     56  H   UNL A   1      32.603  34.505  28.847  1.00  0.00     0.027 H 
ATOM     57  H   UNL A   1      33.687  35.020  27.512  1.00  0.00     0.027 H 
BRANCH  55  58
ATOM     58  C   UNL A   1      33.232  36.531  28.889  1.00  0.00    -0.036 C 
ATOM     59  H   UNL A   1      32.208  36.753  28.672  1.00  0.00     0.028 H 
ATOM     60  H   UNL A   1      33.927  37.084  28.293  1.00  0.00     0.028 H 
BRANCH  58  61
ATOM     61  C   UNL A   1      33.506  36.933  30.338  1.00  0.00     0.018 C 
ATOM     62  H   UNL A   1      33.577  37.999  30.393  1.00  0.00     0.049 H 
ATOM     63  H   UNL A   1      34.420  36.467  30.642  1.00  0.00     0.049 H 
BRANCH  61  64
ATOM     64  N   UNL A   1      32.454  36.485  31.238  1.00  0.00    -0.352 N 
ATOM     65  C   UNL A   1      32.471  35.501  32.192  1.00  0.00     0.251 C 
ATOM     66  H   UNL A   1      31.598  36.962  31.146  1.00  0.00     0.163 HD
ATOM     67  O   UNL A   1      31.413  35.110  32.689  1.00  0.00    -0.269 OA
BRANCH  65  68
ATOM     68  C   UNL A   1      33.746  34.896  32.630  1.00  0.00     0.039 A 
ATOM     69  C   UNL A   1      33.749  33.573  33.081  1.00  0.00    -0.049 A 
ATOM     70  C   UNL A   1      34.929  35.642  32.641  1.00  0.00    -0.049 A 
ATOM     71  C   UNL A   1      34.946  32.979  33.487  1.00  0.00    -0.053 A 
ATOM     72  H   UNL A   1      32.868  33.036  33.114  1.00  0.00     0.063 H 
ATOM     73  C   UNL A   1      36.132  35.029  32.986  1.00  0.00    -0.053 A 
ATOM     74  H   UNL A   1      34.911  36.643  32.396  1.00  0.00     0.063 H 
ATOM     75  C   UNL A   1      36.153  33.693  33.414  1.00  0.00    -0.014 A 
ATOM     76  H   UNL A   1      34.943  32.011  33.844  1.00  0.00     0.063 H 
ATOM     77  H   UNL A   1      37.014  35.561  32.925  1.00  0.00     0.063 H 
BRANCH  75  78
ATOM     78  C   UNL A   1      37.446  33.057  33.778  1.00  0.00     0.031 A 
ATOM     79  C   UNL A   1      38.068  32.030  32.872  1.00  0.00     0.074 A 
ATOM     80  C   UNL A   1      38.028  33.360  34.955  1.00  0.00     0.049 A 
ATOM     81  N   UNL A   1      39.143  31.306  33.055  1.00  0.00    -0.248 NA
ATOM     82  C   UNL A   1      37.375  31.763  31.602  1.00  0.00    -0.034 C 
ATOM     83  C   UNL A   1      37.501  34.307  35.938  1.00  0.00    -0.036 A 
ATOM     84  N   UNL A   1      39.181  32.890  35.531  1.00  0.00    -0.354 N 
ATOM     85  C   UNL A   1      39.251  30.496  31.933  1.00  0.00     0.074 A 
ATOM     86  C   UNL A   1      38.103  30.777  31.098  1.00  0.00    -0.034 C 
ATOM     87  H   UNL A   1      36.540  32.223  31.207  1.00  0.00     0.065 H 
ATOM     88  C   UNL A   1      38.333  34.357  36.990  1.00  0.00    -0.036 A 
ATOM     89  H   UNL A   1      36.629  34.850  35.838  1.00  0.00     0.065 H 
ATOM     90  C   UNL A   1      39.431  33.420  36.774  1.00  0.00     0.049 A 
ATOM     91  H   UNL A   1      39.775  32.236  35.096  1.00  0.00     0.167 HD
ATOM     92  C   UNL A   1      40.230  29.616  31.616  1.00  0.00     0.037 A 
ATOM     93  H   UNL A   1      37.881  30.276  30.224  1.00  0.00     0.065 H 
ATOM     94  H   UNL A   1      38.215  34.960  37.819  1.00  0.00     0.065 H 
ATOM     95  C   UNL A   1      40.425  33.167  37.647  1.00  0.00     0.037 A 
ATOM     96  C   UNL A   1      41.381  29.351  32.440  1.00  0.00     0.049 A 
ATOM     97  C   UNL A   1      41.496  32.177  37.274  1.00  0.00     0.074 A 
ATOM     98  C   UNL A   1      42.448  28.507  32.188  1.00  0.00    -0.036 A 
ATOM     99  N   UNL A   1      41.612  29.927  33.681  1.00  0.00    -0.354 N 
ATOM    100  N   UNL A   1      41.617  31.461  36.182  1.00  0.00    -0.248 NA
ATOM    101  C   UNL A   1      42.574  31.967  38.250  1.00  0.00    -0.034 C 
ATOM    102  C   UNL A   1      43.306  28.543  33.293  1.00  0.00    -0.036 A 
ATOM    103  H   UNL A   1      42.589  27.948  31.331  1.00  0.00     0.065 H 
ATOM    104  C   UNL A   1      42.798  29.446  34.212  1.00  0.00     0.049 A 
ATOM    105  H   UNL A   1      41.022  30.582  34.119  1.00  0.00     0.167 HD
ATOM    106  C   UNL A   1      42.793  30.738  36.329  1.00  0.00     0.074 A 
ATOM    107  C   UNL A   1      43.359  31.116  37.607  1.00  0.00    -0.034 C 
ATOM    108  H   UNL A   1      42.689  32.376  39.191  1.00  0.00     0.065 H 
ATOM    109  H   UNL A   1      44.170  27.991  33.403  1.00  0.00     0.065 H 
ATOM    110  C   UNL A   1      43.352  29.840  35.481  1.00  0.00     0.037 A 
ATOM    111  H   UNL A   1      44.259  30.766  37.970  1.00  0.00     0.065 H 
BRANCH  92 112
ATOM    112  C   UNL A   1      40.110  28.880  30.313  1.00  0.00     0.064 A 
ATOM    113  C   UNL A   1      40.673  29.386  29.131  1.00  0.00     0.173 A 
ATOM    114  C   UNL A   1      39.467  27.633  30.251  1.00  0.00     0.173 A 
ATOM    115  F   UNL A   1      41.289  30.578  29.134  1.00  0.00    -0.203 F 
ATOM    116  C   UNL A   1      40.576  28.684  27.932  1.00  0.00     0.198 A 
ATOM    117  C   UNL A   1      39.399  26.921  29.057  1.00  0.00     0.198 A 
ATOM    118  F   UNL A   1      38.916  27.101  31.352  1.00  0.00    -0.203 F 
ATOM    119  F   UNL A   1      41.084  29.208  26.808  1.00  0.00    -0.200 F 
ATOM    120  C   UNL A   1      39.946  27.449  27.898  1.00  0.00     0.200 A 
ATOM    121  F   UNL A   1      38.802  25.721  29.028  1.00  0.00    -0.200 F 
ATOM    122  F   UNL A   1      39.864  26.770  26.746  1.00  0.00    -0.200 F 
ENDBRANCH  92 112
BRANCH  95 123
ATOM    123  C   UNL A   1      40.462  33.869  38.956  1.00  0.00     0.064 A 
ATOM    124  C   UNL A   1      39.725  33.395  40.052  1.00  0.00     0.173 A 
ATOM    125  C   UNL A   1      41.220  35.035  39.136  1.00  0.00     0.173 A 
ATOM    126  F   UNL A   1      38.969  32.294  39.923  1.00  0.00    -0.203 F 
ATOM    127  C   UNL A   1      39.727  34.074  41.268  1.00  0.00     0.198 A 
ATOM    128  C   UNL A   1      41.244  35.696  40.363  1.00  0.00     0.198 A 
ATOM    129  F   UNL A   1      41.948  35.527  38.123  1.00  0.00    -0.203 F 
ATOM    130  F   UNL A   1      38.973  33.627  42.282  1.00  0.00    -0.200 F 
ATOM    131  C   UNL A   1      40.490  35.221  41.424  1.00  0.00     0.200 A 
ATOM    132  F   UNL A   1      41.996  36.795  40.514  1.00  0.00    -0.200 F 
ATOM    133  F   UNL A   1      40.491  35.873  42.595  1.00  0.00    -0.200 F 
ENDBRANCH  95 123
BRANCH 110 134
ATOM    134  C   UNL A   1      44.660  29.229  35.893  1.00  0.00     0.064 A 
ATOM    135  C   UNL A   1      45.886  29.824  35.564  1.00  0.00     0.173 A 
ATOM    136  C   UNL A   1      44.684  28.052  36.656  1.00  0.00     0.173 A 
ATOM    137  F   UNL A   1      45.918  30.942  34.821  1.00  0.00    -0.203 F 
ATOM    138  C   UNL A   1      47.090  29.251  35.965  1.00  0.00     0.198 A 
ATOM    139  C   UNL A   1      45.889  27.498  37.081  1.00  0.00     0.198 A 
ATOM    140  F   UNL A   1      43.538  27.447  37.002  1.00  0.00    -0.203 F 
ATOM    141  F   UNL A   1      48.252  29.811  35.599  1.00  0.00    -0.200 F 
ATOM    142  C   UNL A   1      47.090  28.094  36.729  1.00  0.00     0.200 A 
ATOM    143  F   UNL A   1      45.886  26.388  37.830  1.00  0.00    -0.200 F 
ATOM    144  F   UNL A   1      48.249  27.547  37.120  1.00  0.00    -0.200 F 
ENDBRANCH 110 134
ENDBRANCH  75  78
ENDBRANCH  65  68
ENDBRANCH  61  64
ENDBRANCH  58  61
ENDBRANCH  55  58
ENDBRANCH  52  55
ENDBRANCH   1  52
TORSDOF 22
ENDMDL
MODEL 8
REMARK VINA RESULT:     -10.2      4.651     11.497
REMARK SMILES CCOc1cccc(OCC)c1-c1ccc([C@@H](C)C(=O)NCCCCCCNC(=O)c2ccc(-c3c4nc(c(-c5c(F)c(F)c(F)c(F)c5F)c5ccc([nH]5)c(-c5c(F)c(F)c(F)c(F)c5F)c5nc(c(-c6c(F)c(F)c(F)c(F)c6F)c6ccc3[nH]6)C=C5)C=C4)cc2)cc1F
REMARK SMILES IDX 23 1 22 4 21 7 19 8 20 9 17 11 16 13 13 14 14 15 95 16 15 17
REMARK SMILES IDX 94 19 96 20 12 23 4 24 5 25 6 26 8 28 7 29 3 32 2 33 1 36
REMARK SMILES IDX 9 40 10 41 11 44 18 48 24 52 25 55 26 58 27 61 28 64 29 65
REMARK SMILES IDX 30 67 31 68 32 69 93 70 33 71 92 73 34 75 35 78 36 79 86 80
REMARK SMILES IDX 37 81 91 82 85 83 87 84 38 85 90 86 84 88 83 90 39 92 71 95
REMARK SMILES IDX 51 96 70 97 52 98 55 99 69 100 88 101 53 102 54 104 68 106
REMARK SMILES IDX 89 107 56 110 40 112 41 113 49 114 42 115 43 116 47 117
REMARK SMILES IDX 50 118 44 119 45 120 48 121 46 122 72 123 73 124 81 125
REMARK SMILES IDX 74 126 75 127 79 128 82 129 76 130 77 131 80 132 78 133
REMARK SMILES IDX 57 134 58 135 66 136 59 137 60 138 64 139 67 140 61 141
REMARK SMILES IDX 62 142 65 143 63 144
REMARK H PARENT 23 2 23 3 22 5 22 6 21 10 17 12 14 18 15 21 94 22 5 27 6 30
REMARK H PARENT 7 31 2 34 2 35 1 37 1 38 1 39 10 42 10 43 11 45 11 46 11 47
REMARK H PARENT 18 49 18 50 18 51 24 53 24 54 25 56 25 57 26 59 26 60 27 62
REMARK H PARENT 27 63 28 66 32 72 93 74 33 76 92 77 91 87 85 89 87 91 90 93
REMARK H PARENT 84 94 52 103 55 105 88 108 53 109 89 111
REMARK Flexibility Score: inf
ROOT
ATOM      1  C   UNL A   1      44.033  23.133  29.925  1.00  0.00    -0.036 C 
ATOM      2  H   UNL A   1      44.060  22.136  30.312  1.00  0.00     0.028 H 
ATOM      3  H   UNL A   1      44.835  23.359  29.255  1.00  0.00     0.028 H 
ENDROOT
BRANCH   1   4
ATOM      4  C   UNL A   1      44.186  24.107  31.112  1.00  0.00     0.017 C 
ATOM      5  H   UNL A   1      45.226  24.302  31.269  1.00  0.00     0.049 H 
ATOM      6  H   UNL A   1      43.661  25.008  30.877  1.00  0.00     0.049 H 
BRANCH   4   7
ATOM      7  N   UNL A   1      43.618  23.551  32.333  1.00  0.00    -0.356 N 
ATOM      8  C   UNL A   1      43.721  23.841  33.660  1.00  0.00     0.227 C 
ATOM      9  O   UNL A   1      43.137  23.050  34.415  1.00  0.00    -0.274 OA
ATOM     10  H   UNL A   1      43.020  22.789  32.158  1.00  0.00     0.163 HD
BRANCH   8  11
ATOM     11  C   UNL A   1      44.481  25.039  34.275  1.00  0.00     0.060 C 
ATOM     12  H   UNL A   1      45.209  25.275  33.527  1.00  0.00     0.045 H 
BRANCH  11  13
ATOM     13  C   UNL A   1      43.650  26.301  34.430  1.00  0.00    -0.033 A 
ATOM     14  C   UNL A   1      41.961  28.579  34.673  1.00  0.00     0.025 A 
ATOM     15  C   UNL A   1      41.513  27.304  34.997  1.00  0.00    -0.051 A 
ATOM     16  C   UNL A   1      43.272  28.696  34.192  1.00  0.00     0.131 A 
ATOM     17  C   UNL A   1      42.377  26.225  34.977  1.00  0.00    -0.057 A 
ATOM     18  H   UNL A   1      40.524  27.161  35.256  1.00  0.00     0.063 H 
ATOM     19  C   UNL A   1      44.101  27.570  34.043  1.00  0.00    -0.022 A 
ATOM     20  F   UNL A   1      43.759  29.896  33.842  1.00  0.00    -0.206 F 
ATOM     21  H   UNL A   1      42.064  25.330  35.384  1.00  0.00     0.063 H 
ATOM     22  H   UNL A   1      45.046  27.679  33.645  1.00  0.00     0.066 H 
BRANCH  14  23
ATOM     23  C   UNL A   1      40.994  29.676  34.781  1.00  0.00     0.069 A 
ATOM     24  C   UNL A   1      41.152  30.571  35.873  1.00  0.00     0.130 A 
ATOM     25  C   UNL A   1      40.391  31.734  36.001  1.00  0.00    -0.019 A 
ATOM     26  C   UNL A   1      39.461  32.049  35.022  1.00  0.00    -0.055 A 
ATOM     27  H   UNL A   1      40.519  32.354  36.815  1.00  0.00     0.066 H 
ATOM     28  C   UNL A   1      40.031  30.001  33.797  1.00  0.00     0.130 A 
ATOM     29  C   UNL A   1      39.279  31.184  33.945  1.00  0.00    -0.019 A 
ATOM     30  H   UNL A   1      38.909  32.918  35.090  1.00  0.00     0.063 H 
ATOM     31  H   UNL A   1      38.571  31.417  33.231  1.00  0.00     0.066 H 
BRANCH  24  32
ATOM     32  O   UNL A   1      42.030  30.253  36.884  1.00  0.00    -0.493 OA
BRANCH  32  33
ATOM     33  C   UNL A   1      42.855  31.351  37.287  1.00  0.00     0.085 C 
ATOM     34  H   UNL A   1      42.603  32.219  36.714  1.00  0.00     0.070 H 
ATOM     35  H   UNL A   1      42.699  31.560  38.325  1.00  0.00     0.070 H 
BRANCH  33  36
ATOM     36  C   UNL A   1      44.312  30.987  37.048  1.00  0.00    -0.031 C 
ATOM     37  H   UNL A   1      44.777  30.743  37.981  1.00  0.00     0.027 H 
ATOM     38  H   UNL A   1      44.819  31.818  36.604  1.00  0.00     0.027 H 
ATOM     39  H   UNL A   1      44.366  30.144  36.392  1.00  0.00     0.027 H 
ENDBRANCH  33  36
ENDBRANCH  32  33
ENDBRANCH  24  32
BRANCH  28  40
ATOM     40  O   UNL A   1      39.637  29.347  32.659  1.00  0.00    -0.493 OA
BRANCH  40  41
ATOM     41  C   UNL A   1      38.403  28.666  32.495  1.00  0.00     0.085 C 
ATOM     42  H   UNL A   1      37.801  29.194  31.785  1.00  0.00     0.070 H 
ATOM     43  H   UNL A   1      37.905  28.620  33.441  1.00  0.00     0.070 H 
BRANCH  41  44
ATOM     44  C   UNL A   1      38.636  27.246  31.995  1.00  0.00    -0.031 C 
ATOM     45  H   UNL A   1      39.643  27.153  31.643  1.00  0.00     0.027 H 
ATOM     46  H   UNL A   1      37.958  27.032  31.197  1.00  0.00     0.027 H 
ATOM     47  H   UNL A   1      38.474  26.555  32.797  1.00  0.00     0.027 H 
ENDBRANCH  41  44
ENDBRANCH  40  41
ENDBRANCH  28  40
ENDBRANCH  14  23
ENDBRANCH  11  13
BRANCH  11  48
ATOM     48  C   UNL A   1      45.292  24.702  35.523  1.00  0.00    -0.049 C 
ATOM     49  H   UNL A   1      46.244  25.187  35.472  1.00  0.00     0.024 H 
ATOM     50  H   UNL A   1      45.435  23.642  35.580  1.00  0.00     0.024 H 
ATOM     51  H   UNL A   1      44.766  25.038  36.391  1.00  0.00     0.024 H 
ENDBRANCH  11  48
ENDBRANCH   8  11
ENDBRANCH   4   7
ENDBRANCH   1   4
BRANCH   1  52
ATOM     52  C   UNL A   1      42.752  23.283  29.108  1.00  0.00    -0.052 C 
ATOM     53  H   UNL A   1      42.363  24.266  29.277  1.00  0.00     0.027 H 
ATOM     54  H   UNL A   1      42.094  22.505  29.435  1.00  0.00     0.027 H 
BRANCH  52  55
ATOM     55  C   UNL A   1      42.925  23.092  27.599  1.00  0.00    -0.052 C 
ATOM     56  H   UNL A   1      43.973  23.020  27.396  1.00  0.00     0.027 H 
ATOM     57  H   UNL A   1      42.450  23.937  27.143  1.00  0.00     0.027 H 
BRANCH  55  58
ATOM     58  C   UNL A   1      42.243  21.858  26.997  1.00  0.00    -0.036 C 
ATOM     59  H   UNL A   1      42.870  21.010  27.183  1.00  0.00     0.028 H 
ATOM     60  H   UNL A   1      42.107  22.072  25.958  1.00  0.00     0.028 H 
BRANCH  58  61
ATOM     61  C   UNL A   1      40.852  21.545  27.548  1.00  0.00     0.018 C 
ATOM     62  H   UNL A   1      40.671  22.165  28.402  1.00  0.00     0.049 H 
ATOM     63  H   UNL A   1      40.826  20.508  27.810  1.00  0.00     0.049 H 
BRANCH  61  64
ATOM     64  N   UNL A   1      39.807  21.785  26.564  1.00  0.00    -0.352 N 
ATOM     65  C   UNL A   1      39.079  22.919  26.311  1.00  0.00     0.251 C 
ATOM     66  H   UNL A   1      39.591  21.014  25.992  1.00  0.00     0.163 HD
ATOM     67  O   UNL A   1      38.077  22.857  25.597  1.00  0.00    -0.269 OA
BRANCH  65  68
ATOM     68  C   UNL A   1      39.478  24.217  26.892  1.00  0.00     0.039 A 
ATOM     69  C   UNL A   1      39.109  24.512  28.209  1.00  0.00    -0.049 A 
ATOM     70  C   UNL A   1      40.172  25.163  26.132  1.00  0.00    -0.049 A 
ATOM     71  C   UNL A   1      39.487  25.729  28.781  1.00  0.00    -0.053 A 
ATOM     72  H   UNL A   1      38.559  23.832  28.756  1.00  0.00     0.063 H 
ATOM     73  C   UNL A   1      40.603  26.349  26.724  1.00  0.00    -0.053 A 
ATOM     74  H   UNL A   1      40.364  24.984  25.134  1.00  0.00     0.063 H 
ATOM     75  C   UNL A   1      40.264  26.645  28.053  1.00  0.00    -0.014 A 
ATOM     76  H   UNL A   1      39.193  25.956  29.744  1.00  0.00     0.063 H 
ATOM     77  H   UNL A   1      41.176  27.014  26.181  1.00  0.00     0.063 H 
BRANCH  75  78
ATOM     78  C   UNL A   1      40.733  27.915  28.667  1.00  0.00     0.031 A 
ATOM     79  C   UNL A   1      42.171  28.074  29.076  1.00  0.00     0.074 A 
ATOM     80  C   UNL A   1      39.848  28.901  28.912  1.00  0.00     0.049 A 
ATOM     81  N   UNL A   1      42.750  29.069  29.700  1.00  0.00    -0.248 NA
ATOM     82  C   UNL A   1      43.074  26.954  28.765  1.00  0.00    -0.034 C 
ATOM     83  C   UNL A   1      38.419  28.849  28.600  1.00  0.00    -0.036 A 
ATOM     84  N   UNL A   1      40.017  30.131  29.494  1.00  0.00    -0.354 N 
ATOM     85  C   UNL A   1      44.076  28.694  29.862  1.00  0.00     0.074 A 
ATOM     86  C   UNL A   1      44.207  27.358  29.321  1.00  0.00    -0.034 C 
ATOM     87  H   UNL A   1      42.877  26.083  28.249  1.00  0.00     0.065 H 
ATOM     88  C   UNL A   1      37.843  30.000  28.985  1.00  0.00    -0.036 A 
ATOM     89  H   UNL A   1      37.931  28.055  28.156  1.00  0.00     0.065 H 
ATOM     90  C   UNL A   1      38.853  30.854  29.602  1.00  0.00     0.049 A 
ATOM     91  H   UNL A   1      40.889  30.467  29.805  1.00  0.00     0.167 HD
ATOM     92  C   UNL A   1      45.098  29.408  30.392  1.00  0.00     0.037 A 
ATOM     93  H   UNL A   1      45.070  26.795  29.362  1.00  0.00     0.065 H 
ATOM     94  H   UNL A   1      36.848  30.241  28.864  1.00  0.00     0.065 H 
ATOM     95  C   UNL A   1      38.624  32.063  30.151  1.00  0.00     0.037 A 
ATOM     96  C   UNL A   1      44.969  30.744  30.915  1.00  0.00     0.049 A 
ATOM     97  C   UNL A   1      39.775  32.831  30.741  1.00  0.00     0.074 A 
ATOM     98  C   UNL A   1      45.952  31.566  31.436  1.00  0.00    -0.036 A 
ATOM     99  N   UNL A   1      43.779  31.453  30.983  1.00  0.00    -0.354 N 
ATOM    100  N   UNL A   1      41.037  32.489  30.835  1.00  0.00    -0.248 NA
ATOM    101  C   UNL A   1      39.472  34.159  31.294  1.00  0.00    -0.034 C 
ATOM    102  C   UNL A   1      45.351  32.757  31.856  1.00  0.00    -0.036 A 
ATOM    103  H   UNL A   1      46.958  31.340  31.503  1.00  0.00     0.065 H 
ATOM    104  C   UNL A   1      44.001  32.697  31.550  1.00  0.00     0.049 A 
ATOM    105  H   UNL A   1      42.905  31.121  30.672  1.00  0.00     0.167 HD
ATOM    106  C   UNL A   1      41.681  33.565  31.432  1.00  0.00     0.074 A 
ATOM    107  C   UNL A   1      40.673  34.579  31.661  1.00  0.00    -0.034 C 
ATOM    108  H   UNL A   1      38.561  34.638  31.376  1.00  0.00     0.065 H 
ATOM    109  H   UNL A   1      45.831  33.547  32.314  1.00  0.00     0.065 H 
ATOM    110  C   UNL A   1      42.989  33.699  31.762  1.00  0.00     0.037 A 
ATOM    111  H   UNL A   1      40.868  35.511  32.060  1.00  0.00     0.065 H 
BRANCH  92 112
ATOM    112  C   UNL A   1      46.454  28.765  30.425  1.00  0.00     0.064 A 
ATOM    113  C   UNL A   1      47.302  28.788  29.307  1.00  0.00     0.173 A 
ATOM    114  C   UNL A   1      46.933  28.160  31.598  1.00  0.00     0.173 A 
ATOM    115  F   UNL A   1      46.888  29.343  28.158  1.00  0.00    -0.203 F 
ATOM    116  C   UNL A   1      48.568  28.208  29.354  1.00  0.00     0.198 A 
ATOM    117  C   UNL A   1      48.210  27.609  31.650  1.00  0.00     0.198 A 
ATOM    118  F   UNL A   1      46.166  28.116  32.698  1.00  0.00    -0.203 F 
ATOM    119  F   UNL A   1      49.342  28.204  28.260  1.00  0.00    -0.200 F 
ATOM    120  C   UNL A   1      49.024  27.627  30.528  1.00  0.00     0.200 A 
ATOM    121  F   UNL A   1      48.655  27.060  32.789  1.00  0.00    -0.200 F 
ATOM    122  F   UNL A   1      50.246  27.080  30.575  1.00  0.00    -0.200 F 
ENDBRANCH  92 112
BRANCH  95 123
ATOM    123  C   UNL A   1      37.249  32.627  30.159  1.00  0.00     0.064 A 
ATOM    124  C   UNL A   1      36.342  32.307  31.180  1.00  0.00     0.173 A 
ATOM    125  C   UNL A   1      36.808  33.484  29.140  1.00  0.00     0.173 A 
ATOM    126  F   UNL A   1      36.711  31.476  32.166  1.00  0.00    -0.203 F 
ATOM    127  C   UNL A   1      35.040  32.804  31.168  1.00  0.00     0.198 A 
ATOM    128  C   UNL A   1      35.515  34.004  29.147  1.00  0.00     0.198 A 
ATOM    129  F   UNL A   1      37.637  33.828  28.144  1.00  0.00    -0.203 F 
ATOM    130  F   UNL A   1      34.180  32.440  32.129  1.00  0.00    -0.200 F 
ATOM    131  C   UNL A   1      34.629  33.655  30.155  1.00  0.00     0.200 A 
ATOM    132  F   UNL A   1      35.127  34.839  28.173  1.00  0.00    -0.200 F 
ATOM    133  F   UNL A   1      33.377  34.132  30.144  1.00  0.00    -0.200 F 
ENDBRANCH  95 123
BRANCH 110 134
ATOM    134  C   UNL A   1      43.413  35.002  32.376  1.00  0.00     0.064 A 
ATOM    135  C   UNL A   1      43.453  35.183  33.765  1.00  0.00     0.173 A 
ATOM    136  C   UNL A   1      43.818  36.070  31.561  1.00  0.00     0.173 A 
ATOM    137  F   UNL A   1      43.060  34.197  34.587  1.00  0.00    -0.203 F 
ATOM    138  C   UNL A   1      43.862  36.394  34.318  1.00  0.00     0.198 A 
ATOM    139  C   UNL A   1      44.255  37.269  32.117  1.00  0.00     0.198 A 
ATOM    140  F   UNL A   1      43.803  35.946  30.226  1.00  0.00    -0.203 F 
ATOM    141  F   UNL A   1      43.847  36.561  35.647  1.00  0.00    -0.200 F 
ATOM    142  C   UNL A   1      44.269  37.433  33.494  1.00  0.00     0.200 A 
ATOM    143  F   UNL A   1      44.660  38.267  31.320  1.00  0.00    -0.200 F 
ATOM    144  F   UNL A   1      44.668  38.595  34.028  1.00  0.00    -0.200 F 
ENDBRANCH 110 134
ENDBRANCH  75  78
ENDBRANCH  65  68
ENDBRANCH  61  64
ENDBRANCH  58  61
ENDBRANCH  55  58
ENDBRANCH  52  55
ENDBRANCH   1  52
TORSDOF 22
ENDMDL
MODEL 9
REMARK VINA RESULT:     -10.2      1.874      7.905
REMARK SMILES CCOc1cccc(OCC)c1-c1ccc([C@@H](C)C(=O)NCCCCCCNC(=O)c2ccc(-c3c4nc(c(-c5c(F)c(F)c(F)c(F)c5F)c5ccc([nH]5)c(-c5c(F)c(F)c(F)c(F)c5F)c5nc(c(-c6c(F)c(F)c(F)c(F)c6F)c6ccc3[nH]6)C=C5)C=C4)cc2)cc1F
REMARK SMILES IDX 23 1 22 4 21 7 19 8 20 9 17 11 16 13 13 14 14 15 95 16 15 17
REMARK SMILES IDX 94 19 96 20 12 23 4 24 5 25 6 26 8 28 7 29 3 32 2 33 1 36
REMARK SMILES IDX 9 40 10 41 11 44 18 48 24 52 25 55 26 58 27 61 28 64 29 65
REMARK SMILES IDX 30 67 31 68 32 69 93 70 33 71 92 73 34 75 35 78 36 79 86 80
REMARK SMILES IDX 37 81 91 82 85 83 87 84 38 85 90 86 84 88 83 90 39 92 71 95
REMARK SMILES IDX 51 96 70 97 52 98 55 99 69 100 88 101 53 102 54 104 68 106
REMARK SMILES IDX 89 107 56 110 40 112 41 113 49 114 42 115 43 116 47 117
REMARK SMILES IDX 50 118 44 119 45 120 48 121 46 122 72 123 73 124 81 125
REMARK SMILES IDX 74 126 75 127 79 128 82 129 76 130 77 131 80 132 78 133
REMARK SMILES IDX 57 134 58 135 66 136 59 137 60 138 64 139 67 140 61 141
REMARK SMILES IDX 62 142 65 143 63 144
REMARK H PARENT 23 2 23 3 22 5 22 6 21 10 17 12 14 18 15 21 94 22 5 27 6 30
REMARK H PARENT 7 31 2 34 2 35 1 37 1 38 1 39 10 42 10 43 11 45 11 46 11 47
REMARK H PARENT 18 49 18 50 18 51 24 53 24 54 25 56 25 57 26 59 26 60 27 62
REMARK H PARENT 27 63 28 66 32 72 93 74 33 76 92 77 91 87 85 89 87 91 90 93
REMARK H PARENT 84 94 52 103 55 105 88 108 53 109 89 111
REMARK Flexibility Score: inf
ROOT
ATOM      1  C   UNL A   1      30.388  29.498  24.183  1.00  0.00    -0.036 C 
ATOM      2  H   UNL A   1      29.645  29.245  24.910  1.00  0.00     0.028 H 
ATOM      3  H   UNL A   1      30.057  30.207  23.454  1.00  0.00     0.028 H 
ENDROOT
BRANCH   1   4
ATOM      4  C   UNL A   1      30.739  28.218  23.398  1.00  0.00     0.017 C 
ATOM      5  H   UNL A   1      30.484  27.365  23.991  1.00  0.00     0.049 H 
ATOM      6  H   UNL A   1      30.187  28.223  22.481  1.00  0.00     0.049 H 
BRANCH   4   7
ATOM      7  N   UNL A   1      32.159  28.164  23.076  1.00  0.00    -0.356 N 
ATOM      8  C   UNL A   1      33.272  27.702  23.711  1.00  0.00     0.227 C 
ATOM      9  O   UNL A   1      34.341  27.934  23.127  1.00  0.00    -0.274 OA
ATOM     10  H   UNL A   1      32.361  28.551  22.194  1.00  0.00     0.163 HD
BRANCH   8  11
ATOM     11  C   UNL A   1      33.304  26.936  25.054  1.00  0.00     0.060 C 
ATOM     12  H   UNL A   1      32.269  26.859  25.314  1.00  0.00     0.045 H 
BRANCH  11  13
ATOM     13  C   UNL A   1      33.795  25.502  24.951  1.00  0.00    -0.033 A 
ATOM     14  C   UNL A   1      34.814  22.845  24.882  1.00  0.00     0.025 A 
ATOM     15  C   UNL A   1      34.623  23.521  26.082  1.00  0.00    -0.051 A 
ATOM     16  C   UNL A   1      34.513  23.537  23.701  1.00  0.00     0.131 A 
ATOM     17  C   UNL A   1      34.026  24.767  26.104  1.00  0.00    -0.057 A 
ATOM     18  H   UNL A   1      34.929  23.086  26.967  1.00  0.00     0.063 H 
ATOM     19  C   UNL A   1      34.037  24.859  23.728  1.00  0.00    -0.022 A 
ATOM     20  F   UNL A   1      34.696  22.950  22.509  1.00  0.00    -0.206 F 
ATOM     21  H   UNL A   1      33.742  25.167  27.012  1.00  0.00     0.063 H 
ATOM     22  H   UNL A   1      33.865  25.361  22.843  1.00  0.00     0.066 H 
BRANCH  14  23
ATOM     23  C   UNL A   1      35.397  21.502  24.956  1.00  0.00     0.069 A 
ATOM     24  C   UNL A   1      34.504  20.403  24.833  1.00  0.00     0.130 A 
ATOM     25  C   UNL A   1      34.952  19.085  24.737  1.00  0.00    -0.019 A 
ATOM     26  C   UNL A   1      36.314  18.828  24.739  1.00  0.00    -0.055 A 
ATOM     27  H   UNL A   1      34.276  18.309  24.666  1.00  0.00     0.066 H 
ATOM     28  C   UNL A   1      36.785  21.225  24.973  1.00  0.00     0.130 A 
ATOM     29  C   UNL A   1      37.212  19.886  24.869  1.00  0.00    -0.019 A 
ATOM     30  H   UNL A   1      36.661  17.861  24.645  1.00  0.00     0.063 H 
ATOM     31  H   UNL A   1      38.223  19.682  24.889  1.00  0.00     0.066 H 
BRANCH  24  32
ATOM     32  O   UNL A   1      33.147  20.629  24.882  1.00  0.00    -0.493 OA
BRANCH  32  33
ATOM     33  C   UNL A   1      32.416  19.915  23.880  1.00  0.00     0.085 C 
ATOM     34  H   UNL A   1      32.996  19.085  23.534  1.00  0.00     0.070 H 
ATOM     35  H   UNL A   1      31.497  19.553  24.291  1.00  0.00     0.070 H 
BRANCH  33  36
ATOM     36  C   UNL A   1      32.126  20.854  22.719  1.00  0.00    -0.031 C 
ATOM     37  H   UNL A   1      31.680  20.303  21.917  1.00  0.00     0.027 H 
ATOM     38  H   UNL A   1      33.040  21.296  22.381  1.00  0.00     0.027 H 
ATOM     39  H   UNL A   1      31.455  21.622  23.040  1.00  0.00     0.027 H 
ENDBRANCH  33  36
ENDBRANCH  32  33
ENDBRANCH  24  32
BRANCH  28  40
ATOM     40  O   UNL A   1      37.874  22.045  25.096  1.00  0.00    -0.493 OA
BRANCH  40  41
ATOM     41  C   UNL A   1      38.688  22.152  26.254  1.00  0.00     0.085 C 
ATOM     42  H   UNL A   1      38.251  21.580  27.045  1.00  0.00     0.070 H 
ATOM     43  H   UNL A   1      38.755  23.182  26.536  1.00  0.00     0.070 H 
BRANCH  41  44
ATOM     44  C   UNL A   1      40.091  21.629  25.974  1.00  0.00    -0.031 C 
ATOM     45  H   UNL A   1      40.771  22.024  26.700  1.00  0.00     0.027 H 
ATOM     46  H   UNL A   1      40.398  21.934  24.996  1.00  0.00     0.027 H 
ATOM     47  H   UNL A   1      40.091  20.560  26.030  1.00  0.00     0.027 H 
ENDBRANCH  41  44
ENDBRANCH  40  41
ENDBRANCH  28  40
ENDBRANCH  14  23
ENDBRANCH  11  13
BRANCH  11  48
ATOM     48  C   UNL A   1      33.944  27.704  26.206  1.00  0.00    -0.049 C 
ATOM     49  H   UNL A   1      33.393  28.602  26.387  1.00  0.00     0.024 H 
ATOM     50  H   UNL A   1      34.955  27.950  25.952  1.00  0.00     0.024 H 
ATOM     51  H   UNL A   1      33.936  27.097  27.087  1.00  0.00     0.024 H 
ENDBRANCH  11  48
ENDBRANCH   8  11
ENDBRANCH   4   7
ENDBRANCH   1   4
BRANCH   1  52
ATOM     52  C   UNL A   1      31.552  30.164  24.915  1.00  0.00    -0.052 C 
ATOM     53  H   UNL A   1      31.884  30.994  24.326  1.00  0.00     0.027 H 
ATOM     54  H   UNL A   1      32.299  29.408  25.041  1.00  0.00     0.027 H 
BRANCH  52  55
ATOM     55  C   UNL A   1      31.221  30.678  26.319  1.00  0.00    -0.052 C 
ATOM     56  H   UNL A   1      31.888  30.202  27.007  1.00  0.00     0.027 H 
ATOM     57  H   UNL A   1      30.189  30.441  26.478  1.00  0.00     0.027 H 
BRANCH  55  58
ATOM     58  C   UNL A   1      31.337  32.193  26.522  1.00  0.00    -0.036 C 
ATOM     59  H   UNL A   1      30.511  32.510  27.124  1.00  0.00     0.028 H 
ATOM     60  H   UNL A   1      31.345  32.622  25.542  1.00  0.00     0.028 H 
BRANCH  58  61
ATOM     61  C   UNL A   1      32.624  32.665  27.199  1.00  0.00     0.018 C 
ATOM     62  H   UNL A   1      33.431  32.585  26.501  1.00  0.00     0.049 H 
ATOM     63  H   UNL A   1      32.790  32.047  28.056  1.00  0.00     0.049 H 
BRANCH  61  64
ATOM     64  N   UNL A   1      32.528  34.044  27.652  1.00  0.00    -0.352 N 
ATOM     65  C   UNL A   1      33.176  34.682  28.678  1.00  0.00     0.251 C 
ATOM     66  H   UNL A   1      31.901  34.606  27.142  1.00  0.00     0.163 HD
ATOM     67  O   UNL A   1      32.788  35.789  29.055  1.00  0.00    -0.269 OA
BRANCH  65  68
ATOM     68  C   UNL A   1      34.335  34.052  29.345  1.00  0.00     0.039 A 
ATOM     69  C   UNL A   1      35.625  34.446  28.977  1.00  0.00    -0.049 A 
ATOM     70  C   UNL A   1      34.156  33.043  30.296  1.00  0.00    -0.049 A 
ATOM     71  C   UNL A   1      36.733  33.871  29.604  1.00  0.00    -0.053 A 
ATOM     72  H   UNL A   1      35.758  35.159  28.243  1.00  0.00     0.063 H 
ATOM     73  C   UNL A   1      35.260  32.517  30.966  1.00  0.00    -0.053 A 
ATOM     74  H   UNL A   1      33.209  32.689  30.501  1.00  0.00     0.063 H 
ATOM     75  C   UNL A   1      36.558  32.924  30.626  1.00  0.00    -0.014 A 
ATOM     76  H   UNL A   1      37.685  34.144  29.314  1.00  0.00     0.063 H 
ATOM     77  H   UNL A   1      35.119  31.824  31.718  1.00  0.00     0.063 H 
BRANCH  75  78
ATOM     78  C   UNL A   1      37.722  32.351  31.352  1.00  0.00     0.031 A 
ATOM     79  C   UNL A   1      38.493  31.203  30.761  1.00  0.00     0.074 A 
ATOM     80  C   UNL A   1      38.044  32.825  32.571  1.00  0.00     0.049 A 
ATOM     81  N   UNL A   1      39.481  30.516  31.277  1.00  0.00    -0.248 NA
ATOM     82  C   UNL A   1      38.083  30.751  29.422  1.00  0.00    -0.034 C 
ATOM     83  C   UNL A   1      37.346  33.906  33.269  1.00  0.00    -0.036 A 
ATOM     84  N   UNL A   1      39.030  32.447  33.447  1.00  0.00    -0.354 N 
ATOM     85  C   UNL A   1      39.804  29.550  30.334  1.00  0.00     0.074 A 
ATOM     86  C   UNL A   1      38.873  29.703  29.237  1.00  0.00    -0.034 C 
ATOM     87  H   UNL A   1      37.368  31.147  28.792  1.00  0.00     0.065 H 
ATOM     88  C   UNL A   1      37.931  34.111  34.459  1.00  0.00    -0.036 A 
ATOM     89  H   UNL A   1      36.533  34.427  32.903  1.00  0.00     0.065 H 
ATOM     90  C   UNL A   1      39.022  33.154  34.625  1.00  0.00     0.049 A 
ATOM     91  H   UNL A   1      39.684  31.737  33.251  1.00  0.00     0.167 HD
ATOM     92  C   UNL A   1      40.801  28.635  30.369  1.00  0.00     0.037 A 
ATOM     93  H   UNL A   1      38.830  29.078  28.417  1.00  0.00     0.065 H 
ATOM     94  H   UNL A   1      37.656  34.830  35.146  1.00  0.00     0.065 H 
ATOM     95  C   UNL A   1      39.795  33.034  35.721  1.00  0.00     0.037 A 
ATOM     96  C   UNL A   1      41.738  28.495  31.454  1.00  0.00     0.049 A 
ATOM     97  C   UNL A   1      40.890  32.002  35.737  1.00  0.00     0.074 A 
ATOM     98  C   UNL A   1      42.808  27.625  31.565  1.00  0.00    -0.036 A 
ATOM     99  N   UNL A   1      41.713  29.248  32.619  1.00  0.00    -0.354 N 
ATOM    100  N   UNL A   1      41.223  31.134  34.814  1.00  0.00    -0.248 NA
ATOM    101  C   UNL A   1      41.725  31.940  36.946  1.00  0.00    -0.034 C 
ATOM    102  C   UNL A   1      43.407  27.824  32.814  1.00  0.00    -0.036 A 
ATOM    103  H   UNL A   1      43.113  26.947  30.850  1.00  0.00     0.065 H 
ATOM    104  C   UNL A   1      42.739  28.852  33.460  1.00  0.00     0.049 A 
ATOM    105  H   UNL A   1      41.061  29.959  32.818  1.00  0.00     0.167 HD
ATOM    106  C   UNL A   1      42.316  30.442  35.316  1.00  0.00     0.074 A 
ATOM    107  C   UNL A   1      42.603  31.004  36.619  1.00  0.00    -0.034 C 
ATOM    108  H   UNL A   1      41.646  32.483  37.820  1.00  0.00     0.065 H 
ATOM    109  H   UNL A   1      44.209  27.296  33.189  1.00  0.00     0.065 H 
ATOM    110  C   UNL A   1      43.018  29.430  34.750  1.00  0.00     0.037 A 
ATOM    111  H   UNL A   1      43.393  30.713  37.216  1.00  0.00     0.065 H 
BRANCH  92 112
ATOM    112  C   UNL A   1      40.943  27.714  29.191  1.00  0.00     0.064 A 
ATOM    113  C   UNL A   1      40.047  26.656  28.977  1.00  0.00     0.173 A 
ATOM    114  C   UNL A   1      41.955  27.919  28.239  1.00  0.00     0.173 A 
ATOM    115  F   UNL A   1      39.069  26.410  29.862  1.00  0.00    -0.203 F 
ATOM    116  C   UNL A   1      40.174  25.821  27.868  1.00  0.00     0.198 A 
ATOM    117  C   UNL A   1      42.059  27.102  27.117  1.00  0.00     0.198 A 
ATOM    118  F   UNL A   1      42.834  28.921  28.392  1.00  0.00    -0.203 F 
ATOM    119  F   UNL A   1      39.332  24.791  27.708  1.00  0.00    -0.200 F 
ATOM    120  C   UNL A   1      41.174  26.051  26.935  1.00  0.00     0.200 A 
ATOM    121  F   UNL A   1      43.018  27.333  26.210  1.00  0.00    -0.200 F 
ATOM    122  F   UNL A   1      41.287  25.254  25.864  1.00  0.00    -0.200 F 
ENDBRANCH  92 112
BRANCH  95 123
ATOM    123  C   UNL A   1      39.569  33.921  36.892  1.00  0.00     0.064 A 
ATOM    124  C   UNL A   1      40.144  35.200  36.951  1.00  0.00     0.173 A 
ATOM    125  C   UNL A   1      38.787  33.507  37.980  1.00  0.00     0.173 A 
ATOM    126  F   UNL A   1      40.915  35.634  35.943  1.00  0.00    -0.203 F 
ATOM    127  C   UNL A   1      39.966  36.018  38.065  1.00  0.00     0.198 A 
ATOM    128  C   UNL A   1      38.586  34.339  39.080  1.00  0.00     0.198 A 
ATOM    129  F   UNL A   1      38.209  32.297  37.971  1.00  0.00    -0.203 F 
ATOM    130  F   UNL A   1      40.570  37.213  38.118  1.00  0.00    -0.200 F 
ATOM    131  C   UNL A   1      39.184  35.589  39.126  1.00  0.00     0.200 A 
ATOM    132  F   UNL A   1      37.816  33.926  40.097  1.00  0.00    -0.200 F 
ATOM    133  F   UNL A   1      39.014  36.376  40.198  1.00  0.00    -0.200 F 
ENDBRANCH  95 123
BRANCH 110 134
ATOM    134  C   UNL A   1      44.187  28.888  35.520  1.00  0.00     0.064 A 
ATOM    135  C   UNL A   1      44.042  27.831  36.431  1.00  0.00     0.173 A 
ATOM    136  C   UNL A   1      45.474  29.409  35.317  1.00  0.00     0.173 A 
ATOM    137  F   UNL A   1      42.830  27.308  36.673  1.00  0.00    -0.203 F 
ATOM    138  C   UNL A   1      45.139  27.332  37.127  1.00  0.00     0.198 A 
ATOM    139  C   UNL A   1      46.573  28.888  35.993  1.00  0.00     0.198 A 
ATOM    140  F   UNL A   1      45.666  30.417  34.453  1.00  0.00    -0.203 F 
ATOM    141  F   UNL A   1      44.970  26.354  38.028  1.00  0.00    -0.200 F 
ATOM    142  C   UNL A   1      46.404  27.855  36.903  1.00  0.00     0.200 A 
ATOM    143  F   UNL A   1      47.796  29.386  35.765  1.00  0.00    -0.200 F 
ATOM    144  F   UNL A   1      47.460  27.369  37.569  1.00  0.00    -0.200 F 
ENDBRANCH 110 134
ENDBRANCH  75  78
ENDBRANCH  65  68
ENDBRANCH  61  64
ENDBRANCH  58  61
ENDBRANCH  55  58
ENDBRANCH  52  55
ENDBRANCH   1  52
TORSDOF 22
ENDMDL
MODEL 10
REMARK VINA RESULT:     -10.2      6.379     11.374
REMARK SMILES CCOc1cccc(OCC)c1-c1ccc([C@@H](C)C(=O)NCCCCCCNC(=O)c2ccc(-c3c4nc(c(-c5c(F)c(F)c(F)c(F)c5F)c5ccc([nH]5)c(-c5c(F)c(F)c(F)c(F)c5F)c5nc(c(-c6c(F)c(F)c(F)c(F)c6F)c6ccc3[nH]6)C=C5)C=C4)cc2)cc1F
REMARK SMILES IDX 23 1 22 4 21 7 19 8 20 9 17 11 16 13 13 14 14 15 95 16 15 17
REMARK SMILES IDX 94 19 96 20 12 23 4 24 5 25 6 26 8 28 7 29 3 32 2 33 1 36
REMARK SMILES IDX 9 40 10 41 11 44 18 48 24 52 25 55 26 58 27 61 28 64 29 65
REMARK SMILES IDX 30 67 31 68 32 69 93 70 33 71 92 73 34 75 35 78 36 79 86 80
REMARK SMILES IDX 37 81 91 82 85 83 87 84 38 85 90 86 84 88 83 90 39 92 71 95
REMARK SMILES IDX 51 96 70 97 52 98 55 99 69 100 88 101 53 102 54 104 68 106
REMARK SMILES IDX 89 107 56 110 40 112 41 113 49 114 42 115 43 116 47 117
REMARK SMILES IDX 50 118 44 119 45 120 48 121 46 122 72 123 73 124 81 125
REMARK SMILES IDX 74 126 75 127 79 128 82 129 76 130 77 131 80 132 78 133
REMARK SMILES IDX 57 134 58 135 66 136 59 137 60 138 64 139 67 140 61 141
REMARK SMILES IDX 62 142 65 143 63 144
REMARK H PARENT 23 2 23 3 22 5 22 6 21 10 17 12 14 18 15 21 94 22 5 27 6 30
REMARK H PARENT 7 31 2 34 2 35 1 37 1 38 1 39 10 42 10 43 11 45 11 46 11 47
REMARK H PARENT 18 49 18 50 18 51 24 53 24 54 25 56 25 57 26 59 26 60 27 62
REMARK H PARENT 27 63 28 66 32 72 93 74 33 76 92 77 91 87 85 89 87 91 90 93
REMARK H PARENT 84 94 52 103 55 105 88 108 53 109 89 111
REMARK Flexibility Score: inf
ROOT
ATOM      1  C   UNL A   1      39.514  23.673  27.141  1.00  0.00    -0.036 C 
ATOM      2  H   UNL A   1      39.526  23.833  28.198  1.00  0.00     0.028 H 
ATOM      3  H   UNL A   1      40.219  24.271  26.603  1.00  0.00     0.028 H 
ENDROOT
BRANCH   1   4
ATOM      4  C   UNL A   1      38.124  24.084  26.614  1.00  0.00     0.017 C 
ATOM      5  H   UNL A   1      37.509  24.368  27.442  1.00  0.00     0.049 H 
ATOM      6  H   UNL A   1      38.249  24.901  25.935  1.00  0.00     0.049 H 
BRANCH   4   7
ATOM      7  N   UNL A   1      37.481  22.989  25.899  1.00  0.00    -0.356 N 
ATOM      8  C   UNL A   1      36.255  22.397  25.949  1.00  0.00     0.227 C 
ATOM      9  O   UNL A   1      36.125  21.403  25.219  1.00  0.00    -0.274 OA
ATOM     10  H   UNL A   1      38.069  22.583  25.222  1.00  0.00     0.163 HD
BRANCH   8  11
ATOM     11  C   UNL A   1      35.056  22.854  26.811  1.00  0.00     0.060 C 
ATOM     12  H   UNL A   1      35.521  23.406  27.601  1.00  0.00     0.045 H 
BRANCH  11  13
ATOM     13  C   UNL A   1      34.129  23.846  26.128  1.00  0.00    -0.033 A 
ATOM     14  C   UNL A   1      32.497  25.821  24.889  1.00  0.00     0.025 A 
ATOM     15  C   UNL A   1      33.884  25.900  24.857  1.00  0.00    -0.051 A 
ATOM     16  C   UNL A   1      31.930  24.744  25.583  1.00  0.00     0.131 A 
ATOM     17  C   UNL A   1      34.662  24.877  25.368  1.00  0.00    -0.057 A 
ATOM     18  H   UNL A   1      34.339  26.730  24.446  1.00  0.00     0.063 H 
ATOM     19  C   UNL A   1      32.732  23.781  26.221  1.00  0.00    -0.022 A 
ATOM     20  F   UNL A   1      30.598  24.621  25.671  1.00  0.00    -0.206 F 
ATOM     21  H   UNL A   1      35.676  24.881  25.178  1.00  0.00     0.063 H 
ATOM     22  H   UNL A   1      32.289  23.023  26.763  1.00  0.00     0.066 H 
BRANCH  14  23
ATOM     23  C   UNL A   1      31.750  26.920  24.269  1.00  0.00     0.069 A 
ATOM     24  C   UNL A   1      31.519  28.074  25.066  1.00  0.00     0.130 A 
ATOM     25  C   UNL A   1      30.955  29.239  24.545  1.00  0.00    -0.019 A 
ATOM     26  C   UNL A   1      30.625  29.293  23.200  1.00  0.00    -0.055 A 
ATOM     27  H   UNL A   1      30.785  30.054  25.155  1.00  0.00     0.066 H 
ATOM     28  C   UNL A   1      31.395  26.982  22.901  1.00  0.00     0.130 A 
ATOM     29  C   UNL A   1      30.832  28.172  22.397  1.00  0.00    -0.019 A 
ATOM     30  H   UNL A   1      30.230  30.156  22.795  1.00  0.00     0.063 H 
ATOM     31  H   UNL A   1      30.566  28.215  21.401  1.00  0.00     0.066 H 
BRANCH  24  32
ATOM     32  O   UNL A   1      31.789  28.027  26.414  1.00  0.00    -0.493 OA
BRANCH  32  33
ATOM     33  C   UNL A   1      32.283  29.264  26.938  1.00  0.00     0.085 C 
ATOM     34  H   UNL A   1      32.137  30.043  26.220  1.00  0.00     0.070 H 
ATOM     35  H   UNL A   1      31.757  29.513  27.837  1.00  0.00     0.070 H 
BRANCH  33  36
ATOM     36  C   UNL A   1      33.767  29.115  27.235  1.00  0.00    -0.031 C 
ATOM     37  H   UNL A   1      34.114  28.174  26.862  1.00  0.00     0.027 H 
ATOM     38  H   UNL A   1      33.926  29.159  28.293  1.00  0.00     0.027 H 
ATOM     39  H   UNL A   1      34.307  29.907  26.760  1.00  0.00     0.027 H 
ENDBRANCH  33  36
ENDBRANCH  32  33
ENDBRANCH  24  32
BRANCH  28  40
ATOM     40  O   UNL A   1      31.473  26.052  21.898  1.00  0.00    -0.493 OA
BRANCH  40  41
ATOM     41  C   UNL A   1      32.678  25.576  21.319  1.00  0.00     0.085 C 
ATOM     42  H   UNL A   1      32.894  24.603  21.708  1.00  0.00     0.070 H 
ATOM     43  H   UNL A   1      33.469  26.255  21.560  1.00  0.00     0.070 H 
BRANCH  41  44
ATOM     44  C   UNL A   1      32.548  25.491  19.804  1.00  0.00    -0.031 C 
ATOM     45  H   UNL A   1      32.039  26.361  19.441  1.00  0.00     0.027 H 
ATOM     46  H   UNL A   1      31.992  24.617  19.541  1.00  0.00     0.027 H 
ATOM     47  H   UNL A   1      33.523  25.440  19.365  1.00  0.00     0.027 H 
ENDBRANCH  41  44
ENDBRANCH  40  41
ENDBRANCH  28  40
ENDBRANCH  14  23
ENDBRANCH  11  13
BRANCH  11  48
ATOM     48  C   UNL A   1      34.308  21.722  27.508  1.00  0.00    -0.049 C 
ATOM     49  H   UNL A   1      33.495  21.399  26.893  1.00  0.00     0.024 H 
ATOM     50  H   UNL A   1      33.928  22.070  28.446  1.00  0.00     0.024 H 
ATOM     51  H   UNL A   1      34.975  20.904  27.675  1.00  0.00     0.024 H 
ENDBRANCH  11  48
ENDBRANCH   8  11
ENDBRANCH   4   7
ENDBRANCH   1   4
BRANCH   1  52
ATOM     52  C   UNL A   1      39.916  22.222  26.882  1.00  0.00    -0.052 C 
ATOM     53  H   UNL A   1      40.266  22.149  25.873  1.00  0.00     0.027 H 
ATOM     54  H   UNL A   1      39.045  21.631  27.072  1.00  0.00     0.027 H 
BRANCH  52  55
ATOM     55  C   UNL A   1      41.011  21.682  27.806  1.00  0.00    -0.052 C 
ATOM     56  H   UNL A   1      40.594  21.589  28.787  1.00  0.00     0.027 H 
ATOM     57  H   UNL A   1      41.817  22.383  27.740  1.00  0.00     0.027 H 
BRANCH  55  58
ATOM     58  C   UNL A   1      41.607  20.325  27.417  1.00  0.00    -0.036 C 
ATOM     59  H   UNL A   1      41.173  19.579  28.050  1.00  0.00     0.028 H 
ATOM     60  H   UNL A   1      42.666  20.422  27.532  1.00  0.00     0.028 H 
BRANCH  58  61
ATOM     61  C   UNL A   1      41.378  19.902  25.966  1.00  0.00     0.018 C 
ATOM     62  H   UNL A   1      41.143  20.770  25.386  1.00  0.00     0.049 H 
ATOM     63  H   UNL A   1      40.574  19.196  25.951  1.00  0.00     0.049 H 
BRANCH  61  64
ATOM     64  N   UNL A   1      42.551  19.258  25.393  1.00  0.00    -0.352 N 
ATOM     65  C   UNL A   1      43.752  19.795  25.009  1.00  0.00     0.251 C 
ATOM     66  H   UNL A   1      42.468  18.286  25.261  1.00  0.00     0.163 HD
ATOM     67  O   UNL A   1      44.532  19.128  24.328  1.00  0.00    -0.269 OA
BRANCH  65  68
ATOM     68  C   UNL A   1      44.120  21.173  25.396  1.00  0.00     0.039 A 
ATOM     69  C   UNL A   1      43.698  22.238  24.595  1.00  0.00    -0.049 A 
ATOM     70  C   UNL A   1      44.918  21.415  26.518  1.00  0.00    -0.049 A 
ATOM     71  C   UNL A   1      44.025  23.548  24.951  1.00  0.00    -0.053 A 
ATOM     72  H   UNL A   1      43.146  22.056  23.743  1.00  0.00     0.063 H 
ATOM     73  C   UNL A   1      45.190  22.726  26.907  1.00  0.00    -0.053 A 
ATOM     74  H   UNL A   1      45.306  20.625  27.057  1.00  0.00     0.063 H 
ATOM     75  C   UNL A   1      44.748  23.805  26.128  1.00  0.00    -0.014 A 
ATOM     76  H   UNL A   1      43.734  24.332  24.346  1.00  0.00     0.063 H 
ATOM     77  H   UNL A   1      45.719  22.903  27.775  1.00  0.00     0.063 H 
BRANCH  75  78
ATOM     78  C   UNL A   1      45.048  25.196  26.558  1.00  0.00     0.031 A 
ATOM     79  C   UNL A   1      43.960  26.065  27.127  1.00  0.00     0.074 A 
ATOM     80  C   UNL A   1      46.286  25.694  26.379  1.00  0.00     0.049 A 
ATOM     81  N   UNL A   1      44.006  27.325  27.479  1.00  0.00    -0.248 NA
ATOM     82  C   UNL A   1      42.638  25.442  27.298  1.00  0.00    -0.034 C 
ATOM     83  C   UNL A   1      47.415  24.965  25.798  1.00  0.00    -0.036 A 
ATOM     84  N   UNL A   1      46.799  26.938  26.651  1.00  0.00    -0.354 N 
ATOM     85  C   UNL A   1      42.724  27.646  27.905  1.00  0.00     0.074 A 
ATOM     86  C   UNL A   1      41.908  26.466  27.717  1.00  0.00    -0.034 C 
ATOM     87  H   UNL A   1      42.354  24.463  27.136  1.00  0.00     0.065 H 
ATOM     88  C   UNL A   1      48.489  25.769  25.767  1.00  0.00    -0.036 A 
ATOM     89  H   UNL A   1      47.388  23.988  25.466  1.00  0.00     0.065 H 
ATOM     90  C   UNL A   1      48.118  27.080  26.290  1.00  0.00     0.049 A 
ATOM     91  H   UNL A   1      46.274  27.660  27.065  1.00  0.00     0.167 HD
ATOM     92  C   UNL A   1      42.275  28.811  28.428  1.00  0.00     0.037 A 
ATOM     93  H   UNL A   1      40.892  26.426  27.887  1.00  0.00     0.065 H 
ATOM     94  H   UNL A   1      49.427  25.503  25.428  1.00  0.00     0.065 H 
ATOM     95  C   UNL A   1      48.931  28.152  26.359  1.00  0.00     0.037 A 
ATOM     96  C   UNL A   1      43.092  29.980  28.631  1.00  0.00     0.049 A 
ATOM     97  C   UNL A   1      48.403  29.438  26.937  1.00  0.00     0.074 A 
ATOM     98  C   UNL A   1      42.739  31.194  29.191  1.00  0.00    -0.036 A 
ATOM     99  N   UNL A   1      44.430  30.076  28.277  1.00  0.00    -0.354 N 
ATOM    100  N   UNL A   1      47.203  29.710  27.391  1.00  0.00    -0.248 NA
ATOM    101  C   UNL A   1      49.344  30.563  27.020  1.00  0.00    -0.034 C 
ATOM    102  C   UNL A   1      43.852  32.040  29.141  1.00  0.00    -0.036 A 
ATOM    103  H   UNL A   1      41.814  31.436  29.580  1.00  0.00     0.065 H 
ATOM    104  C   UNL A   1      44.913  31.335  28.594  1.00  0.00     0.049 A 
ATOM    105  H   UNL A   1      44.959  29.357  27.863  1.00  0.00     0.167 HD
ATOM    106  C   UNL A   1      47.253  31.024  27.835  1.00  0.00     0.074 A 
ATOM    107  C   UNL A   1      48.606  31.489  27.614  1.00  0.00    -0.034 C 
ATOM    108  H   UNL A   1      50.324  30.618  26.699  1.00  0.00     0.065 H 
ATOM    109  H   UNL A   1      43.879  33.022  29.457  1.00  0.00     0.065 H 
ATOM    110  C   UNL A   1      46.266  31.779  28.377  1.00  0.00     0.037 A 
ATOM    111  H   UNL A   1      48.952  32.423  27.885  1.00  0.00     0.065 H 
BRANCH  92 112
ATOM    112  C   UNL A   1      40.830  28.881  28.833  1.00  0.00     0.064 A 
ATOM    113  C   UNL A   1      39.821  29.161  27.898  1.00  0.00     0.173 A 
ATOM    114  C   UNL A   1      40.444  28.619  30.156  1.00  0.00     0.173 A 
ATOM    115  F   UNL A   1      40.138  29.429  26.623  1.00  0.00    -0.203 F 
ATOM    116  C   UNL A   1      38.482  29.201  28.279  1.00  0.00     0.198 A 
ATOM    117  C   UNL A   1      39.101  28.630  30.526  1.00  0.00     0.198 A 
ATOM    118  F   UNL A   1      41.367  28.340  31.088  1.00  0.00    -0.203 F 
ATOM    119  F   UNL A   1      37.540  29.514  27.378  1.00  0.00    -0.200 F 
ATOM    120  C   UNL A   1      38.123  28.928  29.591  1.00  0.00     0.200 A 
ATOM    121  F   UNL A   1      38.755  28.353  31.791  1.00  0.00    -0.200 F 
ATOM    122  F   UNL A   1      36.833  28.956  29.952  1.00  0.00    -0.200 F 
ENDBRANCH  92 112
BRANCH  95 123
ATOM    123  C   UNL A   1      50.334  28.053  25.880  1.00  0.00     0.064 A 
ATOM    124  C   UNL A   1      50.629  28.040  24.508  1.00  0.00     0.173 A 
ATOM    125  C   UNL A   1      51.406  27.956  26.778  1.00  0.00     0.173 A 
ATOM    126  F   UNL A   1      49.636  28.110  23.609  1.00  0.00    -0.203 F 
ATOM    127  C   UNL A   1      51.940  27.907  24.056  1.00  0.00     0.198 A 
ATOM    128  C   UNL A   1      52.719  27.855  26.324  1.00  0.00     0.198 A 
ATOM    129  F   UNL A   1      51.179  27.972  28.100  1.00  0.00    -0.203 F 
ATOM    130  F   UNL A   1      52.188  27.845  22.741  1.00  0.00    -0.200 F 
ATOM    131  C   UNL A   1      52.984  27.820  24.964  1.00  0.00     0.200 A 
ATOM    132  F   UNL A   1      53.727  27.786  27.205  1.00  0.00    -0.200 F 
ATOM    133  F   UNL A   1      54.246  27.693  24.528  1.00  0.00    -0.200 F 
ENDBRANCH  95 123
BRANCH 110 134
ATOM    134  C   UNL A   1      46.620  33.175  28.799  1.00  0.00     0.064 A 
ATOM    135  C   UNL A   1      47.116  33.453  30.081  1.00  0.00     0.173 A 
ATOM    136  C   UNL A   1      46.496  34.243  27.897  1.00  0.00     0.173 A 
ATOM    137  F   UNL A   1      47.238  32.469  30.986  1.00  0.00    -0.203 F 
ATOM    138  C   UNL A   1      47.453  34.751  30.452  1.00  0.00     0.198 A 
ATOM    139  C   UNL A   1      46.862  35.535  28.261  1.00  0.00     0.198 A 
ATOM    140  F   UNL A   1      46.032  34.029  26.656  1.00  0.00    -0.203 F 
ATOM    141  F   UNL A   1      47.880  35.001  31.698  1.00  0.00    -0.200 F 
ATOM    142  C   UNL A   1      47.333  35.790  29.540  1.00  0.00     0.200 A 
ATOM    143  F   UNL A   1      46.757  36.534  27.375  1.00  0.00    -0.200 F 
ATOM    144  F   UNL A   1      47.663  37.038  29.897  1.00  0.00    -0.200 F 
ENDBRANCH 110 134
ENDBRANCH  75  78
ENDBRANCH  65  68
ENDBRANCH  61  64
ENDBRANCH  58  61
ENDBRANCH  55  58
ENDBRANCH  52  55
ENDBRANCH   1  52
TORSDOF 22
ENDMDL
