MODEL 1
REMARK VINA RESULT:     -13.6      0.000      0.000
REMARK SMILES [NH3+][C@@H](Cc1cn(-c2nc(Cl)nc(N3CCOCC3)n2)c2ccccc12)C(=O)NCCCCCCNC(=O)c1ccc(-c2c3nc(c(-c4c(F)c(F)c(F)c(F)c4F)c4ccc([nH]4)c(-c4c(F)c(F)c(F)c(F)c4F)c4nc(c(-c5c(F)c(F)c(F)c(F)c5F)c5ccc2[nH]5)C=C4)C=C3)cc1
REMARK SMILES IDX 30 1 29 4 28 7 26 8 27 9 2 11 1 13 3 17 4 20 5 21 25 22 6 23
REMARK SMILES IDX 20 25 24 26 21 27 23 28 22 30 7 34 8 35 19 36 9 37 12 38
REMARK SMILES IDX 10 39 11 40 13 41 14 42 18 43 15 44 17 47 16 50 31 55 32 58
REMARK SMILES IDX 33 61 34 64 35 67 36 68 37 70 38 71 39 72 100 73 40 74 99 76
REMARK SMILES IDX 41 78 42 81 43 82 93 83 44 84 98 85 92 86 94 87 45 88 97 89
REMARK SMILES IDX 91 91 90 93 46 95 78 98 58 99 77 100 59 101 62 102 76 103
REMARK SMILES IDX 95 104 60 105 61 107 75 109 96 110 63 113 47 115 48 116
REMARK SMILES IDX 56 117 49 118 50 119 54 120 57 121 51 122 52 123 55 124
REMARK SMILES IDX 53 125 79 126 80 127 88 128 81 129 82 130 86 131 89 132
REMARK SMILES IDX 83 133 84 134 87 135 85 136 64 137 65 138 73 139 66 140
REMARK SMILES IDX 67 141 71 142 74 143 68 144 69 145 72 146 70 147
REMARK H PARENT 30 2 30 3 29 5 29 6 28 10 2 12 1 14 1 15 1 16 3 18 3 19 5 24
REMARK H PARENT 24 29 21 31 23 32 22 33 14 45 14 46 18 48 18 49 15 51 15 52
REMARK H PARENT 17 53 17 54 31 56 31 57 32 59 32 60 33 62 33 63 34 65 34 66
REMARK H PARENT 35 69 39 75 100 77 40 79 99 80 98 90 92 92 94 94 97 96 91 97
REMARK H PARENT 59 106 62 108 95 111 60 112 96 114
REMARK Flexibility Score: inf
ROOT
ATOM      1  C   UNL A   1      36.161  23.787  25.056  1.00  0.00    -0.036 C 
ATOM      2  H   UNL A   1      36.865  23.753  25.861  1.00  0.00     0.028 H 
ATOM      3  H   UNL A   1      36.342  24.569  24.349  1.00  0.00     0.028 H 
ENDROOT
BRANCH   1   4
ATOM      4  C   UNL A   1      34.799  24.076  25.645  1.00  0.00     0.018 C 
ATOM      5  H   UNL A   1      34.766  25.119  25.884  1.00  0.00     0.049 H 
ATOM      6  H   UNL A   1      34.101  23.763  24.896  1.00  0.00     0.049 H 
BRANCH   4   7
ATOM      7  N   UNL A   1      34.431  23.349  26.824  1.00  0.00    -0.351 N 
ATOM      8  C   UNL A   1      33.574  22.284  26.912  1.00  0.00     0.278 C 
ATOM      9  O   UNL A   1      33.601  21.635  27.965  1.00  0.00    -0.268 OA
ATOM     10  H   UNL A   1      34.841  23.650  27.667  1.00  0.00     0.163 HD
BRANCH   8  11
ATOM     11  C   UNL A   1      32.583  21.891  25.774  1.00  0.00     0.168 C 
ATOM     12  H   UNL A   1      33.058  22.234  24.879  1.00  0.00     0.107 H 
BRANCH  11  13
ATOM     13  N   UNL A   1      32.454  20.421  25.640  1.00  0.00    -0.347 N 
ATOM     14  H   UNL A   1      32.161  20.190  24.691  1.00  0.00     0.345 HD
ATOM     15  H   UNL A   1      31.760  20.079  26.304  1.00  0.00     0.345 HD
ATOM     16  H   UNL A   1      33.354  19.982  25.834  1.00  0.00     0.345 HD
ENDBRANCH  11  13
BRANCH  11  17
ATOM     17  C   UNL A   1      31.269  22.701  25.659  1.00  0.00     0.036 C 
ATOM     18  H   UNL A   1      30.959  22.935  26.656  1.00  0.00     0.038 H 
ATOM     19  H   UNL A   1      30.627  22.061  25.090  1.00  0.00     0.038 H 
BRANCH  17  20
ATOM     20  C   UNL A   1      31.261  23.995  24.882  1.00  0.00    -0.015 A 
ATOM     21  C   UNL A   1      30.767  25.234  25.265  1.00  0.00     0.017 A 
ATOM     22  C   UNL A   1      31.835  24.187  23.581  1.00  0.00     0.004 A 
ATOM     23  N   UNL A   1      31.138  26.194  24.336  1.00  0.00    -0.285 N 
ATOM     24  H   UNL A   1      30.209  25.412  26.115  1.00  0.00     0.083 H 
ATOM     25  C   UNL A   1      31.706  25.541  23.237  1.00  0.00     0.056 A 
ATOM     26  C   UNL A   1      32.526  23.320  22.702  1.00  0.00    -0.053 A 
ATOM     27  C   UNL A   1      32.252  26.038  22.035  1.00  0.00    -0.037 A 
ATOM     28  C   UNL A   1      33.099  23.820  21.532  1.00  0.00    -0.062 A 
ATOM     29  H   UNL A   1      32.607  22.316  22.927  1.00  0.00     0.063 H 
ATOM     30  C   UNL A   1      32.964  25.163  21.206  1.00  0.00    -0.060 A 
ATOM     31  H   UNL A   1      32.129  27.028  21.772  1.00  0.00     0.065 H 
ATOM     32  H   UNL A   1      33.625  23.189  20.907  1.00  0.00     0.062 H 
ATOM     33  H   UNL A   1      33.395  25.521  20.339  1.00  0.00     0.062 H 
BRANCH  23  34
ATOM     34  C   UNL A   1      31.101  27.617  24.554  1.00  0.00     0.240 A 
ATOM     35  N   UNL A   1      31.769  28.105  25.587  1.00  0.00    -0.181 NA
ATOM     36  N   UNL A   1      30.339  28.367  23.732  1.00  0.00    -0.176 NA
ATOM     37  C   UNL A   1      31.683  29.426  25.678  1.00  0.00     0.228 A 
ATOM     38  C   UNL A   1      30.228  29.675  24.014  1.00  0.00     0.231 A 
ATOM     39  Cl  UNL A   1      32.705  30.149  26.842  1.00  0.00    -0.041 Cl
ATOM     40  N   UNL A   1      30.927  30.258  24.969  1.00  0.00    -0.182 NA
BRANCH  38  41
ATOM     41  N   UNL A   1      29.395  30.430  23.228  1.00  0.00    -0.336 N 
ATOM     42  C   UNL A   1      28.347  29.845  22.383  1.00  0.00     0.044 C 
ATOM     43  C   UNL A   1      28.959  31.731  23.734  1.00  0.00     0.044 C 
ATOM     44  C   UNL A   1      28.201  30.753  21.155  1.00  0.00     0.064 C 
ATOM     45  H   UNL A   1      27.423  29.803  22.921  1.00  0.00     0.052 H 
ATOM     46  H   UNL A   1      28.605  28.849  22.092  1.00  0.00     0.052 H 
ATOM     47  C   UNL A   1      28.708  32.639  22.508  1.00  0.00     0.064 C 
ATOM     48  H   UNL A   1      29.719  32.156  24.356  1.00  0.00     0.052 H 
ATOM     49  H   UNL A   1      28.069  31.631  24.319  1.00  0.00     0.052 H 
ATOM     50  O   UNL A   1      27.779  32.064  21.564  1.00  0.00    -0.378 OA
ATOM     51  H   UNL A   1      27.471  30.337  20.491  1.00  0.00     0.059 H 
ATOM     52  H   UNL A   1      29.144  30.826  20.655  1.00  0.00     0.059 H 
ATOM     53  H   UNL A   1      28.315  33.573  22.850  1.00  0.00     0.059 H 
ATOM     54  H   UNL A   1      29.644  32.763  22.002  1.00  0.00     0.059 H 
ENDBRANCH  38  41
ENDBRANCH  23  34
ENDBRANCH  17  20
ENDBRANCH  11  17
ENDBRANCH   8  11
ENDBRANCH   4   7
ENDBRANCH   1   4
BRANCH   1  55
ATOM     55  C   UNL A   1      36.287  22.486  24.271  1.00  0.00    -0.052 C 
ATOM     56  H   UNL A   1      37.009  22.651  23.499  1.00  0.00     0.027 H 
ATOM     57  H   UNL A   1      35.290  22.277  23.943  1.00  0.00     0.027 H 
BRANCH  55  58
ATOM     58  C   UNL A   1      36.713  21.215  25.030  1.00  0.00    -0.052 C 
ATOM     59  H   UNL A   1      36.208  20.390  24.575  1.00  0.00     0.027 H 
ATOM     60  H   UNL A   1      36.457  21.421  26.049  1.00  0.00     0.027 H 
BRANCH  58  61
ATOM     61  C   UNL A   1      38.202  20.858  25.086  1.00  0.00    -0.036 C 
ATOM     62  H   UNL A   1      38.635  21.094  24.136  1.00  0.00     0.028 H 
ATOM     63  H   UNL A   1      38.249  19.818  25.332  1.00  0.00     0.028 H 
BRANCH  61  64
ATOM     64  C   UNL A   1      38.998  21.575  26.150  1.00  0.00     0.018 C 
ATOM     65  H   UNL A   1      39.007  20.955  27.022  1.00  0.00     0.049 H 
ATOM     66  H   UNL A   1      38.511  22.518  26.280  1.00  0.00     0.049 H 
BRANCH  64  67
ATOM     67  N   UNL A   1      40.372  21.896  25.825  1.00  0.00    -0.352 N 
ATOM     68  C   UNL A   1      41.281  22.811  26.274  1.00  0.00     0.251 C 
ATOM     69  H   UNL A   1      40.735  21.320  25.116  1.00  0.00     0.163 HD
ATOM     70  O   UNL A   1      42.457  22.635  25.942  1.00  0.00    -0.269 OA
BRANCH  68  71
ATOM     71  C   UNL A   1      40.918  24.055  26.986  1.00  0.00     0.039 A 
ATOM     72  C   UNL A   1      39.926  24.945  26.591  1.00  0.00    -0.049 A 
ATOM     73  C   UNL A   1      41.729  24.382  28.088  1.00  0.00    -0.049 A 
ATOM     74  C   UNL A   1      39.911  26.228  27.112  1.00  0.00    -0.053 A 
ATOM     75  H   UNL A   1      39.205  24.651  25.913  1.00  0.00     0.063 H 
ATOM     76  C   UNL A   1      41.672  25.640  28.662  1.00  0.00    -0.053 A 
ATOM     77  H   UNL A   1      42.373  23.674  28.475  1.00  0.00     0.063 H 
ATOM     78  C   UNL A   1      40.836  26.592  28.099  1.00  0.00    -0.014 A 
ATOM     79  H   UNL A   1      39.219  26.915  26.773  1.00  0.00     0.063 H 
ATOM     80  H   UNL A   1      42.243  25.866  29.491  1.00  0.00     0.063 H 
BRANCH  78  81
ATOM     81  C   UNL A   1      40.779  27.948  28.627  1.00  0.00     0.031 A 
ATOM     82  C   UNL A   1      41.903  28.792  28.141  1.00  0.00     0.074 A 
ATOM     83  C   UNL A   1      39.797  28.407  29.433  1.00  0.00     0.049 A 
ATOM     84  N   UNL A   1      42.888  29.249  28.841  1.00  0.00    -0.248 NA
ATOM     85  C   UNL A   1      42.066  28.973  26.689  1.00  0.00    -0.034 C 
ATOM     86  C   UNL A   1      38.555  27.748  29.840  1.00  0.00    -0.036 A 
ATOM     87  N   UNL A   1      39.695  29.626  30.042  1.00  0.00    -0.354 N 
ATOM     88  C   UNL A   1      43.699  29.945  27.951  1.00  0.00     0.074 A 
ATOM     89  C   UNL A   1      43.238  29.609  26.630  1.00  0.00    -0.034 C 
ATOM     90  H   UNL A   1      41.441  28.684  25.920  1.00  0.00     0.065 H 
ATOM     91  C   UNL A   1      37.729  28.648  30.428  1.00  0.00    -0.036 A 
ATOM     92  H   UNL A   1      38.340  26.749  29.701  1.00  0.00     0.065 H 
ATOM     93  C   UNL A   1      38.439  29.905  30.582  1.00  0.00     0.049 A 
ATOM     94  H   UNL A   1      40.448  30.258  30.094  1.00  0.00     0.167 HD
ATOM     95  C   UNL A   1      44.522  30.931  28.400  1.00  0.00     0.037 A 
ATOM     96  H   UNL A   1      43.743  29.830  25.758  1.00  0.00     0.065 H 
ATOM     97  H   UNL A   1      36.755  28.470  30.718  1.00  0.00     0.065 H 
ATOM     98  C   UNL A   1      38.028  31.095  31.102  1.00  0.00     0.037 A 
ATOM     99  C   UNL A   1      44.777  30.783  29.810  1.00  0.00     0.049 A 
ATOM    100  C   UNL A   1      39.253  31.838  31.489  1.00  0.00     0.074 A 
ATOM    101  C   UNL A   1      45.403  29.832  30.592  1.00  0.00    -0.036 A 
ATOM    102  N   UNL A   1      44.015  31.531  30.671  1.00  0.00    -0.354 N 
ATOM    103  N   UNL A   1      40.041  31.458  32.457  1.00  0.00    -0.248 NA
ATOM    104  C   UNL A   1      39.855  32.692  30.476  1.00  0.00    -0.034 C 
ATOM    105  C   UNL A   1      44.618  29.754  31.780  1.00  0.00    -0.036 A 
ATOM    106  H   UNL A   1      46.254  29.293  30.365  1.00  0.00     0.065 H 
ATOM    107  C   UNL A   1      43.610  30.715  31.694  1.00  0.00     0.049 A 
ATOM    108  H   UNL A   1      43.797  32.486  30.572  1.00  0.00     0.167 HD
ATOM    109  C   UNL A   1      41.318  31.646  31.955  1.00  0.00     0.074 A 
ATOM    110  C   UNL A   1      41.141  32.447  30.743  1.00  0.00    -0.034 C 
ATOM    111  H   UNL A   1      39.420  33.302  29.767  1.00  0.00     0.065 H 
ATOM    112  H   UNL A   1      44.768  29.102  32.565  1.00  0.00     0.065 H 
ATOM    113  C   UNL A   1      42.362  30.888  32.397  1.00  0.00     0.037 A 
ATOM    114  H   UNL A   1      41.922  32.785  30.160  1.00  0.00     0.065 H 
BRANCH  95 115
ATOM    115  C   UNL A   1      44.726  32.242  27.679  1.00  0.00     0.064 A 
ATOM    116  C   UNL A   1      45.901  32.429  26.923  1.00  0.00     0.173 A 
ATOM    117  C   UNL A   1      43.994  33.415  27.961  1.00  0.00     0.173 A 
ATOM    118  F   UNL A   1      46.688  31.387  26.612  1.00  0.00    -0.203 F 
ATOM    119  C   UNL A   1      46.351  33.702  26.560  1.00  0.00     0.198 A 
ATOM    120  C   UNL A   1      44.420  34.679  27.555  1.00  0.00     0.198 A 
ATOM    121  F   UNL A   1      42.902  33.412  28.735  1.00  0.00    -0.203 F 
ATOM    122  F   UNL A   1      47.541  33.840  25.960  1.00  0.00    -0.200 F 
ATOM    123  C   UNL A   1      45.614  34.825  26.884  1.00  0.00     0.200 A 
ATOM    124  F   UNL A   1      43.703  35.757  27.901  1.00  0.00    -0.200 F 
ATOM    125  F   UNL A   1      46.074  36.049  26.597  1.00  0.00    -0.200 F 
ENDBRANCH  95 115
BRANCH  98 126
ATOM    126  C   UNL A   1      36.725  31.794  30.927  1.00  0.00     0.064 A 
ATOM    127  C   UNL A   1      35.917  32.120  32.035  1.00  0.00     0.173 A 
ATOM    128  C   UNL A   1      36.403  32.440  29.718  1.00  0.00     0.173 A 
ATOM    129  F   UNL A   1      36.181  31.592  33.240  1.00  0.00    -0.203 F 
ATOM    130  C   UNL A   1      34.877  33.055  31.944  1.00  0.00     0.198 A 
ATOM    131  C   UNL A   1      35.366  33.372  29.628  1.00  0.00     0.198 A 
ATOM    132  F   UNL A   1      37.154  32.254  28.623  1.00  0.00    -0.203 F 
ATOM    133  F   UNL A   1      34.174  33.385  33.037  1.00  0.00    -0.200 F 
ATOM    134  C   UNL A   1      34.612  33.691  30.744  1.00  0.00     0.200 A 
ATOM    135  F   UNL A   1      35.146  34.013  28.471  1.00  0.00    -0.200 F 
ATOM    136  F   UNL A   1      33.664  34.636  30.670  1.00  0.00    -0.200 F 
ENDBRANCH  98 126
BRANCH 113 137
ATOM    137  C   UNL A   1      42.138  30.006  33.593  1.00  0.00     0.064 A 
ATOM    138  C   UNL A   1      41.682  28.677  33.520  1.00  0.00     0.173 A 
ATOM    139  C   UNL A   1      42.578  30.469  34.839  1.00  0.00     0.173 A 
ATOM    140  F   UNL A   1      41.324  28.134  32.349  1.00  0.00    -0.203 F 
ATOM    141  C   UNL A   1      41.658  27.859  34.649  1.00  0.00     0.198 A 
ATOM    142  C   UNL A   1      42.583  29.641  35.957  1.00  0.00     0.198 A 
ATOM    143  F   UNL A   1      43.068  31.713  34.956  1.00  0.00    -0.203 F 
ATOM    144  F   UNL A   1      41.233  26.590  34.555  1.00  0.00    -0.200 F 
ATOM    145  C   UNL A   1      42.120  28.338  35.864  1.00  0.00     0.200 A 
ATOM    146  F   UNL A   1      43.079  30.095  37.116  1.00  0.00    -0.200 F 
ATOM    147  F   UNL A   1      42.153  27.537  36.938  1.00  0.00    -0.200 F 
ENDBRANCH 113 137
ENDBRANCH  78  81
ENDBRANCH  68  71
ENDBRANCH  64  67
ENDBRANCH  61  64
ENDBRANCH  58  61
ENDBRANCH  55  58
ENDBRANCH   1  55
TORSDOF 18
ENDMDL
MODEL 2
REMARK VINA RESULT:     -13.5      3.201      9.611
REMARK SMILES [NH3+][C@@H](Cc1cn(-c2nc(Cl)nc(N3CCOCC3)n2)c2ccccc12)C(=O)NCCCCCCNC(=O)c1ccc(-c2c3nc(c(-c4c(F)c(F)c(F)c(F)c4F)c4ccc([nH]4)c(-c4c(F)c(F)c(F)c(F)c4F)c4nc(c(-c5c(F)c(F)c(F)c(F)c5F)c5ccc2[nH]5)C=C4)C=C3)cc1
REMARK SMILES IDX 30 1 29 4 28 7 26 8 27 9 2 11 1 13 3 17 4 20 5 21 25 22 6 23
REMARK SMILES IDX 20 25 24 26 21 27 23 28 22 30 7 34 8 35 19 36 9 37 12 38
REMARK SMILES IDX 10 39 11 40 13 41 14 42 18 43 15 44 17 47 16 50 31 55 32 58
REMARK SMILES IDX 33 61 34 64 35 67 36 68 37 70 38 71 39 72 100 73 40 74 99 76
REMARK SMILES IDX 41 78 42 81 43 82 93 83 44 84 98 85 92 86 94 87 45 88 97 89
REMARK SMILES IDX 91 91 90 93 46 95 78 98 58 99 77 100 59 101 62 102 76 103
REMARK SMILES IDX 95 104 60 105 61 107 75 109 96 110 63 113 47 115 48 116
REMARK SMILES IDX 56 117 49 118 50 119 54 120 57 121 51 122 52 123 55 124
REMARK SMILES IDX 53 125 79 126 80 127 88 128 81 129 82 130 86 131 89 132
REMARK SMILES IDX 83 133 84 134 87 135 85 136 64 137 65 138 73 139 66 140
REMARK SMILES IDX 67 141 71 142 74 143 68 144 69 145 72 146 70 147
REMARK H PARENT 30 2 30 3 29 5 29 6 28 10 2 12 1 14 1 15 1 16 3 18 3 19 5 24
REMARK H PARENT 24 29 21 31 23 32 22 33 14 45 14 46 18 48 18 49 15 51 15 52
REMARK H PARENT 17 53 17 54 31 56 31 57 32 59 32 60 33 62 33 63 34 65 34 66
REMARK H PARENT 35 69 39 75 100 77 40 79 99 80 98 90 92 92 94 94 97 96 91 97
REMARK H PARENT 59 106 62 108 95 111 60 112 96 114
REMARK Flexibility Score: inf
ROOT
ATOM      1  C   UNL A   1      30.320  27.816  24.018  1.00  0.00    -0.036 C 
ATOM      2  H   UNL A   1      30.134  26.948  24.615  1.00  0.00     0.028 H 
ATOM      3  H   UNL A   1      29.465  28.443  23.879  1.00  0.00     0.028 H 
ENDROOT
BRANCH   1   4
ATOM      4  C   UNL A   1      30.712  27.348  22.634  1.00  0.00     0.018 C 
ATOM      5  H   UNL A   1      30.354  26.346  22.518  1.00  0.00     0.049 H 
ATOM      6  H   UNL A   1      30.277  28.063  21.967  1.00  0.00     0.049 H 
BRANCH   4   7
ATOM      7  N   UNL A   1      32.111  27.347  22.318  1.00  0.00    -0.351 N 
ATOM      8  C   UNL A   1      32.926  26.258  22.155  1.00  0.00     0.278 C 
ATOM      9  O   UNL A   1      34.025  26.461  21.625  1.00  0.00    -0.268 OA
ATOM     10  H   UNL A   1      32.533  28.228  22.205  1.00  0.00     0.163 HD
BRANCH   8  11
ATOM     11  C   UNL A   1      32.535  24.822  22.624  1.00  0.00     0.168 C 
ATOM     12  H   UNL A   1      31.468  24.851  22.701  1.00  0.00     0.107 H 
BRANCH  11  13
ATOM     13  N   UNL A   1      32.851  23.803  21.596  1.00  0.00    -0.347 N 
ATOM     14  H   UNL A   1      33.863  23.730  21.491  1.00  0.00     0.345 HD
ATOM     15  H   UNL A   1      32.435  24.077  20.707  1.00  0.00     0.345 HD
ATOM     16  H   UNL A   1      32.473  22.901  21.884  1.00  0.00     0.345 HD
ENDBRANCH  11  13
BRANCH  11  17
ATOM     17  C   UNL A   1      32.860  24.435  24.087  1.00  0.00     0.036 C 
ATOM     18  H   UNL A   1      32.030  23.864  24.450  1.00  0.00     0.038 H 
ATOM     19  H   UNL A   1      33.044  25.376  24.562  1.00  0.00     0.038 H 
BRANCH  17  20
ATOM     20  C   UNL A   1      34.106  23.636  24.384  1.00  0.00    -0.015 A 
ATOM     21  C   UNL A   1      35.370  24.095  24.722  1.00  0.00     0.017 A 
ATOM     22  C   UNL A   1      34.185  22.204  24.421  1.00  0.00     0.004 A 
ATOM     23  N   UNL A   1      36.169  23.028  25.103  1.00  0.00    -0.285 N 
ATOM     24  H   UNL A   1      35.669  25.082  24.695  1.00  0.00     0.083 H 
ATOM     25  C   UNL A   1      35.482  21.844  24.819  1.00  0.00     0.056 A 
ATOM     26  C   UNL A   1      33.223  21.186  24.220  1.00  0.00    -0.053 A 
ATOM     27  C   UNL A   1      35.829  20.491  25.016  1.00  0.00    -0.037 A 
ATOM     28  C   UNL A   1      33.556  19.851  24.452  1.00  0.00    -0.062 A 
ATOM     29  H   UNL A   1      32.272  21.431  23.902  1.00  0.00     0.063 H 
ATOM     30  C   UNL A   1      34.844  19.511  24.846  1.00  0.00    -0.060 A 
ATOM     31  H   UNL A   1      36.792  20.229  25.280  1.00  0.00     0.065 H 
ATOM     32  H   UNL A   1      32.844  19.114  24.329  1.00  0.00     0.062 H 
ATOM     33  H   UNL A   1      35.078  18.520  25.018  1.00  0.00     0.062 H 
BRANCH  23  34
ATOM     34  C   UNL A   1      37.411  23.138  25.826  1.00  0.00     0.240 A 
ATOM     35  N   UNL A   1      37.747  24.325  26.307  1.00  0.00    -0.181 NA
ATOM     36  N   UNL A   1      38.191  22.042  25.920  1.00  0.00    -0.176 NA
ATOM     37  C   UNL A   1      38.895  24.304  26.972  1.00  0.00     0.228 A 
ATOM     38  C   UNL A   1      39.392  22.187  26.501  1.00  0.00     0.231 A 
ATOM     39  Cl  UNL A   1      39.278  25.738  27.819  1.00  0.00    -0.041 Cl
ATOM     40  N   UNL A   1      39.770  23.310  27.084  1.00  0.00    -0.182 NA
BRANCH  38  41
ATOM     41  N   UNL A   1      40.224  21.097  26.533  1.00  0.00    -0.336 N 
ATOM     42  C   UNL A   1      41.174  20.848  27.624  1.00  0.00     0.044 C 
ATOM     43  C   UNL A   1      39.719  19.826  26.014  1.00  0.00     0.044 C 
ATOM     44  C   UNL A   1      42.382  20.126  27.014  1.00  0.00     0.064 C 
ATOM     45  H   UNL A   1      40.719  20.234  28.374  1.00  0.00     0.052 H 
ATOM     46  H   UNL A   1      41.471  21.766  28.086  1.00  0.00     0.052 H 
ATOM     47  C   UNL A   1      40.934  19.034  25.479  1.00  0.00     0.064 C 
ATOM     48  H   UNL A   1      39.021  20.006  25.223  1.00  0.00     0.052 H 
ATOM     49  H   UNL A   1      39.216  19.277  26.781  1.00  0.00     0.052 H 
ATOM     50  O   UNL A   1      41.971  18.862  26.468  1.00  0.00    -0.378 OA
ATOM     51  H   UNL A   1      43.118  19.963  27.773  1.00  0.00     0.059 H 
ATOM     52  H   UNL A   1      42.796  20.730  26.232  1.00  0.00     0.059 H 
ATOM     53  H   UNL A   1      40.599  18.068  25.163  1.00  0.00     0.059 H 
ATOM     54  H   UNL A   1      41.352  19.594  24.669  1.00  0.00     0.059 H 
ENDBRANCH  38  41
ENDBRANCH  23  34
ENDBRANCH  17  20
ENDBRANCH  11  17
ENDBRANCH   8  11
ENDBRANCH   4   7
ENDBRANCH   1   4
BRANCH   1  55
ATOM     55  C   UNL A   1      31.346  28.674  24.749  1.00  0.00    -0.052 C 
ATOM     56  H   UNL A   1      30.862  29.592  25.011  1.00  0.00     0.027 H 
ATOM     57  H   UNL A   1      32.161  28.755  24.061  1.00  0.00     0.027 H 
BRANCH  55  58
ATOM     58  C   UNL A   1      31.986  28.112  26.033  1.00  0.00    -0.052 C 
ATOM     59  H   UNL A   1      32.908  27.650  25.751  1.00  0.00     0.027 H 
ATOM     60  H   UNL A   1      31.236  27.462  26.434  1.00  0.00     0.027 H 
BRANCH  58  61
ATOM     61  C   UNL A   1      32.296  29.078  27.181  1.00  0.00    -0.036 C 
ATOM     62  H   UNL A   1      32.480  28.497  28.060  1.00  0.00     0.028 H 
ATOM     63  H   UNL A   1      31.446  29.723  27.263  1.00  0.00     0.028 H 
BRANCH  61  64
ATOM     64  C   UNL A   1      33.485  29.981  26.961  1.00  0.00     0.018 C 
ATOM     65  H   UNL A   1      33.315  30.528  26.058  1.00  0.00     0.049 H 
ATOM     66  H   UNL A   1      34.333  29.330  26.934  1.00  0.00     0.049 H 
BRANCH  64  67
ATOM     67  N   UNL A   1      33.772  30.939  28.008  1.00  0.00    -0.352 N 
ATOM     68  C   UNL A   1      34.908  31.502  28.516  1.00  0.00     0.251 C 
ATOM     69  H   UNL A   1      32.958  31.260  28.459  1.00  0.00     0.163 HD
ATOM     70  O   UNL A   1      34.762  32.484  29.249  1.00  0.00    -0.269 OA
BRANCH  68  71
ATOM     71  C   UNL A   1      36.258  30.918  28.364  1.00  0.00     0.039 A 
ATOM     72  C   UNL A   1      36.539  29.691  27.773  1.00  0.00    -0.049 A 
ATOM     73  C   UNL A   1      37.303  31.641  28.966  1.00  0.00    -0.049 A 
ATOM     74  C   UNL A   1      37.765  29.088  27.999  1.00  0.00    -0.053 A 
ATOM     75  H   UNL A   1      35.838  29.233  27.169  1.00  0.00     0.063 H 
ATOM     76  C   UNL A   1      38.554  31.072  29.136  1.00  0.00    -0.053 A 
ATOM     77  H   UNL A   1      37.136  32.608  29.286  1.00  0.00     0.063 H 
ATOM     78  C   UNL A   1      38.745  29.755  28.745  1.00  0.00    -0.014 A 
ATOM     79  H   UNL A   1      37.955  28.147  27.620  1.00  0.00     0.063 H 
ATOM     80  H   UNL A   1      39.328  31.616  29.547  1.00  0.00     0.063 H 
BRANCH  78  81
ATOM     81  C   UNL A   1      40.024  29.089  28.951  1.00  0.00     0.031 A 
ATOM     82  C   UNL A   1      40.241  28.709  30.373  1.00  0.00     0.074 A 
ATOM     83  C   UNL A   1      40.900  28.807  27.962  1.00  0.00     0.049 A 
ATOM     84  N   UNL A   1      41.105  29.218  31.187  1.00  0.00    -0.248 NA
ATOM     85  C   UNL A   1      39.259  27.822  31.018  1.00  0.00    -0.034 C 
ATOM     86  C   UNL A   1      40.738  28.962  26.515  1.00  0.00    -0.036 A 
ATOM     87  N   UNL A   1      42.149  28.263  28.060  1.00  0.00    -0.354 N 
ATOM     88  C   UNL A   1      40.907  28.574  32.404  1.00  0.00     0.074 A 
ATOM     89  C   UNL A   1      39.668  27.851  32.288  1.00  0.00    -0.034 C 
ATOM     90  H   UNL A   1      38.465  27.312  30.600  1.00  0.00     0.065 H 
ATOM     91  C   UNL A   1      41.740  28.316  25.870  1.00  0.00    -0.036 A 
ATOM     92  H   UNL A   1      39.977  29.485  26.056  1.00  0.00     0.065 H 
ATOM     93  C   UNL A   1      42.696  27.836  26.850  1.00  0.00     0.049 A 
ATOM     94  H   UNL A   1      42.625  28.179  28.918  1.00  0.00     0.167 HD
ATOM     95  C   UNL A   1      41.917  28.500  33.314  1.00  0.00     0.037 A 
ATOM     96  H   UNL A   1      39.166  27.416  33.077  1.00  0.00     0.065 H 
ATOM     97  H   UNL A   1      41.811  28.186  24.849  1.00  0.00     0.065 H 
ATOM     98  C   UNL A   1      43.849  27.128  26.688  1.00  0.00     0.037 A 
ATOM     99  C   UNL A   1      42.903  29.522  33.067  1.00  0.00     0.049 A 
ATOM    100  C   UNL A   1      44.668  27.362  27.904  1.00  0.00     0.074 A 
ATOM    101  C   UNL A   1      42.903  30.903  33.099  1.00  0.00    -0.036 A 
ATOM    102  N   UNL A   1      44.016  29.165  32.350  1.00  0.00    -0.354 N 
ATOM    103  N   UNL A   1      45.186  28.521  28.201  1.00  0.00    -0.248 NA
ATOM    104  C   UNL A   1      44.472  26.447  29.019  1.00  0.00    -0.034 C 
ATOM    105  C   UNL A   1      43.729  31.298  32.006  1.00  0.00    -0.036 A 
ATOM    106  H   UNL A   1      42.412  31.516  33.769  1.00  0.00     0.065 H 
ATOM    107  C   UNL A   1      44.250  30.145  31.421  1.00  0.00     0.049 A 
ATOM    108  H   UNL A   1      44.551  28.349  32.477  1.00  0.00     0.167 HD
ATOM    109  C   UNL A   1      44.971  28.655  29.563  1.00  0.00     0.074 A 
ATOM    110  C   UNL A   1      44.562  27.326  30.020  1.00  0.00    -0.034 C 
ATOM    111  H   UNL A   1      44.313  25.427  29.031  1.00  0.00     0.065 H 
ATOM    112  H   UNL A   1      43.909  32.267  31.701  1.00  0.00     0.065 H 
ATOM    113  C   UNL A   1      44.853  29.887  30.135  1.00  0.00     0.037 A 
ATOM    114  H   UNL A   1      44.365  27.094  31.006  1.00  0.00     0.065 H 
BRANCH  95 115
ATOM    115  C   UNL A   1      42.225  27.263  34.121  1.00  0.00     0.064 A 
ATOM    116  C   UNL A   1      41.936  27.259  35.501  1.00  0.00     0.173 A 
ATOM    117  C   UNL A   1      43.077  26.228  33.678  1.00  0.00     0.173 A 
ATOM    118  F   UNL A   1      41.153  28.207  36.038  1.00  0.00    -0.203 F 
ATOM    119  C   UNL A   1      42.528  26.345  36.377  1.00  0.00     0.198 A 
ATOM    120  C   UNL A   1      43.627  25.288  34.548  1.00  0.00     0.198 A 
ATOM    121  F   UNL A   1      43.508  26.145  32.415  1.00  0.00    -0.203 F 
ATOM    122  F   UNL A   1      42.328  26.464  37.697  1.00  0.00    -0.200 F 
ATOM    123  C   UNL A   1      43.379  25.367  35.900  1.00  0.00     0.200 A 
ATOM    124  F   UNL A   1      44.470  24.363  34.068  1.00  0.00    -0.200 F 
ATOM    125  F   UNL A   1      43.999  24.532  36.744  1.00  0.00    -0.200 F 
ENDBRANCH  95 115
BRANCH  98 126
ATOM    126  C   UNL A   1      44.123  25.978  25.784  1.00  0.00     0.064 A 
ATOM    127  C   UNL A   1      45.425  25.712  25.315  1.00  0.00     0.173 A 
ATOM    128  C   UNL A   1      43.186  24.938  25.625  1.00  0.00     0.173 A 
ATOM    129  F   UNL A   1      46.396  26.624  25.470  1.00  0.00    -0.203 F 
ATOM    130  C   UNL A   1      45.773  24.475  24.755  1.00  0.00     0.198 A 
ATOM    131  C   UNL A   1      43.534  23.705  25.066  1.00  0.00     0.198 A 
ATOM    132  F   UNL A   1      41.940  25.063  26.101  1.00  0.00    -0.203 F 
ATOM    133  F   UNL A   1      47.039  24.239  24.381  1.00  0.00    -0.200 F 
ATOM    134  C   UNL A   1      44.831  23.468  24.644  1.00  0.00     0.200 A 
ATOM    135  F   UNL A   1      42.623  22.723  25.003  1.00  0.00    -0.200 F 
ATOM    136  F   UNL A   1      45.176  22.261  24.174  1.00  0.00    -0.200 F 
ENDBRANCH  98 126
BRANCH 113 137
ATOM    137  C   UNL A   1      45.183  31.090  29.297  1.00  0.00     0.064 A 
ATOM    138  C   UNL A   1      44.262  31.747  28.461  1.00  0.00     0.173 A 
ATOM    139  C   UNL A   1      46.427  31.703  29.493  1.00  0.00     0.173 A 
ATOM    140  F   UNL A   1      43.023  31.269  28.290  1.00  0.00    -0.203 F 
ATOM    141  C   UNL A   1      44.583  32.955  27.842  1.00  0.00     0.198 A 
ATOM    142  C   UNL A   1      46.732  32.924  28.900  1.00  0.00     0.198 A 
ATOM    143  F   UNL A   1      47.326  31.144  30.318  1.00  0.00    -0.203 F 
ATOM    144  F   UNL A   1      43.685  33.573  27.060  1.00  0.00    -0.200 F 
ATOM    145  C   UNL A   1      45.813  33.549  28.073  1.00  0.00     0.200 A 
ATOM    146  F   UNL A   1      47.904  33.516  29.168  1.00  0.00    -0.200 F 
ATOM    147  F   UNL A   1      46.102  34.738  27.527  1.00  0.00    -0.200 F 
ENDBRANCH 113 137
ENDBRANCH  78  81
ENDBRANCH  68  71
ENDBRANCH  64  67
ENDBRANCH  61  64
ENDBRANCH  58  61
ENDBRANCH  55  58
ENDBRANCH   1  55
TORSDOF 18
ENDMDL
MODEL 3
REMARK VINA RESULT:     -13.4      0.995      1.994
REMARK SMILES [NH3+][C@@H](Cc1cn(-c2nc(Cl)nc(N3CCOCC3)n2)c2ccccc12)C(=O)NCCCCCCNC(=O)c1ccc(-c2c3nc(c(-c4c(F)c(F)c(F)c(F)c4F)c4ccc([nH]4)c(-c4c(F)c(F)c(F)c(F)c4F)c4nc(c(-c5c(F)c(F)c(F)c(F)c5F)c5ccc2[nH]5)C=C4)C=C3)cc1
REMARK SMILES IDX 30 1 29 4 28 7 26 8 27 9 2 11 1 13 3 17 4 20 5 21 25 22 6 23
REMARK SMILES IDX 20 25 24 26 21 27 23 28 22 30 7 34 8 35 19 36 9 37 12 38
REMARK SMILES IDX 10 39 11 40 13 41 14 42 18 43 15 44 17 47 16 50 31 55 32 58
REMARK SMILES IDX 33 61 34 64 35 67 36 68 37 70 38 71 39 72 100 73 40 74 99 76
REMARK SMILES IDX 41 78 42 81 43 82 93 83 44 84 98 85 92 86 94 87 45 88 97 89
REMARK SMILES IDX 91 91 90 93 46 95 78 98 58 99 77 100 59 101 62 102 76 103
REMARK SMILES IDX 95 104 60 105 61 107 75 109 96 110 63 113 47 115 48 116
REMARK SMILES IDX 56 117 49 118 50 119 54 120 57 121 51 122 52 123 55 124
REMARK SMILES IDX 53 125 79 126 80 127 88 128 81 129 82 130 86 131 89 132
REMARK SMILES IDX 83 133 84 134 87 135 85 136 64 137 65 138 73 139 66 140
REMARK SMILES IDX 67 141 71 142 74 143 68 144 69 145 72 146 70 147
REMARK H PARENT 30 2 30 3 29 5 29 6 28 10 2 12 1 14 1 15 1 16 3 18 3 19 5 24
REMARK H PARENT 24 29 21 31 23 32 22 33 14 45 14 46 18 48 18 49 15 51 15 52
REMARK H PARENT 17 53 17 54 31 56 31 57 32 59 32 60 33 62 33 63 34 65 34 66
REMARK H PARENT 35 69 39 75 100 77 40 79 99 80 98 90 92 92 94 94 97 96 91 97
REMARK H PARENT 59 106 62 108 95 111 60 112 96 114
REMARK Flexibility Score: inf
ROOT
ATOM      1  C   UNL A   1      34.356  20.691  24.423  1.00  0.00    -0.036 C 
ATOM      2  H   UNL A   1      33.846  21.486  23.921  1.00  0.00     0.028 H 
ATOM      3  H   UNL A   1      34.627  19.874  23.787  1.00  0.00     0.028 H 
ENDROOT
BRANCH   1   4
ATOM      4  C   UNL A   1      33.409  20.111  25.449  1.00  0.00     0.018 C 
ATOM      5  H   UNL A   1      33.306  19.066  25.239  1.00  0.00     0.049 H 
ATOM      6  H   UNL A   1      33.854  20.339  26.396  1.00  0.00     0.049 H 
BRANCH   4   7
ATOM      7  N   UNL A   1      32.091  20.672  25.511  1.00  0.00    -0.351 N 
ATOM      8  C   UNL A   1      31.722  21.870  26.062  1.00  0.00     0.278 C 
ATOM      9  O   UNL A   1      30.594  22.289  25.775  1.00  0.00    -0.268 OA
ATOM     10  H   UNL A   1      31.370  20.135  25.111  1.00  0.00     0.163 HD
BRANCH   8  11
ATOM     11  C   UNL A   1      32.639  22.684  27.026  1.00  0.00     0.168 C 
ATOM     12  H   UNL A   1      31.962  23.304  27.575  1.00  0.00     0.107 H 
BRANCH  11  13
ATOM     13  N   UNL A   1      33.303  21.810  28.021  1.00  0.00    -0.347 N 
ATOM     14  H   UNL A   1      34.314  21.934  27.962  1.00  0.00     0.345 HD
ATOM     15  H   UNL A   1      33.068  20.837  27.829  1.00  0.00     0.345 HD
ATOM     16  H   UNL A   1      32.985  22.058  28.957  1.00  0.00     0.345 HD
ENDBRANCH  11  13
BRANCH  11  17
ATOM     17  C   UNL A   1      33.517  23.798  26.407  1.00  0.00     0.036 C 
ATOM     18  H   UNL A   1      34.229  23.316  25.769  1.00  0.00     0.038 H 
ATOM     19  H   UNL A   1      33.904  24.317  27.258  1.00  0.00     0.038 H 
BRANCH  17  20
ATOM     20  C   UNL A   1      32.865  24.889  25.591  1.00  0.00    -0.015 A 
ATOM     21  C   UNL A   1      32.267  26.060  26.031  1.00  0.00     0.017 A 
ATOM     22  C   UNL A   1      32.799  24.927  24.158  1.00  0.00     0.004 A 
ATOM     23  N   UNL A   1      31.973  26.872  24.945  1.00  0.00    -0.285 N 
ATOM     24  H   UNL A   1      32.070  26.292  27.017  1.00  0.00     0.083 H 
ATOM     25  C   UNL A   1      32.200  26.138  23.777  1.00  0.00     0.056 A 
ATOM     26  C   UNL A   1      33.278  24.053  23.154  1.00  0.00    -0.053 A 
ATOM     27  C   UNL A   1      32.070  26.484  22.416  1.00  0.00    -0.037 A 
ATOM     28  C   UNL A   1      33.183  24.414  21.809  1.00  0.00    -0.062 A 
ATOM     29  H   UNL A   1      33.697  23.148  23.416  1.00  0.00     0.063 H 
ATOM     30  C   UNL A   1      32.588  25.615  21.447  1.00  0.00    -0.060 A 
ATOM     31  H   UNL A   1      31.602  27.361  22.139  1.00  0.00     0.065 H 
ATOM     32  H   UNL A   1      33.557  23.785  21.080  1.00  0.00     0.062 H 
ATOM     33  H   UNL A   1      32.527  25.872  20.449  1.00  0.00     0.062 H 
BRANCH  23  34
ATOM     34  C   UNL A   1      31.662  28.276  25.020  1.00  0.00     0.240 A 
ATOM     35  N   UNL A   1      32.195  28.979  26.007  1.00  0.00    -0.181 NA
ATOM     36  N   UNL A   1      30.797  28.785  24.119  1.00  0.00    -0.176 NA
ATOM     37  C   UNL A   1      31.859  30.262  25.965  1.00  0.00     0.228 A 
ATOM     38  C   UNL A   1      30.434  30.069  24.268  1.00  0.00     0.231 A 
ATOM     39  Cl  UNL A   1      32.692  31.275  27.062  1.00  0.00    -0.041 Cl
ATOM     40  N   UNL A   1      30.981  30.864  25.168  1.00  0.00    -0.182 NA
BRANCH  38  41
ATOM     41  N   UNL A   1      29.497  30.573  23.402  1.00  0.00    -0.336 N 
ATOM     42  C   UNL A   1      28.571  29.723  22.644  1.00  0.00     0.044 C 
ATOM     43  C   UNL A   1      28.844  31.836  23.747  1.00  0.00     0.044 C 
ATOM     44  C   UNL A   1      28.291  30.436  21.315  1.00  0.00     0.064 C 
ATOM     45  H   UNL A   1      27.660  29.595  23.191  1.00  0.00     0.052 H 
ATOM     46  H   UNL A   1      28.994  28.755  22.476  1.00  0.00     0.052 H 
ATOM     47  C   UNL A   1      28.462  32.532  22.420  1.00  0.00     0.064 C 
ATOM     48  H   UNL A   1      29.516  32.454  24.306  1.00  0.00     0.052 H 
ATOM     49  H   UNL A   1      27.976  31.662  24.347  1.00  0.00     0.052 H 
ATOM     50  O   UNL A   1      27.653  31.699  21.562  1.00  0.00    -0.378 OA
ATOM     51  H   UNL A   1      27.649  29.826  20.713  1.00  0.00     0.059 H 
ATOM     52  H   UNL A   1      29.216  30.602  20.802  1.00  0.00     0.059 H 
ATOM     53  H   UNL A   1      27.915  33.423  22.648  1.00  0.00     0.059 H 
ATOM     54  H   UNL A   1      29.371  32.746  21.896  1.00  0.00     0.059 H 
ENDBRANCH  38  41
ENDBRANCH  23  34
ENDBRANCH  17  20
ENDBRANCH  11  17
ENDBRANCH   8  11
ENDBRANCH   4   7
ENDBRANCH   1   4
BRANCH   1  55
ATOM     55  C   UNL A   1      35.669  21.246  24.963  1.00  0.00    -0.052 C 
ATOM     56  H   UNL A   1      36.329  20.416  25.107  1.00  0.00     0.027 H 
ATOM     57  H   UNL A   1      35.387  21.778  25.848  1.00  0.00     0.027 H 
BRANCH  55  58
ATOM     58  C   UNL A   1      36.424  22.288  24.116  1.00  0.00    -0.052 C 
ATOM     59  H   UNL A   1      35.737  22.660  23.385  1.00  0.00     0.027 H 
ATOM     60  H   UNL A   1      37.271  21.754  23.739  1.00  0.00     0.027 H 
BRANCH  58  61
ATOM     61  C   UNL A   1      37.034  23.504  24.822  1.00  0.00    -0.036 C 
ATOM     62  H   UNL A   1      36.252  24.214  24.992  1.00  0.00     0.028 H 
ATOM     63  H   UNL A   1      37.807  23.864  24.176  1.00  0.00     0.028 H 
BRANCH  61  64
ATOM     64  C   UNL A   1      37.697  23.215  26.146  1.00  0.00     0.018 C 
ATOM     65  H   UNL A   1      37.039  22.589  26.710  1.00  0.00     0.049 H 
ATOM     66  H   UNL A   1      37.884  24.174  26.584  1.00  0.00     0.049 H 
BRANCH  64  67
ATOM     67  N   UNL A   1      38.988  22.561  26.094  1.00  0.00    -0.352 N 
ATOM     68  C   UNL A   1      40.227  22.832  26.599  1.00  0.00     0.251 C 
ATOM     69  H   UNL A   1      38.967  21.727  25.574  1.00  0.00     0.163 HD
ATOM     70  O   UNL A   1      41.053  21.914  26.568  1.00  0.00    -0.269 OA
BRANCH  68  71
ATOM     71  C   UNL A   1      40.670  24.176  27.027  1.00  0.00     0.039 A 
ATOM     72  C   UNL A   1      41.543  24.436  28.077  1.00  0.00    -0.049 A 
ATOM     73  C   UNL A   1      40.059  25.256  26.364  1.00  0.00    -0.049 A 
ATOM     74  C   UNL A   1      41.608  25.712  28.613  1.00  0.00    -0.053 A 
ATOM     75  H   UNL A   1      42.140  23.684  28.455  1.00  0.00     0.063 H 
ATOM     76  C   UNL A   1      40.174  26.546  26.853  1.00  0.00    -0.053 A 
ATOM     77  H   UNL A   1      39.519  25.085  25.501  1.00  0.00     0.063 H 
ATOM     78  C   UNL A   1      40.863  26.750  28.038  1.00  0.00    -0.014 A 
ATOM     79  H   UNL A   1      42.203  25.896  29.436  1.00  0.00     0.063 H 
ATOM     80  H   UNL A   1      39.754  27.340  26.345  1.00  0.00     0.063 H 
BRANCH  78  81
ATOM     81  C   UNL A   1      40.967  28.078  28.628  1.00  0.00     0.031 A 
ATOM     82  C   UNL A   1      42.218  28.778  28.229  1.00  0.00     0.074 A 
ATOM     83  C   UNL A   1      40.020  28.635  29.413  1.00  0.00     0.049 A 
ATOM     84  N   UNL A   1      43.221  29.065  28.989  1.00  0.00    -0.248 NA
ATOM     85  C   UNL A   1      42.472  28.994  26.795  1.00  0.00    -0.034 C 
ATOM     86  C   UNL A   1      38.681  28.137  29.737  1.00  0.00    -0.036 A 
ATOM     87  N   UNL A   1      40.056  29.829  30.074  1.00  0.00    -0.354 N 
ATOM     88  C   UNL A   1      44.161  29.678  28.168  1.00  0.00     0.074 A 
ATOM     89  C   UNL A   1      43.721  29.464  26.814  1.00  0.00    -0.034 C 
ATOM     90  H   UNL A   1      41.851  28.826  25.988  1.00  0.00     0.065 H 
ATOM     91  C   UNL A   1      37.959  29.118  30.333  1.00  0.00    -0.036 A 
ATOM     92  H   UNL A   1      38.339  27.184  29.542  1.00  0.00     0.065 H 
ATOM     93  C   UNL A   1      38.826  30.257  30.575  1.00  0.00     0.049 A 
ATOM     94  H   UNL A   1      40.885  30.348  30.187  1.00  0.00     0.167 HD
ATOM     95  C   UNL A   1      45.089  30.521  28.696  1.00  0.00     0.037 A 
ATOM     96  H   UNL A   1      44.292  29.649  25.975  1.00  0.00     0.065 H 
ATOM     97  H   UNL A   1      36.958  29.064  30.574  1.00  0.00     0.065 H 
ATOM     98  C   UNL A   1      38.557  31.470  31.134  1.00  0.00     0.037 A 
ATOM     99  C   UNL A   1      45.254  30.281  30.107  1.00  0.00     0.049 A 
ATOM    100  C   UNL A   1      39.853  32.020  31.605  1.00  0.00     0.074 A 
ATOM    101  C   UNL A   1      45.706  29.221  30.868  1.00  0.00    -0.036 A 
ATOM    102  N   UNL A   1      44.562  31.091  30.970  1.00  0.00    -0.354 N 
ATOM    103  N   UNL A   1      40.534  31.495  32.586  1.00  0.00    -0.248 NA
ATOM    104  C   UNL A   1      40.613  32.823  30.660  1.00  0.00    -0.034 C 
ATOM    105  C   UNL A   1      44.863  29.204  32.017  1.00  0.00    -0.036 A 
ATOM    106  H   UNL A   1      46.486  28.579  30.651  1.00  0.00     0.065 H 
ATOM    107  C   UNL A   1      44.001  30.297  31.936  1.00  0.00     0.049 A 
ATOM    108  H   UNL A   1      44.480  32.070  30.907  1.00  0.00     0.167 HD
ATOM    109  C   UNL A   1      41.848  31.525  32.146  1.00  0.00     0.074 A 
ATOM    110  C   UNL A   1      41.839  32.392  30.967  1.00  0.00    -0.034 C 
ATOM    111  H   UNL A   1      40.299  33.517  29.963  1.00  0.00     0.065 H 
ATOM    112  H   UNL A   1      44.886  28.505  32.776  1.00  0.00     0.065 H 
ATOM    113  C   UNL A   1      42.757  30.612  32.594  1.00  0.00     0.037 A 
ATOM    114  H   UNL A   1      42.685  32.643  30.434  1.00  0.00     0.065 H 
BRANCH  95 115
ATOM    115  C   UNL A   1      45.503  31.819  28.047  1.00  0.00     0.064 A 
ATOM    116  C   UNL A   1      44.508  32.755  27.697  1.00  0.00     0.173 A 
ATOM    117  C   UNL A   1      46.771  32.038  27.465  1.00  0.00     0.173 A 
ATOM    118  F   UNL A   1      43.259  32.636  28.174  1.00  0.00    -0.203 F 
ATOM    119  C   UNL A   1      44.744  33.772  26.767  1.00  0.00     0.198 A 
ATOM    120  C   UNL A   1      47.016  33.082  26.576  1.00  0.00     0.198 A 
ATOM    121  F   UNL A   1      47.793  31.192  27.636  1.00  0.00    -0.203 F 
ATOM    122  F   UNL A   1      43.733  34.553  26.365  1.00  0.00    -0.200 F 
ATOM    123  C   UNL A   1      45.996  33.928  26.202  1.00  0.00     0.200 A 
ATOM    124  F   UNL A   1      48.230  33.200  26.021  1.00  0.00    -0.200 F 
ATOM    125  F   UNL A   1      46.208  34.858  25.262  1.00  0.00    -0.200 F 
ENDBRANCH  95 115
BRANCH  98 126
ATOM    126  C   UNL A   1      37.372  32.349  30.939  1.00  0.00     0.064 A 
ATOM    127  C   UNL A   1      37.112  32.958  29.695  1.00  0.00     0.173 A 
ATOM    128  C   UNL A   1      36.307  32.351  31.860  1.00  0.00     0.173 A 
ATOM    129  F   UNL A   1      38.050  32.960  28.736  1.00  0.00    -0.203 F 
ATOM    130  C   UNL A   1      35.858  33.502  29.383  1.00  0.00     0.198 A 
ATOM    131  C   UNL A   1      35.057  32.892  31.548  1.00  0.00     0.198 A 
ATOM    132  F   UNL A   1      36.428  31.734  33.044  1.00  0.00    -0.203 F 
ATOM    133  F   UNL A   1      35.631  34.013  28.164  1.00  0.00    -0.200 F 
ATOM    134  C   UNL A   1      34.827  33.455  30.305  1.00  0.00     0.200 A 
ATOM    135  F   UNL A   1      34.054  32.803  32.434  1.00  0.00    -0.200 F 
ATOM    136  F   UNL A   1      33.607  33.910  29.986  1.00  0.00    -0.200 F 
ENDBRANCH  98 126
BRANCH 113 137
ATOM    137  C   UNL A   1      42.358  29.721  33.737  1.00  0.00     0.064 A 
ATOM    138  C   UNL A   1      41.758  28.458  33.582  1.00  0.00     0.173 A 
ATOM    139  C   UNL A   1      42.769  30.085  35.025  1.00  0.00     0.173 A 
ATOM    140  F   UNL A   1      41.414  28.002  32.370  1.00  0.00    -0.203 F 
ATOM    141  C   UNL A   1      41.570  27.610  34.672  1.00  0.00     0.198 A 
ATOM    142  C   UNL A   1      42.609  29.224  36.106  1.00  0.00     0.198 A 
ATOM    143  F   UNL A   1      43.390  31.259  35.222  1.00  0.00    -0.203 F 
ATOM    144  F   UNL A   1      41.009  26.403  34.500  1.00  0.00    -0.200 F 
ATOM    145  C   UNL A   1      42.007  27.988  35.931  1.00  0.00     0.200 A 
ATOM    146  F   UNL A   1      43.080  29.576  37.310  1.00  0.00    -0.200 F 
ATOM    147  F   UNL A   1      41.880  27.151  36.970  1.00  0.00    -0.200 F 
ENDBRANCH 113 137
ENDBRANCH  78  81
ENDBRANCH  68  71
ENDBRANCH  64  67
ENDBRANCH  61  64
ENDBRANCH  58  61
ENDBRANCH  55  58
ENDBRANCH   1  55
TORSDOF 18
ENDMDL
MODEL 4
REMARK VINA RESULT:     -13.4      3.496      9.459
REMARK SMILES [NH3+][C@@H](Cc1cn(-c2nc(Cl)nc(N3CCOCC3)n2)c2ccccc12)C(=O)NCCCCCCNC(=O)c1ccc(-c2c3nc(c(-c4c(F)c(F)c(F)c(F)c4F)c4ccc([nH]4)c(-c4c(F)c(F)c(F)c(F)c4F)c4nc(c(-c5c(F)c(F)c(F)c(F)c5F)c5ccc2[nH]5)C=C4)C=C3)cc1
REMARK SMILES IDX 30 1 29 4 28 7 26 8 27 9 2 11 1 13 3 17 4 20 5 21 25 22 6 23
REMARK SMILES IDX 20 25 24 26 21 27 23 28 22 30 7 34 8 35 19 36 9 37 12 38
REMARK SMILES IDX 10 39 11 40 13 41 14 42 18 43 15 44 17 47 16 50 31 55 32 58
REMARK SMILES IDX 33 61 34 64 35 67 36 68 37 70 38 71 39 72 100 73 40 74 99 76
REMARK SMILES IDX 41 78 42 81 43 82 93 83 44 84 98 85 92 86 94 87 45 88 97 89
REMARK SMILES IDX 91 91 90 93 46 95 78 98 58 99 77 100 59 101 62 102 76 103
REMARK SMILES IDX 95 104 60 105 61 107 75 109 96 110 63 113 47 115 48 116
REMARK SMILES IDX 56 117 49 118 50 119 54 120 57 121 51 122 52 123 55 124
REMARK SMILES IDX 53 125 79 126 80 127 88 128 81 129 82 130 86 131 89 132
REMARK SMILES IDX 83 133 84 134 87 135 85 136 64 137 65 138 73 139 66 140
REMARK SMILES IDX 67 141 71 142 74 143 68 144 69 145 72 146 70 147
REMARK H PARENT 30 2 30 3 29 5 29 6 28 10 2 12 1 14 1 15 1 16 3 18 3 19 5 24
REMARK H PARENT 24 29 21 31 23 32 22 33 14 45 14 46 18 48 18 49 15 51 15 52
REMARK H PARENT 17 53 17 54 31 56 31 57 32 59 32 60 33 62 33 63 34 65 34 66
REMARK H PARENT 35 69 39 75 100 77 40 79 99 80 98 90 92 92 94 94 97 96 91 97
REMARK H PARENT 59 106 62 108 95 111 60 112 96 114
REMARK Flexibility Score: inf
ROOT
ATOM      1  C   UNL A   1      33.054  28.151  25.974  1.00  0.00    -0.036 C 
ATOM      2  H   UNL A   1      33.654  27.320  25.667  1.00  0.00     0.028 H 
ATOM      3  H   UNL A   1      32.026  27.909  26.144  1.00  0.00     0.028 H 
ENDROOT
BRANCH   1   4
ATOM      4  C   UNL A   1      33.054  29.162  24.849  1.00  0.00     0.018 C 
ATOM      5  H   UNL A   1      32.046  29.263  24.506  1.00  0.00     0.049 H 
ATOM      6  H   UNL A   1      33.478  30.048  25.274  1.00  0.00     0.049 H 
BRANCH   4   7
ATOM      7  N   UNL A   1      33.872  28.868  23.709  1.00  0.00    -0.351 N 
ATOM      8  C   UNL A   1      33.497  28.222  22.560  1.00  0.00     0.278 C 
ATOM      9  O   UNL A   1      34.269  28.308  21.598  1.00  0.00    -0.268 OA
ATOM     10  H   UNL A   1      34.809  29.165  23.756  1.00  0.00     0.163 HD
BRANCH   8  11
ATOM     11  C   UNL A   1      32.183  27.390  22.441  1.00  0.00     0.168 C 
ATOM     12  H   UNL A   1      31.946  27.123  23.449  1.00  0.00     0.107 H 
BRANCH  11  13
ATOM     13  N   UNL A   1      31.053  28.214  21.951  1.00  0.00    -0.347 N 
ATOM     14  H   UNL A   1      31.189  29.182  22.240  1.00  0.00     0.345 HD
ATOM     15  H   UNL A   1      30.180  27.860  22.342  1.00  0.00     0.345 HD
ATOM     16  H   UNL A   1      31.014  28.165  20.933  1.00  0.00     0.345 HD
ENDBRANCH  11  13
BRANCH  11  17
ATOM     17  C   UNL A   1      32.292  25.964  21.847  1.00  0.00     0.036 C 
ATOM     18  H   UNL A   1      33.171  25.947  21.238  1.00  0.00     0.038 H 
ATOM     19  H   UNL A   1      31.355  25.826  21.349  1.00  0.00     0.038 H 
BRANCH  17  20
ATOM     20  C   UNL A   1      32.379  24.778  22.778  1.00  0.00    -0.015 A 
ATOM     21  C   UNL A   1      33.201  23.665  22.688  1.00  0.00     0.017 A 
ATOM     22  C   UNL A   1      31.633  24.619  23.993  1.00  0.00     0.004 A 
ATOM     23  N   UNL A   1      33.101  22.914  23.850  1.00  0.00    -0.285 N 
ATOM     24  H   UNL A   1      33.797  23.431  21.878  1.00  0.00     0.083 H 
ATOM     25  C   UNL A   1      32.057  23.436  24.618  1.00  0.00     0.056 A 
ATOM     26  C   UNL A   1      30.682  25.437  24.647  1.00  0.00    -0.053 A 
ATOM     27  C   UNL A   1      31.546  23.060  25.878  1.00  0.00    -0.037 A 
ATOM     28  C   UNL A   1      30.205  25.084  25.910  1.00  0.00    -0.062 A 
ATOM     29  H   UNL A   1      30.340  26.296  24.189  1.00  0.00     0.063 H 
ATOM     30  C   UNL A   1      30.634  23.911  26.517  1.00  0.00    -0.060 A 
ATOM     31  H   UNL A   1      31.837  22.175  26.321  1.00  0.00     0.065 H 
ATOM     32  H   UNL A   1      29.531  25.697  26.395  1.00  0.00     0.062 H 
ATOM     33  H   UNL A   1      30.277  23.662  27.453  1.00  0.00     0.062 H 
BRANCH  23  34
ATOM     34  C   UNL A   1      34.032  21.893  24.260  1.00  0.00     0.240 A 
ATOM     35  N   UNL A   1      35.305  22.230  24.393  1.00  0.00    -0.181 NA
ATOM     36  N   UNL A   1      33.566  20.639  24.426  1.00  0.00    -0.176 NA
ATOM     37  C   UNL A   1      36.065  21.219  24.796  1.00  0.00     0.228 A 
ATOM     38  C   UNL A   1      34.463  19.679  24.701  1.00  0.00     0.231 A 
ATOM     39  Cl  UNL A   1      37.670  21.630  25.215  1.00  0.00    -0.041 Cl
ATOM     40  N   UNL A   1      35.735  19.940  24.937  1.00  0.00    -0.182 NA
BRANCH  38  41
ATOM     41  N   UNL A   1      34.009  18.388  24.796  1.00  0.00    -0.336 N 
ATOM     42  C   UNL A   1      32.589  18.031  24.698  1.00  0.00     0.044 C 
ATOM     43  C   UNL A   1      34.831  17.321  24.224  1.00  0.00     0.044 C 
ATOM     44  C   UNL A   1      32.371  16.800  25.587  1.00  0.00     0.064 C 
ATOM     45  H   UNL A   1      32.338  17.801  23.683  1.00  0.00     0.052 H 
ATOM     46  H   UNL A   1      31.970  18.844  25.014  1.00  0.00     0.052 H 
ATOM     47  C   UNL A   1      34.555  16.040  25.043  1.00  0.00     0.064 C 
ATOM     48  H   UNL A   1      35.866  17.583  24.288  1.00  0.00     0.052 H 
ATOM     49  H   UNL A   1      34.591  17.171  23.192  1.00  0.00     0.052 H 
ATOM     50  O   UNL A   1      33.153  15.699  25.097  1.00  0.00    -0.378 OA
ATOM     51  H   UNL A   1      31.334  16.532  25.574  1.00  0.00     0.059 H 
ATOM     52  H   UNL A   1      32.672  17.030  26.588  1.00  0.00     0.059 H 
ATOM     53  H   UNL A   1      35.088  15.227  24.595  1.00  0.00     0.059 H 
ATOM     54  H   UNL A   1      34.880  16.223  26.046  1.00  0.00     0.059 H 
ENDBRANCH  38  41
ENDBRANCH  23  34
ENDBRANCH  17  20
ENDBRANCH  11  17
ENDBRANCH   8  11
ENDBRANCH   4   7
ENDBRANCH   1   4
BRANCH   1  55
ATOM     55  C   UNL A   1      33.589  28.643  27.315  1.00  0.00    -0.052 C 
ATOM     56  H   UNL A   1      33.958  27.787  27.841  1.00  0.00     0.027 H 
ATOM     57  H   UNL A   1      32.756  29.144  27.763  1.00  0.00     0.027 H 
BRANCH  55  58
ATOM     58  C   UNL A   1      34.712  29.697  27.310  1.00  0.00    -0.052 C 
ATOM     59  H   UNL A   1      35.161  29.676  26.340  1.00  0.00     0.027 H 
ATOM     60  H   UNL A   1      35.340  29.412  28.128  1.00  0.00     0.027 H 
BRANCH  58  61
ATOM     61  C   UNL A   1      34.349  31.155  27.609  1.00  0.00    -0.036 C 
ATOM     62  H   UNL A   1      33.404  31.165  28.109  1.00  0.00     0.028 H 
ATOM     63  H   UNL A   1      34.340  31.658  26.664  1.00  0.00     0.028 H 
BRANCH  61  64
ATOM     64  C   UNL A   1      35.339  31.903  28.469  1.00  0.00     0.018 C 
ATOM     65  H   UNL A   1      35.453  32.883  28.057  1.00  0.00     0.049 H 
ATOM     66  H   UNL A   1      36.229  31.309  28.457  1.00  0.00     0.049 H 
BRANCH  64  67
ATOM     67  N   UNL A   1      34.997  32.052  29.868  1.00  0.00    -0.352 N 
ATOM     68  C   UNL A   1      35.673  31.913  31.046  1.00  0.00     0.251 C 
ATOM     69  H   UNL A   1      34.058  32.314  30.001  1.00  0.00     0.163 HD
ATOM     70  O   UNL A   1      35.129  32.369  32.056  1.00  0.00    -0.269 OA
BRANCH  68  71
ATOM     71  C   UNL A   1      36.918  31.129  31.197  1.00  0.00     0.039 A 
ATOM     72  C   UNL A   1      38.199  31.664  31.267  1.00  0.00    -0.049 A 
ATOM     73  C   UNL A   1      36.763  29.731  31.161  1.00  0.00    -0.049 A 
ATOM     74  C   UNL A   1      39.295  30.846  31.049  1.00  0.00    -0.053 A 
ATOM     75  H   UNL A   1      38.333  32.665  31.479  1.00  0.00     0.063 H 
ATOM     76  C   UNL A   1      37.860  28.900  31.012  1.00  0.00    -0.053 A 
ATOM     77  H   UNL A   1      35.820  29.320  31.246  1.00  0.00     0.063 H 
ATOM     78  C   UNL A   1      39.112  29.472  30.850  1.00  0.00    -0.014 A 
ATOM     79  H   UNL A   1      40.245  31.249  31.032  1.00  0.00     0.063 H 
ATOM     80  H   UNL A   1      37.747  27.874  31.020  1.00  0.00     0.063 H 
BRANCH  78  81
ATOM     81  C   UNL A   1      40.293  28.646  30.634  1.00  0.00     0.031 A 
ATOM     82  C   UNL A   1      41.072  28.434  31.883  1.00  0.00     0.074 A 
ATOM     83  C   UNL A   1      40.625  28.096  29.446  1.00  0.00     0.049 A 
ATOM     84  N   UNL A   1      42.243  28.905  32.155  1.00  0.00    -0.248 NA
ATOM     85  C   UNL A   1      40.396  27.810  33.033  1.00  0.00    -0.034 C 
ATOM     86  C   UNL A   1      39.866  28.076  28.194  1.00  0.00    -0.036 A 
ATOM     87  N   UNL A   1      41.742  27.379  29.122  1.00  0.00    -0.354 N 
ATOM     88  C   UNL A   1      42.539  28.473  33.443  1.00  0.00     0.074 A 
ATOM     89  C   UNL A   1      41.316  27.947  33.989  1.00  0.00    -0.034 C 
ATOM     90  H   UNL A   1      39.459  27.380  33.085  1.00  0.00     0.065 H 
ATOM     91  C   UNL A   1      40.430  27.196  27.329  1.00  0.00    -0.036 A 
ATOM     92  H   UNL A   1      39.028  28.645  27.999  1.00  0.00     0.065 H 
ATOM     93  C   UNL A   1      41.672  26.709  27.900  1.00  0.00     0.049 A 
ATOM     94  H   UNL A   1      42.534  27.339  29.706  1.00  0.00     0.167 HD
ATOM     95  C   UNL A   1      43.833  28.365  33.851  1.00  0.00     0.037 A 
ATOM     96  H   UNL A   1      41.170  27.709  34.983  1.00  0.00     0.065 H 
ATOM     97  H   UNL A   1      40.039  26.918  26.416  1.00  0.00     0.065 H 
ATOM     98  C   UNL A   1      42.576  25.812  27.416  1.00  0.00     0.037 A 
ATOM     99  C   UNL A   1      44.697  29.174  33.030  1.00  0.00     0.049 A 
ATOM    100  C   UNL A   1      43.858  26.077  28.116  1.00  0.00     0.074 A 
ATOM    101  C   UNL A   1      44.829  30.529  32.794  1.00  0.00    -0.036 A 
ATOM    102  N   UNL A   1      45.354  28.551  32.000  1.00  0.00    -0.354 N 
ATOM    103  N   UNL A   1      44.550  27.169  27.945  1.00  0.00    -0.248 NA
ATOM    104  C   UNL A   1      44.088  25.366  29.364  1.00  0.00    -0.034 C 
ATOM    105  C   UNL A   1      45.128  30.635  31.404  1.00  0.00    -0.036 A 
ATOM    106  H   UNL A   1      44.730  31.298  33.476  1.00  0.00     0.065 H 
ATOM    107  C   UNL A   1      45.245  29.345  30.888  1.00  0.00     0.049 A 
ATOM    108  H   UNL A   1      45.820  27.685  32.049  1.00  0.00     0.167 HD
ATOM    109  C   UNL A   1      44.959  27.520  29.222  1.00  0.00     0.074 A 
ATOM    110  C   UNL A   1      44.677  26.348  30.051  1.00  0.00    -0.034 C 
ATOM    111  H   UNL A   1      43.864  24.396  29.636  1.00  0.00     0.065 H 
ATOM    112  H   UNL A   1      45.240  31.513  30.873  1.00  0.00     0.065 H 
ATOM    113  C   UNL A   1      45.206  28.822  29.544  1.00  0.00     0.037 A 
ATOM    114  H   UNL A   1      44.909  26.287  31.055  1.00  0.00     0.065 H 
BRANCH  95 115
ATOM    115  C   UNL A   1      44.354  27.217  34.680  1.00  0.00     0.064 A 
ATOM    116  C   UNL A   1      44.166  25.899  34.215  1.00  0.00     0.173 A 
ATOM    117  C   UNL A   1      44.727  27.332  36.037  1.00  0.00     0.173 A 
ATOM    118  F   UNL A   1      43.791  25.668  32.947  1.00  0.00    -0.203 F 
ATOM    119  C   UNL A   1      44.255  24.795  35.067  1.00  0.00     0.198 A 
ATOM    120  C   UNL A   1      44.862  26.225  36.872  1.00  0.00     0.198 A 
ATOM    121  F   UNL A   1      44.863  28.516  36.645  1.00  0.00    -0.203 F 
ATOM    122  F   UNL A   1      43.936  23.576  34.612  1.00  0.00    -0.200 F 
ATOM    123  C   UNL A   1      44.594  24.961  36.397  1.00  0.00     0.200 A 
ATOM    124  F   UNL A   1      45.169  26.411  38.164  1.00  0.00    -0.200 F 
ATOM    125  F   UNL A   1      44.616  23.914  37.231  1.00  0.00    -0.200 F 
ENDBRANCH  95 115
BRANCH  98 126
ATOM    126  C   UNL A   1      42.332  24.520  26.718  1.00  0.00     0.064 A 
ATOM    127  C   UNL A   1      43.123  24.122  25.622  1.00  0.00     0.173 A 
ATOM    128  C   UNL A   1      41.540  23.514  27.304  1.00  0.00     0.173 A 
ATOM    129  F   UNL A   1      43.947  25.001  25.031  1.00  0.00    -0.203 F 
ATOM    130  C   UNL A   1      43.146  22.797  25.166  1.00  0.00     0.198 A 
ATOM    131  C   UNL A   1      41.564  22.193  26.850  1.00  0.00     0.198 A 
ATOM    132  F   UNL A   1      40.807  23.772  28.396  1.00  0.00    -0.203 F 
ATOM    133  F   UNL A   1      43.963  22.445  24.163  1.00  0.00    -0.200 F 
ATOM    134  C   UNL A   1      42.377  21.830  25.790  1.00  0.00     0.200 A 
ATOM    135  F   UNL A   1      40.847  21.257  27.489  1.00  0.00    -0.200 F 
ATOM    136  F   UNL A   1      42.448  20.549  25.403  1.00  0.00    -0.200 F 
ENDBRANCH  98 126
BRANCH 113 137
ATOM    137  C   UNL A   1      45.240  29.831  28.431  1.00  0.00     0.064 A 
ATOM    138  C   UNL A   1      44.119  30.554  27.985  1.00  0.00     0.173 A 
ATOM    139  C   UNL A   1      46.492  30.207  27.927  1.00  0.00     0.173 A 
ATOM    140  F   UNL A   1      42.900  30.311  28.483  1.00  0.00    -0.203 F 
ATOM    141  C   UNL A   1      44.251  31.596  27.067  1.00  0.00     0.198 A 
ATOM    142  C   UNL A   1      46.624  31.268  27.036  1.00  0.00     0.198 A 
ATOM    143  F   UNL A   1      47.600  29.582  28.355  1.00  0.00    -0.203 F 
ATOM    144  F   UNL A   1      43.170  32.283  26.666  1.00  0.00    -0.200 F 
ATOM    145  C   UNL A   1      45.504  31.960  26.603  1.00  0.00     0.200 A 
ATOM    146  F   UNL A   1      47.844  31.646  26.631  1.00  0.00    -0.200 F 
ATOM    147  F   UNL A   1      45.640  32.998  25.767  1.00  0.00    -0.200 F 
ENDBRANCH 113 137
ENDBRANCH  78  81
ENDBRANCH  68  71
ENDBRANCH  64  67
ENDBRANCH  61  64
ENDBRANCH  58  61
ENDBRANCH  55  58
ENDBRANCH   1  55
TORSDOF 18
ENDMDL
MODEL 5
REMARK VINA RESULT:     -13.1      3.422      9.337
REMARK SMILES [NH3+][C@@H](Cc1cn(-c2nc(Cl)nc(N3CCOCC3)n2)c2ccccc12)C(=O)NCCCCCCNC(=O)c1ccc(-c2c3nc(c(-c4c(F)c(F)c(F)c(F)c4F)c4ccc([nH]4)c(-c4c(F)c(F)c(F)c(F)c4F)c4nc(c(-c5c(F)c(F)c(F)c(F)c5F)c5ccc2[nH]5)C=C4)C=C3)cc1
REMARK SMILES IDX 30 1 29 4 28 7 26 8 27 9 2 11 1 13 3 17 4 20 5 21 25 22 6 23
REMARK SMILES IDX 20 25 24 26 21 27 23 28 22 30 7 34 8 35 19 36 9 37 12 38
REMARK SMILES IDX 10 39 11 40 13 41 14 42 18 43 15 44 17 47 16 50 31 55 32 58
REMARK SMILES IDX 33 61 34 64 35 67 36 68 37 70 38 71 39 72 100 73 40 74 99 76
REMARK SMILES IDX 41 78 42 81 43 82 93 83 44 84 98 85 92 86 94 87 45 88 97 89
REMARK SMILES IDX 91 91 90 93 46 95 78 98 58 99 77 100 59 101 62 102 76 103
REMARK SMILES IDX 95 104 60 105 61 107 75 109 96 110 63 113 47 115 48 116
REMARK SMILES IDX 56 117 49 118 50 119 54 120 57 121 51 122 52 123 55 124
REMARK SMILES IDX 53 125 79 126 80 127 88 128 81 129 82 130 86 131 89 132
REMARK SMILES IDX 83 133 84 134 87 135 85 136 64 137 65 138 73 139 66 140
REMARK SMILES IDX 67 141 71 142 74 143 68 144 69 145 72 146 70 147
REMARK H PARENT 30 2 30 3 29 5 29 6 28 10 2 12 1 14 1 15 1 16 3 18 3 19 5 24
REMARK H PARENT 24 29 21 31 23 32 22 33 14 45 14 46 18 48 18 49 15 51 15 52
REMARK H PARENT 17 53 17 54 31 56 31 57 32 59 32 60 33 62 33 63 34 65 34 66
REMARK H PARENT 35 69 39 75 100 77 40 79 99 80 98 90 92 92 94 94 97 96 91 97
REMARK H PARENT 59 106 62 108 95 111 60 112 96 114
REMARK Flexibility Score: inf
ROOT
ATOM      1  C   UNL A   1      34.156  28.418  26.390  1.00  0.00    -0.036 C 
ATOM      2  H   UNL A   1      35.175  28.156  26.194  1.00  0.00     0.028 H 
ATOM      3  H   UNL A   1      33.533  27.587  26.647  1.00  0.00     0.028 H 
ENDROOT
BRANCH   1   4
ATOM      4  C   UNL A   1      33.572  28.988  25.117  1.00  0.00     0.018 C 
ATOM      5  H   UNL A   1      32.546  28.686  25.070  1.00  0.00     0.049 H 
ATOM      6  H   UNL A   1      33.729  30.044  25.189  1.00  0.00     0.049 H 
BRANCH   4   7
ATOM      7  N   UNL A   1      34.194  28.601  23.885  1.00  0.00    -0.351 N 
ATOM      8  C   UNL A   1      33.580  28.334  22.690  1.00  0.00     0.278 C 
ATOM      9  O   UNL A   1      34.306  28.283  21.690  1.00  0.00    -0.268 OA
ATOM     10  H   UNL A   1      35.175  28.520  23.898  1.00  0.00     0.163 HD
BRANCH   8  11
ATOM     11  C   UNL A   1      32.047  28.076  22.559  1.00  0.00     0.168 C 
ATOM     12  H   UNL A   1      31.713  27.946  23.567  1.00  0.00     0.107 H 
BRANCH  11  13
ATOM     13  N   UNL A   1      31.333  29.263  22.033  1.00  0.00    -0.347 N 
ATOM     14  H   UNL A   1      32.011  29.946  21.697  1.00  0.00     0.345 HD
ATOM     15  H   UNL A   1      30.771  29.678  22.776  1.00  0.00     0.345 HD
ATOM     16  H   UNL A   1      30.724  28.981  21.265  1.00  0.00     0.345 HD
ENDBRANCH  11  13
BRANCH  11  17
ATOM     17  C   UNL A   1      31.598  26.707  21.992  1.00  0.00     0.036 C 
ATOM     18  H   UNL A   1      32.184  26.526  21.115  1.00  0.00     0.038 H 
ATOM     19  H   UNL A   1      30.544  26.824  21.854  1.00  0.00     0.038 H 
BRANCH  17  20
ATOM     20  C   UNL A   1      31.709  25.474  22.857  1.00  0.00    -0.015 A 
ATOM     21  C   UNL A   1      32.542  24.376  22.698  1.00  0.00     0.017 A 
ATOM     22  C   UNL A   1      30.980  25.242  24.071  1.00  0.00     0.004 A 
ATOM     23  N   UNL A   1      32.464  23.564  23.819  1.00  0.00    -0.285 N 
ATOM     24  H   UNL A   1      33.130  24.193  21.870  1.00  0.00     0.083 H 
ATOM     25  C   UNL A   1      31.424  24.032  24.627  1.00  0.00     0.056 A 
ATOM     26  C   UNL A   1      30.029  26.014  24.779  1.00  0.00    -0.053 A 
ATOM     27  C   UNL A   1      30.932  23.584  25.871  1.00  0.00    -0.037 A 
ATOM     28  C   UNL A   1      29.572  25.589  26.026  1.00  0.00    -0.062 A 
ATOM     29  H   UNL A   1      29.672  26.892  24.371  1.00  0.00     0.063 H 
ATOM     30  C   UNL A   1      30.020  24.390  26.565  1.00  0.00    -0.060 A 
ATOM     31  H   UNL A   1      31.238  22.680  26.262  1.00  0.00     0.065 H 
ATOM     32  H   UNL A   1      28.897  26.168  26.552  1.00  0.00     0.062 H 
ATOM     33  H   UNL A   1      29.677  24.088  27.490  1.00  0.00     0.062 H 
BRANCH  23  34
ATOM     34  C   UNL A   1      33.410  22.533  24.163  1.00  0.00     0.240 A 
ATOM     35  N   UNL A   1      32.980  21.281  24.198  1.00  0.00    -0.181 NA
ATOM     36  N   UNL A   1      34.664  22.904  24.489  1.00  0.00    -0.176 NA
ATOM     37  C   UNL A   1      33.939  20.416  24.503  1.00  0.00     0.228 A 
ATOM     38  C   UNL A   1      35.503  21.944  24.911  1.00  0.00     0.231 A 
ATOM     39  Cl  UNL A   1      33.518  18.768  24.339  1.00  0.00    -0.041 Cl
ATOM     40  N   UNL A   1      35.184  20.663  24.894  1.00  0.00    -0.182 NA
BRANCH  38  41
ATOM     41  N   UNL A   1      36.757  22.323  25.318  1.00  0.00    -0.336 N 
ATOM     42  C   UNL A   1      37.965  21.549  25.009  1.00  0.00     0.044 C 
ATOM     43  C   UNL A   1      37.074  23.751  25.343  1.00  0.00     0.044 C 
ATOM     44  C   UNL A   1      38.939  21.749  26.177  1.00  0.00     0.064 C 
ATOM     45  H   UNL A   1      38.404  21.902  24.099  1.00  0.00     0.052 H 
ATOM     46  H   UNL A   1      37.730  20.513  24.881  1.00  0.00     0.052 H 
ATOM     47  C   UNL A   1      38.131  23.967  26.450  1.00  0.00     0.064 C 
ATOM     48  H   UNL A   1      36.193  24.318  25.561  1.00  0.00     0.052 H 
ATOM     49  H   UNL A   1      37.448  24.072  24.394  1.00  0.00     0.052 H 
ATOM     50  O   UNL A   1      39.300  23.136  26.280  1.00  0.00    -0.378 OA
ATOM     51  H   UNL A   1      39.820  21.165  26.008  1.00  0.00     0.059 H 
ATOM     52  H   UNL A   1      38.468  21.438  27.087  1.00  0.00     0.059 H 
ATOM     53  H   UNL A   1      38.435  24.992  26.436  1.00  0.00     0.059 H 
ATOM     54  H   UNL A   1      37.679  23.698  27.383  1.00  0.00     0.059 H 
ENDBRANCH  38  41
ENDBRANCH  23  34
ENDBRANCH  17  20
ENDBRANCH  11  17
ENDBRANCH   8  11
ENDBRANCH   4   7
ENDBRANCH   1   4
BRANCH   1  55
ATOM     55  C   UNL A   1      34.137  29.339  27.605  1.00  0.00    -0.052 C 
ATOM     56  H   UNL A   1      33.851  28.745  28.448  1.00  0.00     0.027 H 
ATOM     57  H   UNL A   1      33.460  30.122  27.333  1.00  0.00     0.027 H 
BRANCH  55  58
ATOM     58  C   UNL A   1      35.437  30.074  27.984  1.00  0.00    -0.052 C 
ATOM     59  H   UNL A   1      36.243  29.554  27.512  1.00  0.00     0.027 H 
ATOM     60  H   UNL A   1      35.436  30.072  29.054  1.00  0.00     0.027 H 
BRANCH  58  61
ATOM     61  C   UNL A   1      35.576  31.555  27.614  1.00  0.00    -0.036 C 
ATOM     62  H   UNL A   1      34.613  31.914  27.320  1.00  0.00     0.028 H 
ATOM     63  H   UNL A   1      36.307  31.597  26.833  1.00  0.00     0.028 H 
BRANCH  61  64
ATOM     64  C   UNL A   1      36.091  32.449  28.716  1.00  0.00     0.018 C 
ATOM     65  H   UNL A   1      35.908  33.462  28.425  1.00  0.00     0.049 H 
ATOM     66  H   UNL A   1      37.125  32.197  28.825  1.00  0.00     0.049 H 
BRANCH  64  67
ATOM     67  N   UNL A   1      35.511  32.258  30.029  1.00  0.00    -0.352 N 
ATOM     68  C   UNL A   1      35.981  31.835  31.239  1.00  0.00     0.251 C 
ATOM     69  H   UNL A   1      34.554  32.485  30.055  1.00  0.00     0.163 HD
ATOM     70  O   UNL A   1      35.257  32.037  32.218  1.00  0.00    -0.269 OA
BRANCH  68  71
ATOM     71  C   UNL A   1      37.210  31.031  31.413  1.00  0.00     0.039 A 
ATOM     72  C   UNL A   1      38.488  31.549  31.588  1.00  0.00    -0.049 A 
ATOM     73  C   UNL A   1      37.049  29.640  31.283  1.00  0.00    -0.049 A 
ATOM     74  C   UNL A   1      39.590  30.734  31.383  1.00  0.00    -0.053 A 
ATOM     75  H   UNL A   1      38.616  32.534  31.868  1.00  0.00     0.063 H 
ATOM     76  C   UNL A   1      38.147  28.808  31.147  1.00  0.00    -0.053 A 
ATOM     77  H   UNL A   1      36.100  29.234  31.290  1.00  0.00     0.063 H 
ATOM     78  C   UNL A   1      39.410  29.376  31.092  1.00  0.00    -0.014 A 
ATOM     79  H   UNL A   1      40.542  31.129  31.445  1.00  0.00     0.063 H 
ATOM     80  H   UNL A   1      38.027  27.785  31.087  1.00  0.00     0.063 H 
BRANCH  78  81
ATOM     81  C   UNL A   1      40.596  28.553  30.894  1.00  0.00     0.031 A 
ATOM     82  C   UNL A   1      41.363  28.354  32.152  1.00  0.00     0.074 A 
ATOM     83  C   UNL A   1      40.942  27.995  29.713  1.00  0.00     0.049 A 
ATOM     84  N   UNL A   1      42.530  28.833  32.431  1.00  0.00    -0.248 NA
ATOM     85  C   UNL A   1      40.679  27.737  33.300  1.00  0.00    -0.034 C 
ATOM     86  C   UNL A   1      40.194  27.962  28.455  1.00  0.00    -0.036 A 
ATOM     87  N   UNL A   1      42.065  27.281  29.406  1.00  0.00    -0.354 N 
ATOM     88  C   UNL A   1      42.815  28.412  33.726  1.00  0.00     0.074 A 
ATOM     89  C   UNL A   1      41.589  27.886  34.264  1.00  0.00    -0.034 C 
ATOM     90  H   UNL A   1      39.743  27.304  33.347  1.00  0.00     0.065 H 
ATOM     91  C   UNL A   1      40.770  27.078  27.603  1.00  0.00    -0.036 A 
ATOM     92  H   UNL A   1      39.357  28.526  28.247  1.00  0.00     0.065 H 
ATOM     93  C   UNL A   1      42.009  26.600  28.189  1.00  0.00     0.049 A 
ATOM     94  H   UNL A   1      42.851  27.248  29.998  1.00  0.00     0.167 HD
ATOM     95  C   UNL A   1      44.106  28.313  34.147  1.00  0.00     0.037 A 
ATOM     96  H   UNL A   1      41.435  27.655  35.258  1.00  0.00     0.065 H 
ATOM     97  H   UNL A   1      40.390  26.791  26.688  1.00  0.00     0.065 H 
ATOM     98  C   UNL A   1      42.921  25.703  27.721  1.00  0.00     0.037 A 
ATOM     99  C   UNL A   1      44.975  29.118  33.327  1.00  0.00     0.049 A 
ATOM    100  C   UNL A   1      44.195  25.978  28.431  1.00  0.00     0.074 A 
ATOM    101  C   UNL A   1      45.103  30.472  33.082  1.00  0.00    -0.036 A 
ATOM    102  N   UNL A   1      45.644  28.489  32.309  1.00  0.00    -0.354 N 
ATOM    103  N   UNL A   1      44.884  27.072  28.258  1.00  0.00    -0.248 NA
ATOM    104  C   UNL A   1      44.415  25.278  29.688  1.00  0.00    -0.034 C 
ATOM    105  C   UNL A   1      45.416  30.568  31.694  1.00  0.00    -0.036 A 
ATOM    106  H   UNL A   1      44.995  31.246  33.757  1.00  0.00     0.065 H 
ATOM    107  C   UNL A   1      45.542  29.274  31.190  1.00  0.00     0.049 A 
ATOM    108  H   UNL A   1      46.113  27.626  32.369  1.00  0.00     0.167 HD
ATOM    109  C   UNL A   1      45.280  27.435  29.536  1.00  0.00     0.074 A 
ATOM    110  C   UNL A   1      44.994  26.268  30.372  1.00  0.00    -0.034 C 
ATOM    111  H   UNL A   1      44.193  24.309  29.965  1.00  0.00     0.065 H 
ATOM    112  H   UNL A   1      45.529  31.442  31.157  1.00  0.00     0.065 H 
ATOM    113  C   UNL A   1      45.518  28.740  29.850  1.00  0.00     0.037 A 
ATOM    114  H   UNL A   1      45.217  26.216  31.378  1.00  0.00     0.065 H 
BRANCH  95 115
ATOM    115  C   UNL A   1      44.624  27.173  34.990  1.00  0.00     0.064 A 
ATOM    116  C   UNL A   1      44.389  25.849  34.566  1.00  0.00     0.173 A 
ATOM    117  C   UNL A   1      45.040  27.314  36.332  1.00  0.00     0.173 A 
ATOM    118  F   UNL A   1      43.970  25.595  33.316  1.00  0.00    -0.203 F 
ATOM    119  C   UNL A   1      44.477  24.765  35.444  1.00  0.00     0.198 A 
ATOM    120  C   UNL A   1      45.174  26.226  37.192  1.00  0.00     0.198 A 
ATOM    121  F   UNL A   1      45.223  28.510  36.904  1.00  0.00    -0.203 F 
ATOM    122  F   UNL A   1      44.114  23.544  35.031  1.00  0.00    -0.200 F 
ATOM    123  C   UNL A   1      44.860  24.957  36.758  1.00  0.00     0.200 A 
ATOM    124  F   UNL A   1      45.523  26.437  38.468  1.00  0.00    -0.200 F 
ATOM    125  F   UNL A   1      44.881  23.932  37.619  1.00  0.00    -0.200 F 
ENDBRANCH  95 115
BRANCH  98 126
ATOM    126  C   UNL A   1      42.688  24.404  27.031  1.00  0.00     0.064 A 
ATOM    127  C   UNL A   1      43.097  24.204  25.697  1.00  0.00     0.173 A 
ATOM    128  C   UNL A   1      42.360  23.243  27.757  1.00  0.00     0.173 A 
ATOM    129  F   UNL A   1      43.476  25.247  24.944  1.00  0.00    -0.203 F 
ATOM    130  C   UNL A   1      43.201  22.922  25.139  1.00  0.00     0.198 A 
ATOM    131  C   UNL A   1      42.465  21.966  27.199  1.00  0.00     0.198 A 
ATOM    132  F   UNL A   1      42.029  23.319  29.053  1.00  0.00    -0.203 F 
ATOM    133  F   UNL A   1      43.656  22.770  23.887  1.00  0.00    -0.200 F 
ATOM    134  C   UNL A   1      42.899  21.804  25.895  1.00  0.00     0.200 A 
ATOM    135  F   UNL A   1      42.210  20.888  27.955  1.00  0.00    -0.200 F 
ATOM    136  F   UNL A   1      43.065  20.574  25.388  1.00  0.00    -0.200 F 
ENDBRANCH  98 126
BRANCH 113 137
ATOM    137  C   UNL A   1      45.560  29.740  28.729  1.00  0.00     0.064 A 
ATOM    138  C   UNL A   1      44.444  30.468  28.278  1.00  0.00     0.173 A 
ATOM    139  C   UNL A   1      46.813  30.103  28.222  1.00  0.00     0.173 A 
ATOM    140  F   UNL A   1      43.223  30.238  28.778  1.00  0.00    -0.203 F 
ATOM    141  C   UNL A   1      44.582  31.502  27.352  1.00  0.00     0.198 A 
ATOM    142  C   UNL A   1      46.953  31.156  27.323  1.00  0.00     0.198 A 
ATOM    143  F   UNL A   1      47.918  29.474  28.653  1.00  0.00    -0.203 F 
ATOM    144  F   UNL A   1      43.506  32.194  26.946  1.00  0.00    -0.200 F 
ATOM    145  C   UNL A   1      45.838  31.853  26.885  1.00  0.00     0.200 A 
ATOM    146  F   UNL A   1      48.175  31.522  26.914  1.00  0.00    -0.200 F 
ATOM    147  F   UNL A   1      45.981  32.884  26.040  1.00  0.00    -0.200 F 
ENDBRANCH 113 137
ENDBRANCH  78  81
ENDBRANCH  68  71
ENDBRANCH  64  67
ENDBRANCH  61  64
ENDBRANCH  58  61
ENDBRANCH  55  58
ENDBRANCH   1  55
TORSDOF 18
ENDMDL
MODEL 6
REMARK VINA RESULT:     -12.9      1.534      2.154
REMARK SMILES [NH3+][C@@H](Cc1cn(-c2nc(Cl)nc(N3CCOCC3)n2)c2ccccc12)C(=O)NCCCCCCNC(=O)c1ccc(-c2c3nc(c(-c4c(F)c(F)c(F)c(F)c4F)c4ccc([nH]4)c(-c4c(F)c(F)c(F)c(F)c4F)c4nc(c(-c5c(F)c(F)c(F)c(F)c5F)c5ccc2[nH]5)C=C4)C=C3)cc1
REMARK SMILES IDX 30 1 29 4 28 7 26 8 27 9 2 11 1 13 3 17 4 20 5 21 25 22 6 23
REMARK SMILES IDX 20 25 24 26 21 27 23 28 22 30 7 34 8 35 19 36 9 37 12 38
REMARK SMILES IDX 10 39 11 40 13 41 14 42 18 43 15 44 17 47 16 50 31 55 32 58
REMARK SMILES IDX 33 61 34 64 35 67 36 68 37 70 38 71 39 72 100 73 40 74 99 76
REMARK SMILES IDX 41 78 42 81 43 82 93 83 44 84 98 85 92 86 94 87 45 88 97 89
REMARK SMILES IDX 91 91 90 93 46 95 78 98 58 99 77 100 59 101 62 102 76 103
REMARK SMILES IDX 95 104 60 105 61 107 75 109 96 110 63 113 47 115 48 116
REMARK SMILES IDX 56 117 49 118 50 119 54 120 57 121 51 122 52 123 55 124
REMARK SMILES IDX 53 125 79 126 80 127 88 128 81 129 82 130 86 131 89 132
REMARK SMILES IDX 83 133 84 134 87 135 85 136 64 137 65 138 73 139 66 140
REMARK SMILES IDX 67 141 71 142 74 143 68 144 69 145 72 146 70 147
REMARK H PARENT 30 2 30 3 29 5 29 6 28 10 2 12 1 14 1 15 1 16 3 18 3 19 5 24
REMARK H PARENT 24 29 21 31 23 32 22 33 14 45 14 46 18 48 18 49 15 51 15 52
REMARK H PARENT 17 53 17 54 31 56 31 57 32 59 32 60 33 62 33 63 34 65 34 66
REMARK H PARENT 35 69 39 75 100 77 40 79 99 80 98 90 92 92 94 94 97 96 91 97
REMARK H PARENT 59 106 62 108 95 111 60 112 96 114
REMARK Flexibility Score: inf
ROOT
ATOM      1  C   UNL A   1      34.791  23.076  26.271  1.00  0.00    -0.036 C 
ATOM      2  H   UNL A   1      35.214  22.783  27.209  1.00  0.00     0.028 H 
ATOM      3  H   UNL A   1      34.314  24.034  26.285  1.00  0.00     0.028 H 
ENDROOT
BRANCH   1   4
ATOM      4  C   UNL A   1      33.702  22.084  25.926  1.00  0.00     0.018 C 
ATOM      5  H   UNL A   1      34.051  21.496  25.102  1.00  0.00     0.049 H 
ATOM      6  H   UNL A   1      33.530  21.538  26.830  1.00  0.00     0.049 H 
BRANCH   4   7
ATOM      7  N   UNL A   1      32.423  22.621  25.564  1.00  0.00    -0.351 N 
ATOM      8  C   UNL A   1      31.963  22.897  24.303  1.00  0.00     0.278 C 
ATOM      9  O   UNL A   1      30.748  23.097  24.187  1.00  0.00    -0.268 OA
ATOM     10  H   UNL A   1      31.804  22.810  26.305  1.00  0.00     0.163 HD
BRANCH   8  11
ATOM     11  C   UNL A   1      32.896  22.989  23.056  1.00  0.00     0.168 C 
ATOM     12  H   UNL A   1      33.809  22.531  23.375  1.00  0.00     0.107 H 
BRANCH  11  13
ATOM     13  N   UNL A   1      32.390  22.172  21.930  1.00  0.00    -0.347 N 
ATOM     14  H   UNL A   1      31.503  22.555  21.603  1.00  0.00     0.345 HD
ATOM     15  H   UNL A   1      32.252  21.211  22.242  1.00  0.00     0.345 HD
ATOM     16  H   UNL A   1      33.068  22.187  21.168  1.00  0.00     0.345 HD
ENDBRANCH  11  13
BRANCH  11  17
ATOM     17  C   UNL A   1      33.458  24.383  22.686  1.00  0.00     0.036 C 
ATOM     18  H   UNL A   1      33.531  24.416  21.619  1.00  0.00     0.038 H 
ATOM     19  H   UNL A   1      34.373  24.441  23.236  1.00  0.00     0.038 H 
BRANCH  17  20
ATOM     20  C   UNL A   1      32.708  25.623  23.112  1.00  0.00    -0.015 A 
ATOM     21  C   UNL A   1      31.546  26.159  22.577  1.00  0.00     0.017 A 
ATOM     22  C   UNL A   1      33.053  26.461  24.224  1.00  0.00     0.004 A 
ATOM     23  N   UNL A   1      31.089  27.187  23.389  1.00  0.00    -0.285 N 
ATOM     24  H   UNL A   1      31.091  25.841  21.707  1.00  0.00     0.083 H 
ATOM     25  C   UNL A   1      32.068  27.453  24.350  1.00  0.00     0.056 A 
ATOM     26  C   UNL A   1      34.092  26.402  25.182  1.00  0.00    -0.053 A 
ATOM     27  C   UNL A   1      32.108  28.382  25.411  1.00  0.00    -0.037 A 
ATOM     28  C   UNL A   1      34.110  27.296  26.252  1.00  0.00    -0.062 A 
ATOM     29  H   UNL A   1      34.839  25.695  25.089  1.00  0.00     0.063 H 
ATOM     30  C   UNL A   1      33.128  28.272  26.365  1.00  0.00    -0.060 A 
ATOM     31  H   UNL A   1      31.399  29.128  25.483  1.00  0.00     0.065 H 
ATOM     32  H   UNL A   1      34.855  27.233  26.964  1.00  0.00     0.062 H 
ATOM     33  H   UNL A   1      33.150  28.926  27.163  1.00  0.00     0.062 H 
BRANCH  23  34
ATOM     34  C   UNL A   1      29.763  27.750  23.346  1.00  0.00     0.240 A 
ATOM     35  N   UNL A   1      28.743  26.962  23.648  1.00  0.00    -0.181 NA
ATOM     36  N   UNL A   1      29.628  29.029  22.943  1.00  0.00    -0.176 NA
ATOM     37  C   UNL A   1      27.576  27.589  23.598  1.00  0.00     0.228 A 
ATOM     38  C   UNL A   1      28.381  29.505  22.804  1.00  0.00     0.231 A 
ATOM     39  Cl  UNL A   1      26.242  26.706  24.199  1.00  0.00    -0.041 Cl
ATOM     40  N   UNL A   1      27.313  28.819  23.166  1.00  0.00    -0.182 NA
BRANCH  38  41
ATOM     41  N   UNL A   1      28.232  30.781  22.322  1.00  0.00    -0.336 N 
ATOM     42  C   UNL A   1      27.711  31.071  20.981  1.00  0.00     0.044 C 
ATOM     43  C   UNL A   1      27.821  31.830  23.254  1.00  0.00     0.044 C 
ATOM     44  C   UNL A   1      28.393  32.359  20.502  1.00  0.00     0.064 C 
ATOM     45  H   UNL A   1      26.651  31.211  21.022  1.00  0.00     0.052 H 
ATOM     46  H   UNL A   1      27.912  30.262  20.311  1.00  0.00     0.052 H 
ATOM     47  C   UNL A   1      28.416  33.161  22.738  1.00  0.00     0.064 C 
ATOM     48  H   UNL A   1      28.194  31.616  24.234  1.00  0.00     0.052 H 
ATOM     49  H   UNL A   1      26.754  31.889  23.311  1.00  0.00     0.052 H 
ATOM     50  O   UNL A   1      28.047  33.448  21.373  1.00  0.00    -0.378 OA
ATOM     51  H   UNL A   1      28.069  32.584  19.506  1.00  0.00     0.059 H 
ATOM     52  H   UNL A   1      29.455  32.222  20.513  1.00  0.00     0.059 H 
ATOM     53  H   UNL A   1      28.065  33.955  23.362  1.00  0.00     0.059 H 
ATOM     54  H   UNL A   1      29.482  33.070  22.771  1.00  0.00     0.059 H 
ENDBRANCH  38  41
ENDBRANCH  23  34
ENDBRANCH  17  20
ENDBRANCH  11  17
ENDBRANCH   8  11
ENDBRANCH   4   7
ENDBRANCH   1   4
BRANCH   1  55
ATOM     55  C   UNL A   1      35.928  23.197  25.263  1.00  0.00    -0.052 C 
ATOM     56  H   UNL A   1      35.653  23.960  24.564  1.00  0.00     0.027 H 
ATOM     57  H   UNL A   1      36.031  22.211  24.861  1.00  0.00     0.027 H 
BRANCH  55  58
ATOM     58  C   UNL A   1      37.334  23.544  25.788  1.00  0.00    -0.052 C 
ATOM     59  H   UNL A   1      37.219  23.898  26.790  1.00  0.00     0.027 H 
ATOM     60  H   UNL A   1      37.710  24.251  25.078  1.00  0.00     0.027 H 
BRANCH  58  61
ATOM     61  C   UNL A   1      38.399  22.443  25.817  1.00  0.00    -0.036 C 
ATOM     62  H   UNL A   1      38.783  22.328  24.825  1.00  0.00     0.028 H 
ATOM     63  H   UNL A   1      37.909  21.568  26.191  1.00  0.00     0.028 H 
BRANCH  61  64
ATOM     64  C   UNL A   1      39.565  22.696  26.741  1.00  0.00     0.018 C 
ATOM     65  H   UNL A   1      39.503  21.991  27.543  1.00  0.00     0.049 H 
ATOM     66  H   UNL A   1      39.471  23.720  27.040  1.00  0.00     0.049 H 
BRANCH  64  67
ATOM     67  N   UNL A   1      40.887  22.587  26.161  1.00  0.00    -0.352 N 
ATOM     68  C   UNL A   1      42.063  23.264  26.305  1.00  0.00     0.251 C 
ATOM     69  H   UNL A   1      40.952  21.852  25.510  1.00  0.00     0.163 HD
ATOM     70  O   UNL A   1      43.072  22.734  25.832  1.00  0.00    -0.269 OA
BRANCH  68  71
ATOM     71  C   UNL A   1      42.164  24.637  26.848  1.00  0.00     0.039 A 
ATOM     72  C   UNL A   1      42.700  24.972  28.086  1.00  0.00    -0.049 A 
ATOM     73  C   UNL A   1      41.570  25.644  26.066  1.00  0.00    -0.049 A 
ATOM     74  C   UNL A   1      42.425  26.212  28.637  1.00  0.00    -0.053 A 
ATOM     75  H   UNL A   1      43.299  24.300  28.591  1.00  0.00     0.063 H 
ATOM     76  C   UNL A   1      41.352  26.908  26.584  1.00  0.00    -0.053 A 
ATOM     77  H   UNL A   1      41.293  25.437  25.093  1.00  0.00     0.063 H 
ATOM     78  C   UNL A   1      41.687  27.153  27.907  1.00  0.00    -0.014 A 
ATOM     79  H   UNL A   1      42.763  26.442  29.585  1.00  0.00     0.063 H 
ATOM     80  H   UNL A   1      40.947  27.655  25.997  1.00  0.00     0.063 H 
BRANCH  78  81
ATOM     81  C   UNL A   1      41.428  28.449  28.520  1.00  0.00     0.031 A 
ATOM     82  C   UNL A   1      42.502  29.436  28.230  1.00  0.00     0.074 A 
ATOM     83  C   UNL A   1      40.321  28.741  29.237  1.00  0.00     0.049 A 
ATOM     84  N   UNL A   1      43.350  29.929  29.071  1.00  0.00    -0.248 NA
ATOM     85  C   UNL A   1      42.802  29.752  26.824  1.00  0.00    -0.034 C 
ATOM     86  C   UNL A   1      39.120  27.930  29.448  1.00  0.00    -0.036 A 
ATOM     87  N   UNL A   1      40.023  29.888  29.914  1.00  0.00    -0.354 N 
ATOM     88  C   UNL A   1      44.173  30.772  28.333  1.00  0.00     0.074 A 
ATOM     89  C   UNL A   1      43.897  30.503  26.947  1.00  0.00    -0.034 C 
ATOM     90  H   UNL A   1      42.298  29.468  25.969  1.00  0.00     0.065 H 
ATOM     91  C   UNL A   1      38.143  28.694  29.999  1.00  0.00    -0.036 A 
ATOM     92  H   UNL A   1      39.029  26.930  29.214  1.00  0.00     0.065 H 
ATOM     93  C   UNL A   1      38.693  29.997  30.323  1.00  0.00     0.049 A 
ATOM     94  H   UNL A   1      40.694  30.585  30.099  1.00  0.00     0.167 HD
ATOM     95  C   UNL A   1      44.833  31.794  28.944  1.00  0.00     0.037 A 
ATOM     96  H   UNL A   1      44.468  30.844  26.157  1.00  0.00     0.065 H 
ATOM     97  H   UNL A   1      37.169  28.397  30.160  1.00  0.00     0.065 H 
ATOM     98  C   UNL A   1      38.103  31.094  30.875  1.00  0.00     0.037 A 
ATOM     99  C   UNL A   1      44.947  31.556  30.361  1.00  0.00     0.049 A 
ATOM    100  C   UNL A   1      39.193  31.919  31.454  1.00  0.00     0.074 A 
ATOM    101  C   UNL A   1      45.582  30.609  31.140  1.00  0.00    -0.036 A 
ATOM    102  N   UNL A   1      44.020  32.151  31.177  1.00  0.00    -0.354 N 
ATOM    103  N   UNL A   1      39.906  31.540  32.478  1.00  0.00    -0.248 NA
ATOM    104  C   UNL A   1      39.806  32.909  30.581  1.00  0.00    -0.034 C 
ATOM    105  C   UNL A   1      44.686  30.357  32.220  1.00  0.00    -0.036 A 
ATOM    106  H   UNL A   1      46.506  30.177  30.977  1.00  0.00     0.065 H 
ATOM    107  C   UNL A   1      43.597  31.217  32.086  1.00  0.00     0.049 A 
ATOM    108  H   UNL A   1      43.713  33.085  31.121  1.00  0.00     0.167 HD
ATOM    109  C   UNL A   1      41.203  31.893  32.142  1.00  0.00     0.074 A 
ATOM    110  C   UNL A   1      41.074  32.770  30.978  1.00  0.00    -0.034 C 
ATOM    111  H   UNL A   1      39.387  33.530  29.872  1.00  0.00     0.065 H 
ATOM    112  H   UNL A   1      44.819  29.660  32.969  1.00  0.00     0.065 H 
ATOM    113  C   UNL A   1      42.268  31.208  32.648  1.00  0.00     0.037 A 
ATOM    114  H   UNL A   1      41.873  33.231  30.516  1.00  0.00     0.065 H 
BRANCH  95 115
ATOM    115  C   UNL A   1      44.972  33.173  28.347  1.00  0.00     0.064 A 
ATOM    116  C   UNL A   1      46.263  33.709  28.160  1.00  0.00     0.173 A 
ATOM    117  C   UNL A   1      43.913  34.103  28.261  1.00  0.00     0.173 A 
ATOM    118  F   UNL A   1      47.347  32.923  28.239  1.00  0.00    -0.203 F 
ATOM    119  C   UNL A   1      46.477  35.080  27.992  1.00  0.00     0.198 A 
ATOM    120  C   UNL A   1      44.127  35.463  28.044  1.00  0.00     0.198 A 
ATOM    121  F   UNL A   1      42.640  33.764  28.495  1.00  0.00    -0.203 F 
ATOM    122  F   UNL A   1      47.728  35.557  27.953  1.00  0.00    -0.200 F 
ATOM    123  C   UNL A   1      45.409  35.955  27.943  1.00  0.00     0.200 A 
ATOM    124  F   UNL A   1      43.078  36.298  28.025  1.00  0.00    -0.200 F 
ATOM    125  F   UNL A   1      45.613  37.275  27.849  1.00  0.00    -0.200 F 
ENDBRANCH  95 115
BRANCH  98 126
ATOM    126  C   UNL A   1      36.760  31.673  30.599  1.00  0.00     0.064 A 
ATOM    127  C   UNL A   1      35.875  31.995  31.647  1.00  0.00     0.173 A 
ATOM    128  C   UNL A   1      36.448  32.220  29.340  1.00  0.00     0.173 A 
ATOM    129  F   UNL A   1      36.119  31.560  32.893  1.00  0.00    -0.203 F 
ATOM    130  C   UNL A   1      34.770  32.835  31.453  1.00  0.00     0.198 A 
ATOM    131  C   UNL A   1      35.347  33.059  29.147  1.00  0.00     0.198 A 
ATOM    132  F   UNL A   1      37.265  32.034  28.293  1.00  0.00    -0.203 F 
ATOM    133  F   UNL A   1      33.990  33.170  32.491  1.00  0.00    -0.200 F 
ATOM    134  C   UNL A   1      34.516  33.378  30.206  1.00  0.00     0.200 A 
ATOM    135  F   UNL A   1      35.135  33.612  27.944  1.00  0.00    -0.200 F 
ATOM    136  F   UNL A   1      33.501  34.237  30.032  1.00  0.00    -0.200 F 
ENDBRANCH  98 126
BRANCH 113 137
ATOM    137  C   UNL A   1      42.011  30.212  33.744  1.00  0.00     0.064 A 
ATOM    138  C   UNL A   1      41.664  28.867  33.524  1.00  0.00     0.173 A 
ATOM    139  C   UNL A   1      42.309  30.594  35.058  1.00  0.00     0.173 A 
ATOM    140  F   UNL A   1      41.447  28.405  32.286  1.00  0.00    -0.203 F 
ATOM    141  C   UNL A   1      41.607  27.954  34.577  1.00  0.00     0.198 A 
ATOM    142  C   UNL A   1      42.282  29.674  36.102  1.00  0.00     0.198 A 
ATOM    143  F   UNL A   1      42.692  31.854  35.319  1.00  0.00    -0.203 F 
ATOM    144  F   UNL A   1      41.288  26.672  34.343  1.00  0.00    -0.200 F 
ATOM    145  C   UNL A   1      41.928  28.356  35.863  1.00  0.00     0.200 A 
ATOM    146  F   UNL A   1      42.643  30.059  37.334  1.00  0.00    -0.200 F 
ATOM    147  F   UNL A   1      41.930  27.469  36.867  1.00  0.00    -0.200 F 
ENDBRANCH 113 137
ENDBRANCH  78  81
ENDBRANCH  68  71
ENDBRANCH  64  67
ENDBRANCH  61  64
ENDBRANCH  58  61
ENDBRANCH  55  58
ENDBRANCH   1  55
TORSDOF 18
ENDMDL
MODEL 7
REMARK VINA RESULT:     -12.9      1.534      2.085
REMARK SMILES [NH3+][C@@H](Cc1cn(-c2nc(Cl)nc(N3CCOCC3)n2)c2ccccc12)C(=O)NCCCCCCNC(=O)c1ccc(-c2c3nc(c(-c4c(F)c(F)c(F)c(F)c4F)c4ccc([nH]4)c(-c4c(F)c(F)c(F)c(F)c4F)c4nc(c(-c5c(F)c(F)c(F)c(F)c5F)c5ccc2[nH]5)C=C4)C=C3)cc1
REMARK SMILES IDX 30 1 29 4 28 7 26 8 27 9 2 11 1 13 3 17 4 20 5 21 25 22 6 23
REMARK SMILES IDX 20 25 24 26 21 27 23 28 22 30 7 34 8 35 19 36 9 37 12 38
REMARK SMILES IDX 10 39 11 40 13 41 14 42 18 43 15 44 17 47 16 50 31 55 32 58
REMARK SMILES IDX 33 61 34 64 35 67 36 68 37 70 38 71 39 72 100 73 40 74 99 76
REMARK SMILES IDX 41 78 42 81 43 82 93 83 44 84 98 85 92 86 94 87 45 88 97 89
REMARK SMILES IDX 91 91 90 93 46 95 78 98 58 99 77 100 59 101 62 102 76 103
REMARK SMILES IDX 95 104 60 105 61 107 75 109 96 110 63 113 47 115 48 116
REMARK SMILES IDX 56 117 49 118 50 119 54 120 57 121 51 122 52 123 55 124
REMARK SMILES IDX 53 125 79 126 80 127 88 128 81 129 82 130 86 131 89 132
REMARK SMILES IDX 83 133 84 134 87 135 85 136 64 137 65 138 73 139 66 140
REMARK SMILES IDX 67 141 71 142 74 143 68 144 69 145 72 146 70 147
REMARK H PARENT 30 2 30 3 29 5 29 6 28 10 2 12 1 14 1 15 1 16 3 18 3 19 5 24
REMARK H PARENT 24 29 21 31 23 32 22 33 14 45 14 46 18 48 18 49 15 51 15 52
REMARK H PARENT 17 53 17 54 31 56 31 57 32 59 32 60 33 62 33 63 34 65 34 66
REMARK H PARENT 35 69 39 75 100 77 40 79 99 80 98 90 92 92 94 94 97 96 91 97
REMARK H PARENT 59 106 62 108 95 111 60 112 96 114
REMARK Flexibility Score: inf
ROOT
ATOM      1  C   UNL A   1      37.869  20.876  25.847  1.00  0.00    -0.036 C 
ATOM      2  H   UNL A   1      38.649  20.205  26.140  1.00  0.00     0.028 H 
ATOM      3  H   UNL A   1      37.157  21.084  26.618  1.00  0.00     0.028 H 
ENDROOT
BRANCH   1   4
ATOM      4  C   UNL A   1      37.085  20.216  24.735  1.00  0.00     0.018 C 
ATOM      5  H   UNL A   1      37.141  20.854  23.877  1.00  0.00     0.049 H 
ATOM      6  H   UNL A   1      37.536  19.253  24.612  1.00  0.00     0.049 H 
BRANCH   4   7
ATOM      7  N   UNL A   1      35.698  19.949  24.985  1.00  0.00    -0.351 N 
ATOM      8  C   UNL A   1      34.629  20.751  24.685  1.00  0.00     0.278 C 
ATOM      9  O   UNL A   1      33.510  20.226  24.734  1.00  0.00    -0.268 OA
ATOM     10  H   UNL A   1      35.491  19.091  25.420  1.00  0.00     0.163 HD
BRANCH   8  11
ATOM     11  C   UNL A   1      34.772  22.261  24.318  1.00  0.00     0.168 C 
ATOM     12  H   UNL A   1      35.745  22.335  23.878  1.00  0.00     0.107 H 
BRANCH  11  13
ATOM     13  N   UNL A   1      33.808  22.665  23.269  1.00  0.00    -0.347 N 
ATOM     14  H   UNL A   1      33.829  23.679  23.160  1.00  0.00     0.345 HD
ATOM     15  H   UNL A   1      32.869  22.371  23.538  1.00  0.00     0.345 HD
ATOM     16  H   UNL A   1      34.062  22.223  22.385  1.00  0.00     0.345 HD
ENDBRANCH  11  13
BRANCH  11  17
ATOM     17  C   UNL A   1      34.970  23.262  25.481  1.00  0.00     0.036 C 
ATOM     18  H   UNL A   1      35.844  23.837  25.252  1.00  0.00     0.038 H 
ATOM     19  H   UNL A   1      35.016  22.637  26.348  1.00  0.00     0.038 H 
BRANCH  17  20
ATOM     20  C   UNL A   1      33.872  24.245  25.809  1.00  0.00    -0.015 A 
ATOM     21  C   UNL A   1      33.919  25.632  25.802  1.00  0.00     0.017 A 
ATOM     22  C   UNL A   1      32.521  23.900  26.145  1.00  0.00     0.004 A 
ATOM     23  N   UNL A   1      32.642  26.144  25.972  1.00  0.00    -0.285 N 
ATOM     24  H   UNL A   1      34.776  26.195  25.688  1.00  0.00     0.083 H 
ATOM     25  C   UNL A   1      31.786  25.086  26.291  1.00  0.00     0.056 A 
ATOM     26  C   UNL A   1      31.850  22.659  26.259  1.00  0.00    -0.053 A 
ATOM     27  C   UNL A   1      30.400  25.052  26.550  1.00  0.00    -0.037 A 
ATOM     28  C   UNL A   1      30.472  22.626  26.478  1.00  0.00    -0.062 A 
ATOM     29  H   UNL A   1      32.380  21.778  26.181  1.00  0.00     0.063 H 
ATOM     30  C   UNL A   1      29.758  23.808  26.620  1.00  0.00    -0.060 A 
ATOM     31  H   UNL A   1      29.868  25.925  26.687  1.00  0.00     0.065 H 
ATOM     32  H   UNL A   1      29.982  21.719  26.534  1.00  0.00     0.062 H 
ATOM     33  H   UNL A   1      28.738  23.771  26.777  1.00  0.00     0.062 H 
BRANCH  23  34
ATOM     34  C   UNL A   1      32.249  27.501  25.690  1.00  0.00     0.240 A 
ATOM     35  N   UNL A   1      32.668  28.452  26.510  1.00  0.00    -0.181 NA
ATOM     36  N   UNL A   1      31.428  27.721  24.644  1.00  0.00    -0.176 NA
ATOM     37  C   UNL A   1      32.266  29.662  26.142  1.00  0.00     0.228 A 
ATOM     38  C   UNL A   1      30.984  28.975  24.460  1.00  0.00     0.231 A 
ATOM     39  Cl  UNL A   1      32.957  30.961  27.013  1.00  0.00    -0.041 Cl
ATOM     40  N   UNL A   1      31.418  29.996  25.174  1.00  0.00    -0.182 NA
BRANCH  38  41
ATOM     41  N   UNL A   1      30.088  29.193  23.444  1.00  0.00    -0.336 N 
ATOM     42  C   UNL A   1      30.474  29.758  22.146  1.00  0.00     0.044 C 
ATOM     43  C   UNL A   1      28.997  28.236  23.266  1.00  0.00     0.044 C 
ATOM     44  C   UNL A   1      29.277  30.567  21.631  1.00  0.00     0.064 C 
ATOM     45  H   UNL A   1      30.708  28.971  21.459  1.00  0.00     0.052 H 
ATOM     46  H   UNL A   1      31.340  30.379  22.243  1.00  0.00     0.052 H 
ATOM     47  C   UNL A   1      27.804  29.007  22.655  1.00  0.00     0.064 C 
ATOM     48  H   UNL A   1      28.718  27.818  24.211  1.00  0.00     0.052 H 
ATOM     49  H   UNL A   1      29.298  27.434  22.625  1.00  0.00     0.052 H 
ATOM     50  O   UNL A   1      28.149  29.698  21.435  1.00  0.00    -0.378 OA
ATOM     51  H   UNL A   1      29.534  31.030  20.701  1.00  0.00     0.059 H 
ATOM     52  H   UNL A   1      29.023  31.317  22.351  1.00  0.00     0.059 H 
ATOM     53  H   UNL A   1      27.020  28.312  22.444  1.00  0.00     0.059 H 
ATOM     54  H   UNL A   1      27.501  29.747  23.367  1.00  0.00     0.059 H 
ENDBRANCH  38  41
ENDBRANCH  23  34
ENDBRANCH  17  20
ENDBRANCH  11  17
ENDBRANCH   8  11
ENDBRANCH   4   7
ENDBRANCH   1   4
BRANCH   1  55
ATOM     55  C   UNL A   1      38.511  22.216  25.507  1.00  0.00    -0.052 C 
ATOM     56  H   UNL A   1      37.769  22.807  25.011  1.00  0.00     0.027 H 
ATOM     57  H   UNL A   1      39.369  21.957  24.923  1.00  0.00     0.027 H 
BRANCH  55  58
ATOM     58  C   UNL A   1      39.077  23.067  26.660  1.00  0.00    -0.052 C 
ATOM     59  H   UNL A   1      38.392  22.989  27.477  1.00  0.00     0.027 H 
ATOM     60  H   UNL A   1      39.193  24.042  26.233  1.00  0.00     0.027 H 
BRANCH  58  61
ATOM     61  C   UNL A   1      40.469  22.731  27.204  1.00  0.00    -0.036 C 
ATOM     62  H   UNL A   1      40.345  22.164  28.102  1.00  0.00     0.028 H 
ATOM     63  H   UNL A   1      40.963  23.669  27.353  1.00  0.00     0.028 H 
BRANCH  61  64
ATOM     64  C   UNL A   1      41.353  21.939  26.271  1.00  0.00     0.018 C 
ATOM     65  H   UNL A   1      40.717  21.410  25.592  1.00  0.00     0.049 H 
ATOM     66  H   UNL A   1      41.944  21.313  26.905  1.00  0.00     0.049 H 
BRANCH  64  67
ATOM     67  N   UNL A   1      42.305  22.694  25.483  1.00  0.00    -0.352 N 
ATOM     68  C   UNL A   1      42.847  23.944  25.564  1.00  0.00     0.251 C 
ATOM     69  H   UNL A   1      42.639  22.187  24.709  1.00  0.00     0.163 HD
ATOM     70  O   UNL A   1      43.831  24.171  24.854  1.00  0.00    -0.269 OA
BRANCH  68  71
ATOM     71  C   UNL A   1      42.239  25.061  26.321  1.00  0.00     0.039 A 
ATOM     72  C   UNL A   1      41.287  25.942  25.823  1.00  0.00    -0.049 A 
ATOM     73  C   UNL A   1      42.766  25.279  27.607  1.00  0.00    -0.049 A 
ATOM     74  C   UNL A   1      41.056  27.141  26.477  1.00  0.00    -0.053 A 
ATOM     75  H   UNL A   1      40.755  25.704  24.971  1.00  0.00     0.063 H 
ATOM     76  C   UNL A   1      42.486  26.445  28.299  1.00  0.00    -0.053 A 
ATOM     77  H   UNL A   1      43.368  24.561  28.041  1.00  0.00     0.063 H 
ATOM     78  C   UNL A   1      41.715  27.418  27.682  1.00  0.00    -0.014 A 
ATOM     79  H   UNL A   1      40.400  27.829  26.076  1.00  0.00     0.063 H 
ATOM     80  H   UNL A   1      42.845  26.587  29.257  1.00  0.00     0.063 H 
BRANCH  78  81
ATOM     81  C   UNL A   1      41.436  28.686  28.342  1.00  0.00     0.031 A 
ATOM     82  C   UNL A   1      42.500  29.697  28.096  1.00  0.00     0.074 A 
ATOM     83  C   UNL A   1      40.321  28.937  29.061  1.00  0.00     0.049 A 
ATOM     84  N   UNL A   1      43.336  30.167  28.961  1.00  0.00    -0.248 NA
ATOM     85  C   UNL A   1      42.804  30.070  26.705  1.00  0.00    -0.034 C 
ATOM     86  C   UNL A   1      39.129  28.105  29.234  1.00  0.00    -0.036 A 
ATOM     87  N   UNL A   1      40.005  30.055  29.780  1.00  0.00    -0.354 N 
ATOM     88  C   UNL A   1      44.154  31.048  28.262  1.00  0.00     0.074 A 
ATOM     89  C   UNL A   1      43.890  30.829  26.864  1.00  0.00    -0.034 C 
ATOM     90  H   UNL A   1      42.310  29.812  25.836  1.00  0.00     0.065 H 
ATOM     91  C   UNL A   1      38.139  28.835  29.806  1.00  0.00    -0.036 A 
ATOM     92  H   UNL A   1      39.052  27.113  28.961  1.00  0.00     0.065 H 
ATOM     93  C   UNL A   1      38.671  30.131  30.184  1.00  0.00     0.049 A 
ATOM     94  H   UNL A   1      40.666  30.751  29.995  1.00  0.00     0.167 HD
ATOM     95  C   UNL A   1      44.797  32.054  28.915  1.00  0.00     0.037 A 
ATOM     96  H   UNL A   1      44.461  31.207  26.092  1.00  0.00     0.065 H 
ATOM     97  H   UNL A   1      37.168  28.520  29.950  1.00  0.00     0.065 H 
ATOM     98  C   UNL A   1      38.064  31.199  30.773  1.00  0.00     0.037 A 
ATOM     99  C   UNL A   1      44.905  31.763  30.322  1.00  0.00     0.049 A 
ATOM    100  C   UNL A   1      39.140  32.015  31.390  1.00  0.00     0.074 A 
ATOM    101  C   UNL A   1      45.547  30.795  31.070  1.00  0.00    -0.036 A 
ATOM    102  N   UNL A   1      43.966  32.316  31.155  1.00  0.00    -0.354 N 
ATOM    103  N   UNL A   1      39.852  31.606  32.404  1.00  0.00    -0.248 NA
ATOM    104  C   UNL A   1      39.746  33.044  30.560  1.00  0.00    -0.034 C 
ATOM    105  C   UNL A   1      44.647  30.491  32.133  1.00  0.00    -0.036 A 
ATOM    106  H   UNL A   1      46.477  30.381  30.896  1.00  0.00     0.065 H 
ATOM    107  C   UNL A   1      43.548  31.343  32.024  1.00  0.00     0.049 A 
ATOM    108  H   UNL A   1      43.648  33.247  31.132  1.00  0.00     0.167 HD
ATOM    109  C   UNL A   1      41.146  31.987  32.091  1.00  0.00     0.074 A 
ATOM    110  C   UNL A   1      41.013  32.906  30.959  1.00  0.00    -0.034 C 
ATOM    111  H   UNL A   1      39.325  33.687  29.872  1.00  0.00     0.065 H 
ATOM    112  H   UNL A   1      44.785  29.768  32.856  1.00  0.00     0.065 H 
ATOM    113  C   UNL A   1      42.217  31.296  32.577  1.00  0.00     0.037 A 
ATOM    114  H   UNL A   1      41.810  33.394  30.521  1.00  0.00     0.065 H 
BRANCH  95 115
ATOM    115  C   UNL A   1      44.922  33.456  28.372  1.00  0.00     0.064 A 
ATOM    116  C   UNL A   1      46.209  34.000  28.178  1.00  0.00     0.173 A 
ATOM    117  C   UNL A   1      43.861  34.388  28.347  1.00  0.00     0.173 A 
ATOM    118  F   UNL A   1      47.295  33.213  28.202  1.00  0.00    -0.203 F 
ATOM    119  C   UNL A   1      46.419  35.378  28.061  1.00  0.00     0.198 A 
ATOM    120  C   UNL A   1      44.070  35.755  28.181  1.00  0.00     0.198 A 
ATOM    121  F   UNL A   1      42.594  34.038  28.595  1.00  0.00    -0.203 F 
ATOM    122  F   UNL A   1      47.669  35.858  28.015  1.00  0.00    -0.200 F 
ATOM    123  C   UNL A   1      45.350  36.253  28.072  1.00  0.00     0.200 A 
ATOM    124  F   UNL A   1      43.022  36.589  28.219  1.00  0.00    -0.200 F 
ATOM    125  F   UNL A   1      45.552  37.576  28.028  1.00  0.00    -0.200 F 
ENDBRANCH  95 115
BRANCH  98 126
ATOM    126  C   UNL A   1      36.716  31.772  30.511  1.00  0.00     0.064 A 
ATOM    127  C   UNL A   1      35.873  32.168  31.568  1.00  0.00     0.173 A 
ATOM    128  C   UNL A   1      36.361  32.241  29.231  1.00  0.00     0.173 A 
ATOM    129  F   UNL A   1      36.160  31.810  32.829  1.00  0.00    -0.203 F 
ATOM    130  C   UNL A   1      34.767  33.004  31.362  1.00  0.00     0.198 A 
ATOM    131  C   UNL A   1      35.259  33.076  29.026  1.00  0.00     0.198 A 
ATOM    132  F   UNL A   1      37.137  31.982  28.170  1.00  0.00    -0.203 F 
ATOM    133  F   UNL A   1      34.028  33.410  32.404  1.00  0.00    -0.200 F 
ATOM    134  C   UNL A   1      34.470  33.469  30.093  1.00  0.00     0.200 A 
ATOM    135  F   UNL A   1      35.006  33.554  27.799  1.00  0.00    -0.200 F 
ATOM    136  F   UNL A   1      33.456  34.325  29.902  1.00  0.00    -0.200 F 
ENDBRANCH  98 126
BRANCH 113 137
ATOM    137  C   UNL A   1      41.965  30.256  33.633  1.00  0.00     0.064 A 
ATOM    138  C   UNL A   1      41.631  28.917  33.359  1.00  0.00     0.173 A 
ATOM    139  C   UNL A   1      42.255  30.589  34.962  1.00  0.00     0.173 A 
ATOM    140  F   UNL A   1      41.423  28.501  32.103  1.00  0.00    -0.203 F 
ATOM    141  C   UNL A   1      41.579  27.964  34.376  1.00  0.00     0.198 A 
ATOM    142  C   UNL A   1      42.233  29.630  35.969  1.00  0.00     0.198 A 
ATOM    143  F   UNL A   1      42.625  31.842  35.272  1.00  0.00    -0.203 F 
ATOM    144  F   UNL A   1      41.273  26.689  34.091  1.00  0.00    -0.200 F 
ATOM    145  C   UNL A   1      41.892  28.319  35.678  1.00  0.00     0.200 A 
ATOM    146  F   UNL A   1      42.586  29.969  37.216  1.00  0.00    -0.200 F 
ATOM    147  F   UNL A   1      41.899  27.393  36.647  1.00  0.00    -0.200 F 
ENDBRANCH 113 137
ENDBRANCH  78  81
ENDBRANCH  68  71
ENDBRANCH  64  67
ENDBRANCH  61  64
ENDBRANCH  58  61
ENDBRANCH  55  58
ENDBRANCH   1  55
TORSDOF 18
ENDMDL
MODEL 8
REMARK VINA RESULT:     -12.8      2.308      3.271
REMARK SMILES [NH3+][C@@H](Cc1cn(-c2nc(Cl)nc(N3CCOCC3)n2)c2ccccc12)C(=O)NCCCCCCNC(=O)c1ccc(-c2c3nc(c(-c4c(F)c(F)c(F)c(F)c4F)c4ccc([nH]4)c(-c4c(F)c(F)c(F)c(F)c4F)c4nc(c(-c5c(F)c(F)c(F)c(F)c5F)c5ccc2[nH]5)C=C4)C=C3)cc1
REMARK SMILES IDX 30 1 29 4 28 7 26 8 27 9 2 11 1 13 3 17 4 20 5 21 25 22 6 23
REMARK SMILES IDX 20 25 24 26 21 27 23 28 22 30 7 34 8 35 19 36 9 37 12 38
REMARK SMILES IDX 10 39 11 40 13 41 14 42 18 43 15 44 17 47 16 50 31 55 32 58
REMARK SMILES IDX 33 61 34 64 35 67 36 68 37 70 38 71 39 72 100 73 40 74 99 76
REMARK SMILES IDX 41 78 42 81 43 82 93 83 44 84 98 85 92 86 94 87 45 88 97 89
REMARK SMILES IDX 91 91 90 93 46 95 78 98 58 99 77 100 59 101 62 102 76 103
REMARK SMILES IDX 95 104 60 105 61 107 75 109 96 110 63 113 47 115 48 116
REMARK SMILES IDX 56 117 49 118 50 119 54 120 57 121 51 122 52 123 55 124
REMARK SMILES IDX 53 125 79 126 80 127 88 128 81 129 82 130 86 131 89 132
REMARK SMILES IDX 83 133 84 134 87 135 85 136 64 137 65 138 73 139 66 140
REMARK SMILES IDX 67 141 71 142 74 143 68 144 69 145 72 146 70 147
REMARK H PARENT 30 2 30 3 29 5 29 6 28 10 2 12 1 14 1 15 1 16 3 18 3 19 5 24
REMARK H PARENT 24 29 21 31 23 32 22 33 14 45 14 46 18 48 18 49 15 51 15 52
REMARK H PARENT 17 53 17 54 31 56 31 57 32 59 32 60 33 62 33 63 34 65 34 66
REMARK H PARENT 35 69 39 75 100 77 40 79 99 80 98 90 92 92 94 94 97 96 91 97
REMARK H PARENT 59 106 62 108 95 111 60 112 96 114
REMARK Flexibility Score: inf
ROOT
ATOM      1  C   UNL A   1      33.423  23.063  23.064  1.00  0.00    -0.036 C 
ATOM      2  H   UNL A   1      34.005  23.943  22.883  1.00  0.00     0.028 H 
ATOM      3  H   UNL A   1      33.263  22.458  22.196  1.00  0.00     0.028 H 
ENDROOT
BRANCH   1   4
ATOM      4  C   UNL A   1      32.048  23.502  23.513  1.00  0.00     0.018 C 
ATOM      5  H   UNL A   1      32.138  24.495  23.902  1.00  0.00     0.049 H 
ATOM      6  H   UNL A   1      31.431  23.412  22.644  1.00  0.00     0.049 H 
BRANCH   4   7
ATOM      7  N   UNL A   1      31.403  22.703  24.514  1.00  0.00    -0.351 N 
ATOM      8  C   UNL A   1      31.046  23.083  25.780  1.00  0.00     0.278 C 
ATOM      9  O   UNL A   1      30.265  22.338  26.385  1.00  0.00    -0.268 OA
ATOM     10  H   UNL A   1      31.191  21.776  24.261  1.00  0.00     0.163 HD
BRANCH   8  11
ATOM     11  C   UNL A   1      31.594  24.370  26.470  1.00  0.00     0.168 C 
ATOM     12  H   UNL A   1      31.273  24.283  27.487  1.00  0.00     0.107 H 
BRANCH  11  13
ATOM     13  N   UNL A   1      33.075  24.389  26.501  1.00  0.00    -0.347 N 
ATOM     14  H   UNL A   1      33.423  24.995  25.759  1.00  0.00     0.345 HD
ATOM     15  H   UNL A   1      33.430  23.443  26.363  1.00  0.00     0.345 HD
ATOM     16  H   UNL A   1      33.392  24.741  27.404  1.00  0.00     0.345 HD
ENDBRANCH  11  13
BRANCH  11  17
ATOM     17  C   UNL A   1      30.905  25.713  26.128  1.00  0.00     0.036 C 
ATOM     18  H   UNL A   1      30.260  25.951  26.948  1.00  0.00     0.038 H 
ATOM     19  H   UNL A   1      30.438  25.524  25.184  1.00  0.00     0.038 H 
BRANCH  17  20
ATOM     20  C   UNL A   1      31.751  26.936  25.867  1.00  0.00    -0.015 A 
ATOM     21  C   UNL A   1      32.268  27.843  26.780  1.00  0.00     0.017 A 
ATOM     22  C   UNL A   1      32.231  27.356  24.581  1.00  0.00     0.004 A 
ATOM     23  N   UNL A   1      33.150  28.701  26.139  1.00  0.00    -0.285 N 
ATOM     24  H   UNL A   1      32.032  27.874  27.784  1.00  0.00     0.083 H 
ATOM     25  C   UNL A   1      33.054  28.478  24.762  1.00  0.00     0.056 A 
ATOM     26  C   UNL A   1      32.087  26.814  23.282  1.00  0.00    -0.053 A 
ATOM     27  C   UNL A   1      33.728  29.065  23.671  1.00  0.00    -0.037 A 
ATOM     28  C   UNL A   1      32.784  27.372  22.210  1.00  0.00    -0.062 A 
ATOM     29  H   UNL A   1      31.465  26.006  23.127  1.00  0.00     0.063 H 
ATOM     30  C   UNL A   1      33.596  28.482  22.405  1.00  0.00    -0.060 A 
ATOM     31  H   UNL A   1      34.308  29.908  23.803  1.00  0.00     0.065 H 
ATOM     32  H   UNL A   1      32.698  26.958  21.268  1.00  0.00     0.062 H 
ATOM     33  H   UNL A   1      34.109  28.883  21.605  1.00  0.00     0.062 H 
BRANCH  23  34
ATOM     34  C   UNL A   1      34.116  29.542  26.799  1.00  0.00     0.240 A 
ATOM     35  N   UNL A   1      35.248  28.989  27.204  1.00  0.00    -0.181 NA
ATOM     36  N   UNL A   1      33.789  30.831  27.023  1.00  0.00    -0.176 NA
ATOM     37  C   UNL A   1      36.070  29.859  27.777  1.00  0.00     0.228 A 
ATOM     38  C   UNL A   1      34.653  31.573  27.734  1.00  0.00     0.231 A 
ATOM     39  Cl  UNL A   1      37.639  29.273  28.114  1.00  0.00    -0.041 Cl
ATOM     40  N   UNL A   1      35.840  31.127  28.100  1.00  0.00    -0.182 NA
BRANCH  38  41
ATOM     41  N   UNL A   1      34.294  32.863  28.032  1.00  0.00    -0.336 N 
ATOM     42  C   UNL A   1      35.242  33.983  28.001  1.00  0.00     0.044 C 
ATOM     43  C   UNL A   1      32.967  33.324  27.625  1.00  0.00     0.044 C 
ATOM     44  C   UNL A   1      34.792  34.984  29.072  1.00  0.00     0.064 C 
ATOM     45  H   UNL A   1      35.231  34.447  27.036  1.00  0.00     0.052 H 
ATOM     46  H   UNL A   1      36.239  33.643  28.192  1.00  0.00     0.052 H 
ATOM     47  C   UNL A   1      32.528  34.408  28.636  1.00  0.00     0.064 C 
ATOM     48  H   UNL A   1      32.275  32.507  27.640  1.00  0.00     0.052 H 
ATOM     49  H   UNL A   1      32.991  33.719  26.632  1.00  0.00     0.052 H 
ATOM     50  O   UNL A   1      33.483  35.485  28.753  1.00  0.00    -0.378 OA
ATOM     51  H   UNL A   1      35.484  35.800  29.109  1.00  0.00     0.059 H 
ATOM     52  H   UNL A   1      34.760  34.494  30.023  1.00  0.00     0.059 H 
ATOM     53  H   UNL A   1      31.592  34.815  28.315  1.00  0.00     0.059 H 
ATOM     54  H   UNL A   1      32.451  33.941  29.596  1.00  0.00     0.059 H 
ENDBRANCH  38  41
ENDBRANCH  23  34
ENDBRANCH  17  20
ENDBRANCH  11  17
ENDBRANCH   8  11
ENDBRANCH   4   7
ENDBRANCH   1   4
BRANCH   1  55
ATOM     55  C   UNL A   1      34.197  22.185  24.041  1.00  0.00    -0.052 C 
ATOM     56  H   UNL A   1      33.970  21.167  23.801  1.00  0.00     0.027 H 
ATOM     57  H   UNL A   1      33.879  22.520  25.006  1.00  0.00     0.027 H 
BRANCH  55  58
ATOM     58  C   UNL A   1      35.732  22.314  24.079  1.00  0.00    -0.052 C 
ATOM     59  H   UNL A   1      35.970  23.330  23.848  1.00  0.00     0.027 H 
ATOM     60  H   UNL A   1      36.073  21.579  23.380  1.00  0.00     0.027 H 
BRANCH  58  61
ATOM     61  C   UNL A   1      36.465  21.962  25.378  1.00  0.00    -0.036 C 
ATOM     62  H   UNL A   1      36.806  20.951  25.301  1.00  0.00     0.028 H 
ATOM     63  H   UNL A   1      35.760  22.118  26.168  1.00  0.00     0.028 H 
BRANCH  61  64
ATOM     64  C   UNL A   1      37.655  22.831  25.703  1.00  0.00     0.018 C 
ATOM     65  H   UNL A   1      37.346  23.544  26.437  1.00  0.00     0.049 H 
ATOM     66  H   UNL A   1      37.958  23.256  24.769  1.00  0.00     0.049 H 
BRANCH  64  67
ATOM     67  N   UNL A   1      38.830  22.155  26.213  1.00  0.00    -0.352 N 
ATOM     68  C   UNL A   1      39.825  22.481  27.089  1.00  0.00     0.251 C 
ATOM     69  H   UNL A   1      38.935  21.250  25.842  1.00  0.00     0.163 HD
ATOM     70  O   UNL A   1      40.540  21.556  27.488  1.00  0.00    -0.269 OA
BRANCH  68  71
ATOM     71  C   UNL A   1      40.182  23.868  27.456  1.00  0.00     0.039 A 
ATOM     72  C   UNL A   1      41.397  24.266  28.003  1.00  0.00    -0.049 A 
ATOM     73  C   UNL A   1      39.151  24.816  27.322  1.00  0.00    -0.049 A 
ATOM     74  C   UNL A   1      41.494  25.497  28.630  1.00  0.00    -0.053 A 
ATOM     75  H   UNL A   1      42.221  23.647  27.942  1.00  0.00     0.063 H 
ATOM     76  C   UNL A   1      39.267  26.074  27.886  1.00  0.00    -0.053 A 
ATOM     77  H   UNL A   1      38.297  24.570  26.796  1.00  0.00     0.063 H 
ATOM     78  C   UNL A   1      40.399  26.370  28.630  1.00  0.00    -0.014 A 
ATOM     79  H   UNL A   1      42.373  25.770  29.097  1.00  0.00     0.063 H 
ATOM     80  H   UNL A   1      38.523  26.779  27.757  1.00  0.00     0.063 H 
BRANCH  78  81
ATOM     81  C   UNL A   1      40.547  27.659  29.292  1.00  0.00     0.031 A 
ATOM     82  C   UNL A   1      41.515  28.546  28.593  1.00  0.00     0.074 A 
ATOM     83  C   UNL A   1      39.856  28.029  30.392  1.00  0.00     0.049 A 
ATOM     84  N   UNL A   1      42.675  28.917  29.022  1.00  0.00    -0.248 NA
ATOM     85  C   UNL A   1      41.260  28.888  27.184  1.00  0.00    -0.034 C 
ATOM     86  C   UNL A   1      38.760  27.334  31.070  1.00  0.00    -0.036 A 
ATOM     87  N   UNL A   1      39.979  29.172  31.130  1.00  0.00    -0.354 N 
ATOM     88  C   UNL A   1      43.222  29.704  28.014  1.00  0.00     0.074 A 
ATOM     89  C   UNL A   1      42.388  29.521  26.856  1.00  0.00    -0.034 C 
ATOM     90  H   UNL A   1      40.430  28.690  26.604  1.00  0.00     0.065 H 
ATOM     91  C   UNL A   1      38.172  28.168  31.964  1.00  0.00    -0.036 A 
ATOM     92  H   UNL A   1      38.477  26.359  30.894  1.00  0.00     0.065 H 
ATOM     93  C   UNL A   1      38.943  29.396  32.037  1.00  0.00     0.049 A 
ATOM     94  H   UNL A   1      40.738  29.790  31.028  1.00  0.00     0.167 HD
ATOM     95  C   UNL A   1      44.176  30.629  28.306  1.00  0.00     0.037 A 
ATOM     96  H   UNL A   1      42.629  29.836  25.903  1.00  0.00     0.065 H 
ATOM     97  H   UNL A   1      37.317  27.963  32.503  1.00  0.00     0.065 H 
ATOM     98  C   UNL A   1      38.743  30.522  32.777  1.00  0.00     0.037 A 
ATOM     99  C   UNL A   1      44.819  30.323  29.559  1.00  0.00     0.049 A 
ATOM    100  C   UNL A   1      40.055  31.211  32.868  1.00  0.00     0.074 A 
ATOM    101  C   UNL A   1      45.607  29.286  30.020  1.00  0.00    -0.036 A 
ATOM    102  N   UNL A   1      44.366  30.974  30.677  1.00  0.00    -0.354 N 
ATOM    103  N   UNL A   1      41.073  30.721  33.521  1.00  0.00    -0.248 NA
ATOM    104  C   UNL A   1      40.372  32.169  31.821  1.00  0.00    -0.034 C 
ATOM    105  C   UNL A   1      45.195  29.080  31.369  1.00  0.00    -0.036 A 
ATOM    106  H   UNL A   1      46.337  28.772  29.501  1.00  0.00     0.065 H 
ATOM    107  C   UNL A   1      44.242  30.049  31.681  1.00  0.00     0.049 A 
ATOM    108  H   UNL A   1      44.164  31.934  30.747  1.00  0.00     0.167 HD
ATOM    109  C   UNL A   1      42.158  30.957  32.692  1.00  0.00     0.074 A 
ATOM    110  C   UNL A   1      41.670  31.890  31.676  1.00  0.00    -0.034 C 
ATOM    111  H   UNL A   1      39.774  32.858  31.337  1.00  0.00     0.065 H 
ATOM    112  H   UNL A   1      45.541  28.344  32.003  1.00  0.00     0.065 H 
ATOM    113  C   UNL A   1      43.256  30.149  32.730  1.00  0.00     0.037 A 
ATOM    114  H   UNL A   1      42.262  32.287  30.931  1.00  0.00     0.065 H 
BRANCH  95 115
ATOM    115  C   UNL A   1      44.212  32.011  27.701  1.00  0.00     0.064 A 
ATOM    116  C   UNL A   1      45.248  32.334  26.801  1.00  0.00     0.173 A 
ATOM    117  C   UNL A   1      43.485  33.110  28.207  1.00  0.00     0.173 A 
ATOM    118  F   UNL A   1      46.019  31.372  26.271  1.00  0.00    -0.203 F 
ATOM    119  C   UNL A   1      45.584  33.659  26.506  1.00  0.00     0.198 A 
ATOM    120  C   UNL A   1      43.791  34.428  27.872  1.00  0.00     0.198 A 
ATOM    121  F   UNL A   1      42.527  32.973  29.130  1.00  0.00    -0.203 F 
ATOM    122  F   UNL A   1      46.661  33.919  25.752  1.00  0.00    -0.200 F 
ATOM    123  C   UNL A   1      44.861  34.704  27.049  1.00  0.00     0.200 A 
ATOM    124  F   UNL A   1      43.093  35.427  28.430  1.00  0.00    -0.200 F 
ATOM    125  F   UNL A   1      45.221  35.973  26.822  1.00  0.00    -0.200 F 
ENDBRANCH  95 115
BRANCH  98 126
ATOM    126  C   UNL A   1      37.473  31.243  33.062  1.00  0.00     0.064 A 
ATOM    127  C   UNL A   1      37.359  32.113  34.165  1.00  0.00     0.173 A 
ATOM    128  C   UNL A   1      36.461  31.346  32.089  1.00  0.00     0.173 A 
ATOM    129  F   UNL A   1      38.304  32.121  35.117  1.00  0.00    -0.203 F 
ATOM    130  C   UNL A   1      36.318  33.046  34.269  1.00  0.00     0.198 A 
ATOM    131  C   UNL A   1      35.424  32.278  32.192  1.00  0.00     0.198 A 
ATOM    132  F   UNL A   1      36.515  30.614  30.967  1.00  0.00    -0.203 F 
ATOM    133  F   UNL A   1      36.283  33.901  35.301  1.00  0.00    -0.200 F 
ATOM    134  C   UNL A   1      35.360  33.138  33.275  1.00  0.00     0.200 A 
ATOM    135  F   UNL A   1      34.525  32.385  31.203  1.00  0.00    -0.200 F 
ATOM    136  F   UNL A   1      34.404  34.076  33.335  1.00  0.00    -0.200 F 
ENDBRANCH  98 126
BRANCH 113 137
ATOM    137  C   UNL A   1      43.353  29.140  33.839  1.00  0.00     0.064 A 
ATOM    138  C   UNL A   1      42.808  27.844  33.778  1.00  0.00     0.173 A 
ATOM    139  C   UNL A   1      44.186  29.438  34.925  1.00  0.00     0.173 A 
ATOM    140  F   UNL A   1      42.070  27.455  32.730  1.00  0.00    -0.203 F 
ATOM    141  C   UNL A   1      43.078  26.900  34.768  1.00  0.00     0.198 A 
ATOM    142  C   UNL A   1      44.479  28.484  35.894  1.00  0.00     0.198 A 
ATOM    143  F   UNL A   1      44.770  30.643  35.008  1.00  0.00    -0.203 F 
ATOM    144  F   UNL A   1      42.560  25.665  34.683  1.00  0.00    -0.200 F 
ATOM    145  C   UNL A   1      43.924  27.217  35.819  1.00  0.00     0.200 A 
ATOM    146  F   UNL A   1      45.338  28.782  36.879  1.00  0.00    -0.200 F 
ATOM    147  F   UNL A   1      44.232  26.294  36.740  1.00  0.00    -0.200 F 
ENDBRANCH 113 137
ENDBRANCH  78  81
ENDBRANCH  68  71
ENDBRANCH  64  67
ENDBRANCH  61  64
ENDBRANCH  58  61
ENDBRANCH  55  58
ENDBRANCH   1  55
TORSDOF 18
ENDMDL
MODEL 9
REMARK VINA RESULT:     -12.7      1.979      2.783
REMARK SMILES [NH3+][C@@H](Cc1cn(-c2nc(Cl)nc(N3CCOCC3)n2)c2ccccc12)C(=O)NCCCCCCNC(=O)c1ccc(-c2c3nc(c(-c4c(F)c(F)c(F)c(F)c4F)c4ccc([nH]4)c(-c4c(F)c(F)c(F)c(F)c4F)c4nc(c(-c5c(F)c(F)c(F)c(F)c5F)c5ccc2[nH]5)C=C4)C=C3)cc1
REMARK SMILES IDX 30 1 29 4 28 7 26 8 27 9 2 11 1 13 3 17 4 20 5 21 25 22 6 23
REMARK SMILES IDX 20 25 24 26 21 27 23 28 22 30 7 34 8 35 19 36 9 37 12 38
REMARK SMILES IDX 10 39 11 40 13 41 14 42 18 43 15 44 17 47 16 50 31 55 32 58
REMARK SMILES IDX 33 61 34 64 35 67 36 68 37 70 38 71 39 72 100 73 40 74 99 76
REMARK SMILES IDX 41 78 42 81 43 82 93 83 44 84 98 85 92 86 94 87 45 88 97 89
REMARK SMILES IDX 91 91 90 93 46 95 78 98 58 99 77 100 59 101 62 102 76 103
REMARK SMILES IDX 95 104 60 105 61 107 75 109 96 110 63 113 47 115 48 116
REMARK SMILES IDX 56 117 49 118 50 119 54 120 57 121 51 122 52 123 55 124
REMARK SMILES IDX 53 125 79 126 80 127 88 128 81 129 82 130 86 131 89 132
REMARK SMILES IDX 83 133 84 134 87 135 85 136 64 137 65 138 73 139 66 140
REMARK SMILES IDX 67 141 71 142 74 143 68 144 69 145 72 146 70 147
REMARK H PARENT 30 2 30 3 29 5 29 6 28 10 2 12 1 14 1 15 1 16 3 18 3 19 5 24
REMARK H PARENT 24 29 21 31 23 32 22 33 14 45 14 46 18 48 18 49 15 51 15 52
REMARK H PARENT 17 53 17 54 31 56 31 57 32 59 32 60 33 62 33 63 34 65 34 66
REMARK H PARENT 35 69 39 75 100 77 40 79 99 80 98 90 92 92 94 94 97 96 91 97
REMARK H PARENT 59 106 62 108 95 111 60 112 96 114
REMARK Flexibility Score: inf
ROOT
ATOM      1  C   UNL A   1      37.390  18.499  25.105  1.00  0.00    -0.036 C 
ATOM      2  H   UNL A   1      37.767  17.744  24.448  1.00  0.00     0.028 H 
ATOM      3  H   UNL A   1      37.288  18.183  26.122  1.00  0.00     0.028 H 
ENDROOT
BRANCH   1   4
ATOM      4  C   UNL A   1      35.994  18.856  24.647  1.00  0.00     0.018 C 
ATOM      5  H   UNL A   1      35.662  19.683  25.240  1.00  0.00     0.049 H 
ATOM      6  H   UNL A   1      36.090  19.061  23.601  1.00  0.00     0.049 H 
BRANCH   4   7
ATOM      7  N   UNL A   1      34.996  17.831  24.737  1.00  0.00    -0.351 N 
ATOM      8  C   UNL A   1      33.710  17.877  24.268  1.00  0.00     0.278 C 
ATOM      9  O   UNL A   1      33.103  16.802  24.205  1.00  0.00    -0.268 OA
ATOM     10  H   UNL A   1      35.267  16.998  25.186  1.00  0.00     0.163 HD
BRANCH   8  11
ATOM     11  C   UNL A   1      33.004  19.204  23.848  1.00  0.00     0.168 C 
ATOM     12  H   UNL A   1      33.789  19.803  23.437  1.00  0.00     0.107 H 
BRANCH  11  13
ATOM     13  N   UNL A   1      32.030  18.984  22.753  1.00  0.00    -0.347 N 
ATOM     14  H   UNL A   1      31.523  19.850  22.570  1.00  0.00     0.345 HD
ATOM     15  H   UNL A   1      31.372  18.255  23.024  1.00  0.00     0.345 HD
ATOM     16  H   UNL A   1      32.527  18.697  21.909  1.00  0.00     0.345 HD
ENDBRANCH  11  13
BRANCH  11  17
ATOM     17  C   UNL A   1      32.552  20.161  24.976  1.00  0.00     0.036 C 
ATOM     18  H   UNL A   1      33.044  19.842  25.872  1.00  0.00     0.038 H 
ATOM     19  H   UNL A   1      31.485  20.088  24.958  1.00  0.00     0.038 H 
BRANCH  17  20
ATOM     20  C   UNL A   1      32.810  21.643  24.839  1.00  0.00    -0.015 A 
ATOM     21  C   UNL A   1      31.918  22.650  24.500  1.00  0.00     0.017 A 
ATOM     22  C   UNL A   1      34.060  22.297  25.100  1.00  0.00     0.004 A 
ATOM     23  N   UNL A   1      32.518  23.887  24.681  1.00  0.00    -0.285 N 
ATOM     24  H   UNL A   1      30.954  22.500  24.164  1.00  0.00     0.083 H 
ATOM     25  C   UNL A   1      33.875  23.680  24.949  1.00  0.00     0.056 A 
ATOM     26  C   UNL A   1      35.320  21.817  25.529  1.00  0.00    -0.053 A 
ATOM     27  C   UNL A   1      34.923  24.584  25.218  1.00  0.00    -0.037 A 
ATOM     28  C   UNL A   1      36.345  22.715  25.832  1.00  0.00    -0.062 A 
ATOM     29  H   UNL A   1      35.481  20.802  25.620  1.00  0.00     0.063 H 
ATOM     30  C   UNL A   1      36.146  24.080  25.678  1.00  0.00    -0.060 A 
ATOM     31  H   UNL A   1      34.792  25.598  25.077  1.00  0.00     0.065 H 
ATOM     32  H   UNL A   1      37.254  22.362  26.170  1.00  0.00     0.062 H 
ATOM     33  H   UNL A   1      36.910  24.735  25.908  1.00  0.00     0.062 H 
BRANCH  23  34
ATOM     34  C   UNL A   1      31.819  25.145  24.755  1.00  0.00     0.240 A 
ATOM     35  N   UNL A   1      30.630  25.229  24.180  1.00  0.00    -0.181 NA
ATOM     36  N   UNL A   1      32.440  26.183  25.350  1.00  0.00    -0.176 NA
ATOM     37  C   UNL A   1      30.070  26.423  24.329  1.00  0.00     0.228 A 
ATOM     38  C   UNL A   1      31.822  27.375  25.315  1.00  0.00     0.231 A 
ATOM     39  Cl  UNL A   1      28.442  26.538  23.821  1.00  0.00    -0.041 Cl
ATOM     40  N   UNL A   1      30.600  27.529  24.841  1.00  0.00    -0.182 NA
BRANCH  38  41
ATOM     41  N   UNL A   1      32.480  28.452  25.851  1.00  0.00    -0.336 N 
ATOM     42  C   UNL A   1      33.943  28.525  25.954  1.00  0.00     0.044 C 
ATOM     43  C   UNL A   1      31.931  29.787  25.613  1.00  0.00     0.044 C 
ATOM     44  C   UNL A   1      34.266  29.349  27.206  1.00  0.00     0.064 C 
ATOM     45  H   UNL A   1      34.348  29.002  25.085  1.00  0.00     0.052 H 
ATOM     46  H   UNL A   1      34.369  27.546  26.021  1.00  0.00     0.052 H 
ATOM     47  C   UNL A   1      32.328  30.668  26.820  1.00  0.00     0.064 C 
ATOM     48  H   UNL A   1      30.866  29.735  25.531  1.00  0.00     0.052 H 
ATOM     49  H   UNL A   1      32.314  30.197  24.702  1.00  0.00     0.052 H 
ATOM     50  O   UNL A   1      33.751  30.683  27.060  1.00  0.00    -0.378 OA
ATOM     51  H   UNL A   1      35.327  29.391  27.340  1.00  0.00     0.059 H 
ATOM     52  H   UNL A   1      33.813  28.887  28.059  1.00  0.00     0.059 H 
ATOM     53  H   UNL A   1      32.002  31.670  26.632  1.00  0.00     0.059 H 
ATOM     54  H   UNL A   1      31.860  30.253  27.688  1.00  0.00     0.059 H 
ENDBRANCH  38  41
ENDBRANCH  23  34
ENDBRANCH  17  20
ENDBRANCH  11  17
ENDBRANCH   8  11
ENDBRANCH   4   7
ENDBRANCH   1   4
BRANCH   1  55
ATOM     55  C   UNL A   1      38.399  19.642  25.129  1.00  0.00    -0.052 C 
ATOM     56  H   UNL A   1      38.003  20.402  25.770  1.00  0.00     0.027 H 
ATOM     57  H   UNL A   1      38.516  19.913  24.100  1.00  0.00     0.027 H 
BRANCH  55  58
ATOM     58  C   UNL A   1      39.832  19.341  25.609  1.00  0.00    -0.052 C 
ATOM     59  H   UNL A   1      40.464  19.359  24.747  1.00  0.00     0.027 H 
ATOM     60  H   UNL A   1      39.746  18.401  26.113  1.00  0.00     0.027 H 
BRANCH  58  61
ATOM     61  C   UNL A   1      40.465  20.267  26.653  1.00  0.00    -0.036 C 
ATOM     62  H   UNL A   1      41.498  20.005  26.744  1.00  0.00     0.028 H 
ATOM     63  H   UNL A   1      39.905  20.124  27.554  1.00  0.00     0.028 H 
BRANCH  61  64
ATOM     64  C   UNL A   1      40.384  21.741  26.342  1.00  0.00     0.018 C 
ATOM     65  H   UNL A   1      40.182  22.256  27.258  1.00  0.00     0.049 H 
ATOM     66  H   UNL A   1      39.616  21.833  25.602  1.00  0.00     0.049 H 
BRANCH  64  67
ATOM     67  N   UNL A   1      41.560  22.343  25.749  1.00  0.00    -0.352 N 
ATOM     68  C   UNL A   1      42.265  23.493  25.959  1.00  0.00     0.251 C 
ATOM     69  H   UNL A   1      41.939  21.795  25.025  1.00  0.00     0.163 HD
ATOM     70  O   UNL A   1      43.378  23.567  25.431  1.00  0.00    -0.269 OA
BRANCH  68  71
ATOM     71  C   UNL A   1      41.717  24.686  26.640  1.00  0.00     0.039 A 
ATOM     72  C   UNL A   1      40.853  25.611  26.065  1.00  0.00    -0.049 A 
ATOM     73  C   UNL A   1      42.210  24.925  27.936  1.00  0.00    -0.049 A 
ATOM     74  C   UNL A   1      40.690  26.853  26.655  1.00  0.00    -0.053 A 
ATOM     75  H   UNL A   1      40.337  25.374  25.204  1.00  0.00     0.063 H 
ATOM     76  C   UNL A   1      41.993  26.140  28.564  1.00  0.00    -0.053 A 
ATOM     77  H   UNL A   1      42.738  24.186  28.425  1.00  0.00     0.063 H 
ATOM     78  C   UNL A   1      41.323  27.137  27.872  1.00  0.00    -0.014 A 
ATOM     79  H   UNL A   1      40.104  27.569  26.198  1.00  0.00     0.063 H 
ATOM     80  H   UNL A   1      42.326  26.300  29.528  1.00  0.00     0.063 H 
BRANCH  78  81
ATOM     81  C   UNL A   1      41.117  28.452  28.463  1.00  0.00     0.031 A 
ATOM     82  C   UNL A   1      42.214  29.400  28.130  1.00  0.00     0.074 A 
ATOM     83  C   UNL A   1      40.034  28.793  29.196  1.00  0.00     0.049 A 
ATOM     84  N   UNL A   1      43.094  29.883  28.943  1.00  0.00    -0.248 NA
ATOM     85  C   UNL A   1      42.493  29.678  26.712  1.00  0.00    -0.034 C 
ATOM     86  C   UNL A   1      38.814  28.025  29.449  1.00  0.00    -0.036 A 
ATOM     87  N   UNL A   1      39.787  29.963  29.856  1.00  0.00    -0.354 N 
ATOM     88  C   UNL A   1      43.927  30.685  28.172  1.00  0.00     0.074 A 
ATOM     89  C   UNL A   1      43.614  30.397  26.797  1.00  0.00    -0.034 C 
ATOM     90  H   UNL A   1      41.963  29.392  25.874  1.00  0.00     0.065 H 
ATOM     91  C   UNL A   1      37.873  28.829  30.004  1.00  0.00    -0.036 A 
ATOM     92  H   UNL A   1      38.688  27.024  29.238  1.00  0.00     0.065 H 
ATOM     93  C   UNL A   1      38.470  30.121  30.289  1.00  0.00     0.049 A 
ATOM     94  H   UNL A   1      40.482  30.642  30.012  1.00  0.00     0.167 HD
ATOM     95  C   UNL A   1      44.631  31.698  28.747  1.00  0.00     0.037 A 
ATOM     96  H   UNL A   1      44.177  30.704  25.989  1.00  0.00     0.065 H 
ATOM     97  H   UNL A   1      36.893  28.566  30.191  1.00  0.00     0.065 H 
ATOM     98  C   UNL A   1      37.925  31.246  30.831  1.00  0.00     0.037 A 
ATOM     99  C   UNL A   1      44.767  31.485  30.166  1.00  0.00     0.049 A 
ATOM    100  C   UNL A   1      39.052  32.049  31.370  1.00  0.00     0.074 A 
ATOM    101  C   UNL A   1      45.390  30.535  30.952  1.00  0.00    -0.036 A 
ATOM    102  N   UNL A   1      43.877  32.126  30.989  1.00  0.00    -0.354 N 
ATOM    103  N   UNL A   1      39.775  31.669  32.386  1.00  0.00    -0.248 NA
ATOM    104  C   UNL A   1      39.676  33.001  30.464  1.00  0.00    -0.034 C 
ATOM    105  C   UNL A   1      44.509  30.332  32.054  1.00  0.00    -0.036 A 
ATOM    106  H   UNL A   1      46.296  30.071  30.778  1.00  0.00     0.065 H 
ATOM    107  C   UNL A   1      43.445  31.223  31.925  1.00  0.00     0.049 A 
ATOM    108  H   UNL A   1      43.598  33.067  30.920  1.00  0.00     0.167 HD
ATOM    109  C   UNL A   1      41.075  31.975  32.017  1.00  0.00     0.074 A 
ATOM    110  C   UNL A   1      40.947  32.832  30.837  1.00  0.00    -0.034 C 
ATOM    111  H   UNL A   1      39.262  33.621  29.751  1.00  0.00     0.065 H 
ATOM    112  H   UNL A   1      44.637  29.647  32.815  1.00  0.00     0.065 H 
ATOM    113  C   UNL A   1      42.129  31.266  32.515  1.00  0.00     0.037 A 
ATOM    114  H   UNL A   1      41.750  33.258  30.350  1.00  0.00     0.065 H 
BRANCH  95 115
ATOM    115  C   UNL A   1      44.799  33.060  28.119  1.00  0.00     0.064 A 
ATOM    116  C   UNL A   1      46.088  33.477  27.729  1.00  0.00     0.173 A 
ATOM    117  C   UNL A   1      43.827  34.082  28.185  1.00  0.00     0.173 A 
ATOM    118  F   UNL A   1      47.097  32.595  27.650  1.00  0.00    -0.203 F 
ATOM    119  C   UNL A   1      46.396  34.823  27.512  1.00  0.00     0.198 A 
ATOM    120  C   UNL A   1      44.126  35.417  27.922  1.00  0.00     0.198 A 
ATOM    121  F   UNL A   1      42.581  33.859  28.617  1.00  0.00    -0.203 F 
ATOM    122  F   UNL A   1      47.664  35.185  27.276  1.00  0.00    -0.200 F 
ATOM    123  C   UNL A   1      45.417  35.792  27.618  1.00  0.00     0.200 A 
ATOM    124  F   UNL A   1      43.167  36.344  28.054  1.00  0.00    -0.200 F 
ATOM    125  F   UNL A   1      45.722  37.088  27.478  1.00  0.00    -0.200 F 
ENDBRANCH  95 115
BRANCH  98 126
ATOM    126  C   UNL A   1      36.595  31.862  30.571  1.00  0.00     0.064 A 
ATOM    127  C   UNL A   1      35.779  32.310  31.629  1.00  0.00     0.173 A 
ATOM    128  C   UNL A   1      36.242  32.315  29.285  1.00  0.00     0.173 A 
ATOM    129  F   UNL A   1      36.069  31.970  32.894  1.00  0.00    -0.203 F 
ATOM    130  C   UNL A   1      34.701  33.181  31.416  1.00  0.00     0.198 A 
ATOM    131  C   UNL A   1      35.168  33.184  29.074  1.00  0.00     0.198 A 
ATOM    132  F   UNL A   1      36.995  32.005  28.221  1.00  0.00    -0.203 F 
ATOM    133  F   UNL A   1      33.990  33.636  32.458  1.00  0.00    -0.200 F 
ATOM    134  C   UNL A   1      34.406  33.629  30.141  1.00  0.00     0.200 A 
ATOM    135  F   UNL A   1      34.917  33.644  27.840  1.00  0.00    -0.200 F 
ATOM    136  F   UNL A   1      33.421  34.516  29.942  1.00  0.00    -0.200 F 
ENDBRANCH  98 126
BRANCH 113 137
ATOM    137  C   UNL A   1      41.865  30.302  33.636  1.00  0.00     0.064 A 
ATOM    138  C   UNL A   1      41.520  28.951  33.451  1.00  0.00     0.173 A 
ATOM    139  C   UNL A   1      42.153  30.720  34.941  1.00  0.00     0.173 A 
ATOM    140  F   UNL A   1      41.312  28.454  32.225  1.00  0.00    -0.203 F 
ATOM    141  C   UNL A   1      41.456  28.068  34.529  1.00  0.00     0.198 A 
ATOM    142  C   UNL A   1      42.119  29.830  36.010  1.00  0.00     0.198 A 
ATOM    143  F   UNL A   1      42.534  31.987  35.169  1.00  0.00    -0.203 F 
ATOM    144  F   UNL A   1      41.139  26.779  34.329  1.00  0.00    -0.200 F 
ATOM    145  C   UNL A   1      41.768  28.506  35.806  1.00  0.00     0.200 A 
ATOM    146  F   UNL A   1      42.471  30.249  37.233  1.00  0.00    -0.200 F 
ATOM    147  F   UNL A   1      41.764  27.646  36.834  1.00  0.00    -0.200 F 
ENDBRANCH 113 137
ENDBRANCH  78  81
ENDBRANCH  68  71
ENDBRANCH  64  67
ENDBRANCH  61  64
ENDBRANCH  58  61
ENDBRANCH  55  58
ENDBRANCH   1  55
TORSDOF 18
ENDMDL
MODEL 10
REMARK VINA RESULT:     -12.6      3.931      6.429
REMARK SMILES [NH3+][C@@H](Cc1cn(-c2nc(Cl)nc(N3CCOCC3)n2)c2ccccc12)C(=O)NCCCCCCNC(=O)c1ccc(-c2c3nc(c(-c4c(F)c(F)c(F)c(F)c4F)c4ccc([nH]4)c(-c4c(F)c(F)c(F)c(F)c4F)c4nc(c(-c5c(F)c(F)c(F)c(F)c5F)c5ccc2[nH]5)C=C4)C=C3)cc1
REMARK SMILES IDX 30 1 29 4 28 7 26 8 27 9 2 11 1 13 3 17 4 20 5 21 25 22 6 23
REMARK SMILES IDX 20 25 24 26 21 27 23 28 22 30 7 34 8 35 19 36 9 37 12 38
REMARK SMILES IDX 10 39 11 40 13 41 14 42 18 43 15 44 17 47 16 50 31 55 32 58
REMARK SMILES IDX 33 61 34 64 35 67 36 68 37 70 38 71 39 72 100 73 40 74 99 76
REMARK SMILES IDX 41 78 42 81 43 82 93 83 44 84 98 85 92 86 94 87 45 88 97 89
REMARK SMILES IDX 91 91 90 93 46 95 78 98 58 99 77 100 59 101 62 102 76 103
REMARK SMILES IDX 95 104 60 105 61 107 75 109 96 110 63 113 47 115 48 116
REMARK SMILES IDX 56 117 49 118 50 119 54 120 57 121 51 122 52 123 55 124
REMARK SMILES IDX 53 125 79 126 80 127 88 128 81 129 82 130 86 131 89 132
REMARK SMILES IDX 83 133 84 134 87 135 85 136 64 137 65 138 73 139 66 140
REMARK SMILES IDX 67 141 71 142 74 143 68 144 69 145 72 146 70 147
REMARK H PARENT 30 2 30 3 29 5 29 6 28 10 2 12 1 14 1 15 1 16 3 18 3 19 5 24
REMARK H PARENT 24 29 21 31 23 32 22 33 14 45 14 46 18 48 18 49 15 51 15 52
REMARK H PARENT 17 53 17 54 31 56 31 57 32 59 32 60 33 62 33 63 34 65 34 66
REMARK H PARENT 35 69 39 75 100 77 40 79 99 80 98 90 92 92 94 94 97 96 91 97
REMARK H PARENT 59 106 62 108 95 111 60 112 96 114
REMARK Flexibility Score: inf
ROOT
ATOM      1  C   UNL A   1      46.269  19.167  24.457  1.00  0.00    -0.036 C 
ATOM      2  H   UNL A   1      45.639  18.719  23.717  1.00  0.00     0.028 H 
ATOM      3  H   UNL A   1      47.219  18.689  24.571  1.00  0.00     0.028 H 
ENDROOT
BRANCH   1   4
ATOM      4  C   UNL A   1      45.580  19.029  25.796  1.00  0.00     0.018 C 
ATOM      5  H   UNL A   1      46.306  18.673  26.497  1.00  0.00     0.049 H 
ATOM      6  H   UNL A   1      45.188  20.002  26.006  1.00  0.00     0.049 H 
BRANCH   4   7
ATOM      7  N   UNL A   1      44.449  18.150  25.859  1.00  0.00    -0.351 N 
ATOM      8  C   UNL A   1      43.130  18.497  25.985  1.00  0.00     0.278 C 
ATOM      9  O   UNL A   1      42.298  17.613  25.751  1.00  0.00    -0.268 OA
ATOM     10  H   UNL A   1      44.642  17.186  25.805  1.00  0.00     0.163 HD
BRANCH   8  11
ATOM     11  C   UNL A   1      42.662  19.919  26.425  1.00  0.00     0.168 C 
ATOM     12  H   UNL A   1      43.310  20.173  27.237  1.00  0.00     0.107 H 
BRANCH  11  13
ATOM     13  N   UNL A   1      42.904  20.929  25.368  1.00  0.00    -0.347 N 
ATOM     14  H   UNL A   1      43.455  21.696  25.750  1.00  0.00     0.345 HD
ATOM     15  H   UNL A   1      42.011  21.287  25.029  1.00  0.00     0.345 HD
ATOM     16  H   UNL A   1      43.411  20.497  24.596  1.00  0.00     0.345 HD
ENDBRANCH  11  13
BRANCH  11  17
ATOM     17  C   UNL A   1      41.310  20.027  27.171  1.00  0.00     0.036 C 
ATOM     18  H   UNL A   1      41.528  20.361  28.164  1.00  0.00     0.038 H 
ATOM     19  H   UNL A   1      40.887  19.050  27.070  1.00  0.00     0.038 H 
BRANCH  17  20
ATOM     20  C   UNL A   1      40.234  20.938  26.628  1.00  0.00    -0.015 A 
ATOM     21  C   UNL A   1      39.174  20.623  25.791  1.00  0.00     0.017 A 
ATOM     22  C   UNL A   1      40.087  22.330  26.943  1.00  0.00     0.004 A 
ATOM     23  N   UNL A   1      38.314  21.708  25.698  1.00  0.00    -0.285 N 
ATOM     24  H   UNL A   1      39.045  19.719  25.310  1.00  0.00     0.083 H 
ATOM     25  C   UNL A   1      38.922  22.802  26.319  1.00  0.00     0.056 A 
ATOM     26  C   UNL A   1      40.820  23.205  27.779  1.00  0.00    -0.053 A 
ATOM     27  C   UNL A   1      38.483  24.128  26.515  1.00  0.00    -0.037 A 
ATOM     28  C   UNL A   1      40.364  24.504  28.003  1.00  0.00    -0.062 A 
ATOM     29  H   UNL A   1      41.693  22.881  28.224  1.00  0.00     0.063 H 
ATOM     30  C   UNL A   1      39.209  24.958  27.379  1.00  0.00    -0.060 A 
ATOM     31  H   UNL A   1      37.643  24.481  26.031  1.00  0.00     0.065 H 
ATOM     32  H   UNL A   1      40.887  25.131  28.634  1.00  0.00     0.062 H 
ATOM     33  H   UNL A   1      38.880  25.920  27.555  1.00  0.00     0.062 H 
BRANCH  23  34
ATOM     34  C   UNL A   1      36.962  21.653  25.203  1.00  0.00     0.240 A 
ATOM     35  N   UNL A   1      36.387  22.789  24.839  1.00  0.00    -0.181 NA
ATOM     36  N   UNL A   1      36.336  20.459  25.195  1.00  0.00    -0.176 NA
ATOM     37  C   UNL A   1      35.154  22.617  24.379  1.00  0.00     0.228 A 
ATOM     38  C   UNL A   1      35.043  20.442  24.834  1.00  0.00     0.231 A 
ATOM     39  Cl  UNL A   1      34.435  23.998  23.674  1.00  0.00    -0.041 Cl
ATOM     40  N   UNL A   1      34.418  21.510  24.374  1.00  0.00    -0.182 NA
BRANCH  38  41
ATOM     41  N   UNL A   1      34.377  19.244  24.896  1.00  0.00    -0.336 N 
ATOM     42  C   UNL A   1      32.915  19.139  24.819  1.00  0.00     0.044 C 
ATOM     43  C   UNL A   1      34.994  18.076  24.269  1.00  0.00     0.044 C 
ATOM     44  C   UNL A   1      32.505  17.931  25.671  1.00  0.00     0.064 C 
ATOM     45  H   UNL A   1      32.610  18.992  23.803  1.00  0.00     0.052 H 
ATOM     46  H   UNL A   1      32.449  20.033  25.177  1.00  0.00     0.052 H 
ATOM     47  C   UNL A   1      34.518  16.831  25.051  1.00  0.00     0.064 C 
ATOM     48  H   UNL A   1      36.060  18.155  24.317  1.00  0.00     0.052 H 
ATOM     49  H   UNL A   1      34.713  18.007  23.239  1.00  0.00     0.052 H 
ATOM     50  O   UNL A   1      33.079  16.731  25.127  1.00  0.00    -0.378 OA
ATOM     51  H   UNL A   1      31.438  17.844  25.674  1.00  0.00     0.059 H 
ATOM     52  H   UNL A   1      32.859  18.068  26.672  1.00  0.00     0.059 H 
ATOM     53  H   UNL A   1      34.896  15.957  24.563  1.00  0.00     0.059 H 
ATOM     54  H   UNL A   1      34.887  16.919  26.052  1.00  0.00     0.059 H 
ENDBRANCH  38  41
ENDBRANCH  23  34
ENDBRANCH  17  20
ENDBRANCH  11  17
ENDBRANCH   8  11
ENDBRANCH   4   7
ENDBRANCH   1   4
BRANCH   1  55
ATOM     55  C   UNL A   1      46.576  20.591  24.007  1.00  0.00    -0.052 C 
ATOM     56  H   UNL A   1      45.975  20.787  23.144  1.00  0.00     0.027 H 
ATOM     57  H   UNL A   1      47.635  20.596  23.850  1.00  0.00     0.027 H 
BRANCH  55  58
ATOM     58  C   UNL A   1      46.333  21.740  25.004  1.00  0.00    -0.052 C 
ATOM     59  H   UNL A   1      46.837  21.482  25.912  1.00  0.00     0.027 H 
ATOM     60  H   UNL A   1      45.268  21.815  25.061  1.00  0.00     0.027 H 
BRANCH  58  61
ATOM     61  C   UNL A   1      46.787  23.152  24.620  1.00  0.00    -0.036 C 
ATOM     62  H   UNL A   1      46.984  23.162  23.569  1.00  0.00     0.028 H 
ATOM     63  H   UNL A   1      47.648  23.360  25.221  1.00  0.00     0.028 H 
BRANCH  61  64
ATOM     64  C   UNL A   1      45.796  24.251  24.918  1.00  0.00     0.018 C 
ATOM     65  H   UNL A   1      45.853  24.964  24.122  1.00  0.00     0.049 H 
ATOM     66  H   UNL A   1      46.075  24.632  25.877  1.00  0.00     0.049 H 
BRANCH  64  67
ATOM     67  N   UNL A   1      44.410  23.853  25.053  1.00  0.00    -0.352 N 
ATOM     68  C   UNL A   1      43.240  24.507  25.312  1.00  0.00     0.251 C 
ATOM     69  H   UNL A   1      44.282  22.886  24.930  1.00  0.00     0.163 HD
ATOM     70  O   UNL A   1      42.196  23.882  25.104  1.00  0.00    -0.269 OA
BRANCH  68  71
ATOM     71  C   UNL A   1      43.161  25.835  25.958  1.00  0.00     0.039 A 
ATOM     72  C   UNL A   1      43.827  26.201  27.122  1.00  0.00    -0.049 A 
ATOM     73  C   UNL A   1      42.253  26.740  25.378  1.00  0.00    -0.049 A 
ATOM     74  C   UNL A   1      43.412  27.321  27.824  1.00  0.00    -0.053 A 
ATOM     75  H   UNL A   1      44.625  25.642  27.461  1.00  0.00     0.063 H 
ATOM     76  C   UNL A   1      41.883  27.897  26.041  1.00  0.00    -0.053 A 
ATOM     77  H   UNL A   1      41.857  26.538  24.446  1.00  0.00     0.063 H 
ATOM     78  C   UNL A   1      42.388  28.127  27.312  1.00  0.00    -0.014 A 
ATOM     79  H   UNL A   1      43.858  27.560  28.724  1.00  0.00     0.063 H 
ATOM     80  H   UNL A   1      41.243  28.575  25.598  1.00  0.00     0.063 H 
BRANCH  78  81
ATOM     81  C   UNL A   1      41.989  29.301  28.077  1.00  0.00     0.031 A 
ATOM     82  C   UNL A   1      42.980  30.405  27.977  1.00  0.00     0.074 A 
ATOM     83  C   UNL A   1      40.832  29.398  28.768  1.00  0.00     0.049 A 
ATOM     84  N   UNL A   1      43.746  30.847  28.919  1.00  0.00    -0.248 NA
ATOM     85  C   UNL A   1      43.306  30.934  26.642  1.00  0.00    -0.034 C 
ATOM     86  C   UNL A   1      39.701  28.468  28.806  1.00  0.00    -0.036 A 
ATOM     87  N   UNL A   1      40.405  30.413  29.575  1.00  0.00    -0.354 N 
ATOM     88  C   UNL A   1      44.519  31.850  28.344  1.00  0.00     0.074 A 
ATOM     89  C   UNL A   1      44.324  31.751  26.921  1.00  0.00    -0.034 C 
ATOM     90  H   UNL A   1      42.866  30.729  25.732  1.00  0.00     0.065 H 
ATOM     91  C   UNL A   1      38.638  29.065  29.402  1.00  0.00    -0.036 A 
ATOM     92  H   UNL A   1      39.711  27.506  28.437  1.00  0.00     0.065 H 
ATOM     93  C   UNL A   1      39.055  30.353  29.925  1.00  0.00     0.049 A 
ATOM     94  H   UNL A   1      41.003  31.131  29.885  1.00  0.00     0.167 HD
ATOM     95  C   UNL A   1      45.059  32.830  29.118  1.00  0.00     0.037 A 
ATOM     96  H   UNL A   1      44.893  32.243  26.215  1.00  0.00     0.065 H 
ATOM     97  H   UNL A   1      37.689  28.668  29.472  1.00  0.00     0.065 H 
ATOM     98  C   UNL A   1      38.347  31.310  30.586  1.00  0.00     0.037 A 
ATOM     99  C   UNL A   1      45.137  32.410  30.494  1.00  0.00     0.049 A 
ATOM    100  C   UNL A   1      39.334  32.137  31.325  1.00  0.00     0.074 A 
ATOM    101  C   UNL A   1      45.823  31.422  31.173  1.00  0.00    -0.036 A 
ATOM    102  N   UNL A   1      44.128  32.809  31.334  1.00  0.00    -0.354 N 
ATOM    103  N   UNL A   1      40.037  31.683  32.326  1.00  0.00    -0.248 NA
ATOM    104  C   UNL A   1      39.890  33.285  30.625  1.00  0.00    -0.034 C 
ATOM    105  C   UNL A   1      44.910  30.950  32.162  1.00  0.00    -0.036 A 
ATOM    106  H   UNL A   1      46.787  31.096  31.002  1.00  0.00     0.065 H 
ATOM    107  C   UNL A   1      43.754  31.727  32.086  1.00  0.00     0.049 A 
ATOM    108  H   UNL A   1      43.741  33.712  31.386  1.00  0.00     0.167 HD
ATOM    109  C   UNL A   1      41.309  32.186  32.108  1.00  0.00     0.074 A 
ATOM    110  C   UNL A   1      41.148  33.200  31.065  1.00  0.00    -0.034 C 
ATOM    111  H   UNL A   1      39.446  33.960  29.984  1.00  0.00     0.065 H 
ATOM    112  H   UNL A   1      45.076  30.171  32.817  1.00  0.00     0.065 H 
ATOM    113  C   UNL A   1      42.410  31.529  32.573  1.00  0.00     0.037 A 
ATOM    114  H   UNL A   1      41.921  33.785  30.711  1.00  0.00     0.065 H 
BRANCH  95 115
ATOM    115  C   UNL A   1      45.097  34.285  28.717  1.00  0.00     0.064 A 
ATOM    116  C   UNL A   1      43.900  34.915  28.321  1.00  0.00     0.173 A 
ATOM    117  C   UNL A   1      46.283  34.980  28.395  1.00  0.00     0.173 A 
ATOM    118  F   UNL A   1      42.712  34.337  28.557  1.00  0.00    -0.203 F 
ATOM    119  C   UNL A   1      43.899  36.101  27.580  1.00  0.00     0.198 A 
ATOM    120  C   UNL A   1      46.276  36.187  27.698  1.00  0.00     0.198 A 
ATOM    121  F   UNL A   1      47.498  34.474  28.631  1.00  0.00    -0.203 F 
ATOM    122  F   UNL A   1      42.743  36.590  27.111  1.00  0.00    -0.200 F 
ATOM    123  C   UNL A   1      45.088  36.730  27.262  1.00  0.00     0.200 A 
ATOM    124  F   UNL A   1      47.441  36.768  27.379  1.00  0.00    -0.200 F 
ATOM    125  F   UNL A   1      45.094  37.828  26.497  1.00  0.00    -0.200 F 
ENDBRANCH  95 115
BRANCH  98 126
ATOM    126  C   UNL A   1      36.970  31.807  30.320  1.00  0.00     0.064 A 
ATOM    127  C   UNL A   1      36.024  31.927  31.358  1.00  0.00     0.173 A 
ATOM    128  C   UNL A   1      36.656  32.475  29.121  1.00  0.00     0.173 A 
ATOM    129  F   UNL A   1      36.261  31.366  32.554  1.00  0.00    -0.203 F 
ATOM    130  C   UNL A   1      34.858  32.691  31.215  1.00  0.00     0.198 A 
ATOM    131  C   UNL A   1      35.494  33.238  28.979  1.00  0.00     0.198 A 
ATOM    132  F   UNL A   1      37.522  32.484  28.098  1.00  0.00    -0.203 F 
ATOM    133  F   UNL A   1      34.016  32.833  32.249  1.00  0.00    -0.200 F 
ATOM    134  C   UNL A   1      34.601  33.358  30.030  1.00  0.00     0.200 A 
ATOM    135  F   UNL A   1      35.276  33.913  27.841  1.00  0.00    -0.200 F 
ATOM    136  F   UNL A   1      33.523  34.147  29.912  1.00  0.00    -0.200 F 
ENDBRANCH  98 126
BRANCH 113 137
ATOM    137  C   UNL A   1      42.200  30.375  33.512  1.00  0.00     0.064 A 
ATOM    138  C   UNL A   1      42.090  29.034  33.103  1.00  0.00     0.173 A 
ATOM    139  C   UNL A   1      42.300  30.623  34.887  1.00  0.00     0.173 A 
ATOM    140  F   UNL A   1      42.075  28.708  31.804  1.00  0.00    -0.203 F 
ATOM    141  C   UNL A   1      42.068  27.995  34.033  1.00  0.00     0.198 A 
ATOM    142  C   UNL A   1      42.310  29.583  35.811  1.00  0.00     0.198 A 
ATOM    143  F   UNL A   1      42.455  31.881  35.330  1.00  0.00    -0.203 F 
ATOM    144  F   UNL A   1      41.976  26.721  33.621  1.00  0.00    -0.200 F 
ATOM    145  C   UNL A   1      42.190  28.270  35.385  1.00  0.00     0.200 A 
ATOM    146  F   UNL A   1      42.479  29.853  37.112  1.00  0.00    -0.200 F 
ATOM    147  F   UNL A   1      42.228  27.270  36.277  1.00  0.00    -0.200 F 
ENDBRANCH 113 137
ENDBRANCH  78  81
ENDBRANCH  68  71
ENDBRANCH  64  67
ENDBRANCH  61  64
ENDBRANCH  58  61
ENDBRANCH  55  58
ENDBRANCH   1  55
TORSDOF 18
ENDMDL
