MODEL 1
REMARK VINA RESULT:     -11.5      0.000      0.000
REMARK SMILES C[C@@H](C(=O)NCCCCCCNC(=O)c1ccc(-c2c3nc(c(-c4c(F)c(F)c(F)c(F)c4F)c4ccc([nH]4)c(-c4c(F)c(F)c(F)c(F)c4F)c4nc(c(-c5c(F)c(F)c(F)c(F)c5F)c5ccc2[nH]5)C=C4)C=C3)cc1)c1ccc(C[C@H]2CCCC2=O)cc1[N+](=O)[O-]
REMARK SMILES IDX 8 1 7 4 6 7 5 10 3 11 4 12 2 14 1 16 78 20 79 21 90 22 80 23
REMARK SMILES IDX 89 25 81 26 91 29 92 30 93 31 82 32 83 35 84 36 87 37 85 39
REMARK SMILES IDX 86 42 88 43 9 48 10 51 11 54 12 57 13 58 14 60 15 61 16 62
REMARK SMILES IDX 77 63 17 64 76 66 18 68 19 71 20 72 70 73 21 74 75 75 69 76
REMARK SMILES IDX 71 77 22 78 74 79 68 81 67 83 23 85 55 88 35 89 54 90 36 91
REMARK SMILES IDX 39 92 53 93 72 94 37 95 38 97 52 99 73 100 40 103 24 105
REMARK SMILES IDX 25 106 33 107 26 108 27 109 31 110 34 111 28 112 29 113
REMARK SMILES IDX 32 114 30 115 56 116 57 117 65 118 58 119 59 120 63 121
REMARK SMILES IDX 66 122 60 123 61 124 64 125 62 126 41 127 42 128 50 129
REMARK SMILES IDX 43 130 44 131 48 132 51 133 45 134 46 135 49 136 47 137
REMARK H PARENT 8 2 8 3 7 5 7 6 6 8 6 9 5 13 2 15 1 17 1 18 1 19 79 24 80 27
REMARK H PARENT 89 28 82 33 82 34 83 38 84 40 84 41 85 44 85 45 86 46 86 47
REMARK H PARENT 9 49 9 50 10 52 10 53 11 55 11 56 12 59 16 65 77 67 17 69
REMARK H PARENT 76 70 75 80 69 82 71 84 74 86 68 87 36 96 39 98 72 101 37 102
REMARK H PARENT 73 104
REMARK Flexibility Score: inf
ROOT
ATOM      1  C   UNL A   1      33.678  25.723  26.126  1.00  0.00    -0.052 C 
ATOM      2  H   UNL A   1      34.097  25.645  25.144  1.00  0.00     0.027 H 
ATOM      3  H   UNL A   1      34.405  25.951  26.877  1.00  0.00     0.027 H 
ENDROOT
BRANCH   1   4
ATOM      4  C   UNL A   1      33.081  24.361  26.501  1.00  0.00    -0.036 C 
ATOM      5  H   UNL A   1      33.183  24.227  27.558  1.00  0.00     0.028 H 
ATOM      6  H   UNL A   1      32.058  24.372  26.187  1.00  0.00     0.028 H 
BRANCH   4   7
ATOM      7  C   UNL A   1      33.753  23.176  25.796  1.00  0.00     0.017 C 
ATOM      8  H   UNL A   1      34.470  22.731  26.453  1.00  0.00     0.049 H 
ATOM      9  H   UNL A   1      33.011  22.451  25.533  1.00  0.00     0.049 H 
BRANCH   7  10
ATOM     10  N   UNL A   1      34.419  23.640  24.597  1.00  0.00    -0.356 N 
ATOM     11  C   UNL A   1      34.066  23.463  23.290  1.00  0.00     0.227 C 
ATOM     12  O   UNL A   1      34.966  23.588  22.457  1.00  0.00    -0.274 OA
ATOM     13  H   UNL A   1      35.244  24.157  24.746  1.00  0.00     0.163 HD
BRANCH  11  14
ATOM     14  C   UNL A   1      32.589  23.194  22.908  1.00  0.00     0.067 C 
ATOM     15  H   UNL A   1      32.115  22.559  23.628  1.00  0.00     0.045 H 
BRANCH  14  16
ATOM     16  C   UNL A   1      32.528  22.397  21.605  1.00  0.00    -0.049 C 
ATOM     17  H   UNL A   1      32.056  22.988  20.848  1.00  0.00     0.024 H 
ATOM     18  H   UNL A   1      31.965  21.501  21.760  1.00  0.00     0.024 H 
ATOM     19  H   UNL A   1      33.521  22.145  21.294  1.00  0.00     0.024 H 
ENDBRANCH  14  16
BRANCH  14  20
ATOM     20  C   UNL A   1      31.744  24.479  22.989  1.00  0.00     0.042 A 
ATOM     21  C   UNL A   1      30.655  24.460  23.891  1.00  0.00    -0.051 A 
ATOM     22  C   UNL A   1      31.901  25.663  22.244  1.00  0.00     0.273 A 
ATOM     23  C   UNL A   1      29.804  25.557  24.064  1.00  0.00    -0.058 A 
ATOM     24  H   UNL A   1      30.481  23.605  24.442  1.00  0.00     0.063 H 
ATOM     25  C   UNL A   1      31.014  26.748  22.375  1.00  0.00     0.019 A 
ATOM     26  C   UNL A   1      29.954  26.702  23.283  1.00  0.00    -0.040 A 
ATOM     27  H   UNL A   1      29.058  25.518  24.776  1.00  0.00     0.063 H 
ATOM     28  H   UNL A   1      31.149  27.588  21.793  1.00  0.00     0.070 H 
BRANCH  22  29
ATOM     29  N   UNL A   1      32.969  25.873  21.312  1.00  0.00     0.063 N 
ATOM     30  O   UNL A   1      32.902  25.412  20.191  1.00  0.00    -0.258 OA
ATOM     31  O   UNL A   1      34.018  26.700  21.626  1.00  0.00    -0.258 OA
ENDBRANCH  22  29
BRANCH  26  32
ATOM     32  C   UNL A   1      29.005  27.868  23.412  1.00  0.00    -0.018 C 
ATOM     33  H   UNL A   1      28.878  28.072  24.455  1.00  0.00     0.032 H 
ATOM     34  H   UNL A   1      28.112  27.565  22.907  1.00  0.00     0.032 H 
BRANCH  32  35
ATOM     35  C   UNL A   1      29.432  29.175  22.731  1.00  0.00     0.022 C 
ATOM     36  C   UNL A   1      28.408  29.825  21.794  1.00  0.00    -0.043 C 
ATOM     37  C   UNL A   1      29.701  30.282  23.722  1.00  0.00     0.136 C 
ATOM     38  H   UNL A   1      30.287  28.834  22.186  1.00  0.00     0.039 H 
ATOM     39  C   UNL A   1      27.712  30.909  22.608  1.00  0.00    -0.046 C 
ATOM     40  H   UNL A   1      27.697  29.098  21.460  1.00  0.00     0.027 H 
ATOM     41  H   UNL A   1      28.880  30.233  20.925  1.00  0.00     0.027 H 
ATOM     42  C   UNL A   1      28.778  31.458  23.547  1.00  0.00     0.006 C 
ATOM     43  O   UNL A   1      30.586  30.239  24.569  1.00  0.00    -0.299 OA
ATOM     44  H   UNL A   1      26.899  30.496  23.166  1.00  0.00     0.027 H 
ATOM     45  H   UNL A   1      27.303  31.675  21.982  1.00  0.00     0.027 H 
ATOM     46  H   UNL A   1      28.350  31.755  24.482  1.00  0.00     0.035 H 
ATOM     47  H   UNL A   1      29.268  32.330  23.169  1.00  0.00     0.035 H 
ENDBRANCH  32  35
ENDBRANCH  26  32
ENDBRANCH  14  20
ENDBRANCH  11  14
ENDBRANCH   7  10
ENDBRANCH   4   7
ENDBRANCH   1   4
BRANCH   1  48
ATOM     48  C   UNL A   1      32.678  26.882  26.126  1.00  0.00    -0.052 C 
ATOM     49  H   UNL A   1      32.782  27.412  27.050  1.00  0.00     0.027 H 
ATOM     50  H   UNL A   1      31.710  26.445  25.996  1.00  0.00     0.027 H 
BRANCH  48  51
ATOM     51  C   UNL A   1      32.856  27.883  24.981  1.00  0.00    -0.036 C 
ATOM     52  H   UNL A   1      31.913  28.352  24.797  1.00  0.00     0.028 H 
ATOM     53  H   UNL A   1      33.218  27.324  24.143  1.00  0.00     0.028 H 
BRANCH  51  54
ATOM     54  C   UNL A   1      33.888  28.976  25.247  1.00  0.00     0.018 C 
ATOM     55  H   UNL A   1      34.400  29.199  24.334  1.00  0.00     0.049 H 
ATOM     56  H   UNL A   1      34.568  28.618  25.992  1.00  0.00     0.049 H 
BRANCH  54  57
ATOM     57  N   UNL A   1      33.271  30.192  25.749  1.00  0.00    -0.352 N 
ATOM     58  C   UNL A   1      33.556  30.920  26.876  1.00  0.00     0.251 C 
ATOM     59  H   UNL A   1      32.537  30.547  25.197  1.00  0.00     0.163 HD
ATOM     60  O   UNL A   1      32.784  31.796  27.249  1.00  0.00    -0.269 OA
BRANCH  58  61
ATOM     61  C   UNL A   1      34.786  30.648  27.653  1.00  0.00     0.039 A 
ATOM     62  C   UNL A   1      34.862  29.457  28.382  1.00  0.00    -0.049 A 
ATOM     63  C   UNL A   1      35.834  31.571  27.707  1.00  0.00    -0.049 A 
ATOM     64  C   UNL A   1      36.006  29.175  29.129  1.00  0.00    -0.053 A 
ATOM     65  H   UNL A   1      34.076  28.790  28.366  1.00  0.00     0.063 H 
ATOM     66  C   UNL A   1      37.002  31.260  28.402  1.00  0.00    -0.053 A 
ATOM     67  H   UNL A   1      35.744  32.482  27.232  1.00  0.00     0.063 H 
ATOM     68  C   UNL A   1      37.095  30.063  29.127  1.00  0.00    -0.014 A 
ATOM     69  H   UNL A   1      36.053  28.309  29.687  1.00  0.00     0.063 H 
ATOM     70  H   UNL A   1      37.800  31.914  28.384  1.00  0.00     0.063 H 
BRANCH  68  71
ATOM     71  C   UNL A   1      38.332  29.736  29.881  1.00  0.00     0.031 A 
ATOM     72  C   UNL A   1      38.581  30.334  31.238  1.00  0.00     0.074 A 
ATOM     73  C   UNL A   1      39.244  28.915  29.327  1.00  0.00     0.049 A 
ATOM     74  N   UNL A   1      39.598  30.157  32.045  1.00  0.00    -0.248 NA
ATOM     75  C   UNL A   1      37.566  31.267  31.749  1.00  0.00    -0.034 C 
ATOM     76  C   UNL A   1      39.144  28.320  27.993  1.00  0.00    -0.036 A 
ATOM     77  N   UNL A   1      40.436  28.439  29.814  1.00  0.00    -0.354 N 
ATOM     78  C   UNL A   1      39.343  30.951  33.155  1.00  0.00     0.074 A 
ATOM     79  C   UNL A   1      38.108  31.658  32.894  1.00  0.00    -0.034 C 
ATOM     80  H   UNL A   1      36.666  31.545  31.326  1.00  0.00     0.065 H 
ATOM     81  C   UNL A   1      40.217  27.543  27.777  1.00  0.00    -0.036 A 
ATOM     82  H   UNL A   1      38.372  28.475  27.325  1.00  0.00     0.065 H 
ATOM     83  C   UNL A   1      41.090  27.602  28.944  1.00  0.00     0.049 A 
ATOM     84  H   UNL A   1      40.788  28.675  30.703  1.00  0.00     0.167 HD
ATOM     85  C   UNL A   1      40.059  31.059  34.299  1.00  0.00     0.037 A 
ATOM     86  H   UNL A   1      37.700  32.372  33.518  1.00  0.00     0.065 H 
ATOM     87  H   UNL A   1      40.395  26.992  26.922  1.00  0.00     0.065 H 
ATOM     88  C   UNL A   1      42.262  26.952  29.077  1.00  0.00     0.037 A 
ATOM     89  C   UNL A   1      41.284  30.348  34.563  1.00  0.00     0.049 A 
ATOM     90  C   UNL A   1      43.028  27.078  30.365  1.00  0.00     0.074 A 
ATOM     91  C   UNL A   1      42.067  30.368  35.703  1.00  0.00    -0.036 A 
ATOM     92  N   UNL A   1      41.900  29.485  33.669  1.00  0.00    -0.354 N 
ATOM     93  N   UNL A   1      42.743  27.783  31.432  1.00  0.00    -0.248 NA
ATOM     94  C   UNL A   1      44.272  26.304  30.471  1.00  0.00    -0.034 C 
ATOM     95  C   UNL A   1      43.177  29.542  35.487  1.00  0.00    -0.036 A 
ATOM     96  H   UNL A   1      41.869  30.899  36.564  1.00  0.00     0.065 H 
ATOM     97  C   UNL A   1      43.061  28.975  34.229  1.00  0.00     0.049 A 
ATOM     98  H   UNL A   1      41.564  29.268  32.770  1.00  0.00     0.167 HD
ATOM     99  C   UNL A   1      43.759  27.525  32.342  1.00  0.00     0.074 A 
ATOM    100  C   UNL A   1      44.653  26.576  31.712  1.00  0.00    -0.034 C 
ATOM    101  H   UNL A   1      44.731  25.705  29.767  1.00  0.00     0.065 H 
ATOM    102  H   UNL A   1      43.950  29.384  36.153  1.00  0.00     0.065 H 
ATOM    103  C   UNL A   1      43.940  28.031  33.586  1.00  0.00     0.037 A 
ATOM    104  H   UNL A   1      45.481  26.165  32.170  1.00  0.00     0.065 H 
BRANCH  85 105
ATOM    105  C   UNL A   1      39.526  31.969  35.368  1.00  0.00     0.064 A 
ATOM    106  C   UNL A   1      38.616  31.505  36.332  1.00  0.00     0.173 A 
ATOM    107  C   UNL A   1      39.961  33.299  35.463  1.00  0.00     0.173 A 
ATOM    108  F   UNL A   1      38.160  30.245  36.278  1.00  0.00    -0.203 F 
ATOM    109  C   UNL A   1      38.146  32.346  37.337  1.00  0.00     0.198 A 
ATOM    110  C   UNL A   1      39.510  34.129  36.486  1.00  0.00     0.198 A 
ATOM    111  F   UNL A   1      40.833  33.791  34.571  1.00  0.00    -0.203 F 
ATOM    112  F   UNL A   1      37.248  31.893  38.222  1.00  0.00    -0.200 F 
ATOM    113  C   UNL A   1      38.599  33.654  37.419  1.00  0.00     0.200 A 
ATOM    114  F   UNL A   1      39.957  35.390  36.571  1.00  0.00    -0.200 F 
ATOM    115  F   UNL A   1      38.153  34.460  38.393  1.00  0.00    -0.200 F 
ENDBRANCH  85 105
BRANCH  88 116
ATOM    116  C   UNL A   1      42.768  26.103  27.968  1.00  0.00     0.064 A 
ATOM    117  C   UNL A   1      43.642  26.621  27.002  1.00  0.00     0.173 A 
ATOM    118  C   UNL A   1      42.380  24.761  27.844  1.00  0.00     0.173 A 
ATOM    119  F   UNL A   1      44.027  27.904  27.067  1.00  0.00    -0.203 F 
ATOM    120  C   UNL A   1      44.088  25.837  25.940  1.00  0.00     0.198 A 
ATOM    121  C   UNL A   1      42.849  23.970  26.798  1.00  0.00     0.198 A 
ATOM    122  F   UNL A   1      41.551  24.216  28.746  1.00  0.00    -0.203 F 
ATOM    123  F   UNL A   1      44.882  26.372  25.003  1.00  0.00    -0.200 F 
ATOM    124  C   UNL A   1      43.694  24.511  25.842  1.00  0.00     0.200 A 
ATOM    125  F   UNL A   1      42.478  22.685  26.715  1.00  0.00    -0.200 F 
ATOM    126  F   UNL A   1      44.123  23.757  24.821  1.00  0.00    -0.200 F 
ENDBRANCH  88 116
BRANCH 103 127
ATOM    127  C   UNL A   1      45.140  27.553  34.349  1.00  0.00     0.064 A 
ATOM    128  C   UNL A   1      45.085  26.410  35.160  1.00  0.00     0.173 A 
ATOM    129  C   UNL A   1      46.361  28.236  34.256  1.00  0.00     0.173 A 
ATOM    130  F   UNL A   1      43.935  25.732  35.295  1.00  0.00    -0.203 F 
ATOM    131  C   UNL A   1      46.201  25.988  35.877  1.00  0.00     0.198 A 
ATOM    132  C   UNL A   1      47.484  27.794  34.951  1.00  0.00     0.198 A 
ATOM    133  F   UNL A   1      46.468  29.331  33.487  1.00  0.00    -0.203 F 
ATOM    134  F   UNL A   1      46.111  24.926  36.690  1.00  0.00    -0.200 F 
ATOM    135  C   UNL A   1      47.400  26.677  35.768  1.00  0.00     0.200 A 
ATOM    136  F   UNL A   1      48.644  28.454  34.835  1.00  0.00    -0.200 F 
ATOM    137  F   UNL A   1      48.474  26.269  36.460  1.00  0.00    -0.200 F 
ENDBRANCH 103 127
ENDBRANCH  68  71
ENDBRANCH  58  61
ENDBRANCH  54  57
ENDBRANCH  51  54
ENDBRANCH  48  51
ENDBRANCH   1  48
TORSDOF 18
ENDMDL
MODEL 2
REMARK VINA RESULT:     -11.5      0.749      2.171
REMARK SMILES C[C@@H](C(=O)NCCCCCCNC(=O)c1ccc(-c2c3nc(c(-c4c(F)c(F)c(F)c(F)c4F)c4ccc([nH]4)c(-c4c(F)c(F)c(F)c(F)c4F)c4nc(c(-c5c(F)c(F)c(F)c(F)c5F)c5ccc2[nH]5)C=C4)C=C3)cc1)c1ccc(C[C@H]2CCCC2=O)cc1[N+](=O)[O-]
REMARK SMILES IDX 8 1 7 4 6 7 5 10 3 11 4 12 2 14 1 16 78 20 79 21 90 22 80 23
REMARK SMILES IDX 89 25 81 26 91 29 92 30 93 31 82 32 83 35 84 36 87 37 85 39
REMARK SMILES IDX 86 42 88 43 9 48 10 51 11 54 12 57 13 58 14 60 15 61 16 62
REMARK SMILES IDX 77 63 17 64 76 66 18 68 19 71 20 72 70 73 21 74 75 75 69 76
REMARK SMILES IDX 71 77 22 78 74 79 68 81 67 83 23 85 55 88 35 89 54 90 36 91
REMARK SMILES IDX 39 92 53 93 72 94 37 95 38 97 52 99 73 100 40 103 24 105
REMARK SMILES IDX 25 106 33 107 26 108 27 109 31 110 34 111 28 112 29 113
REMARK SMILES IDX 32 114 30 115 56 116 57 117 65 118 58 119 59 120 63 121
REMARK SMILES IDX 66 122 60 123 61 124 64 125 62 126 41 127 42 128 50 129
REMARK SMILES IDX 43 130 44 131 48 132 51 133 45 134 46 135 49 136 47 137
REMARK H PARENT 8 2 8 3 7 5 7 6 6 8 6 9 5 13 2 15 1 17 1 18 1 19 79 24 80 27
REMARK H PARENT 89 28 82 33 82 34 83 38 84 40 84 41 85 44 85 45 86 46 86 47
REMARK H PARENT 9 49 9 50 10 52 10 53 11 55 11 56 12 59 16 65 77 67 17 69
REMARK H PARENT 76 70 75 80 69 82 71 84 74 86 68 87 36 96 39 98 72 101 37 102
REMARK H PARENT 73 104
REMARK Flexibility Score: inf
ROOT
ATOM      1  C   UNL A   1      33.915  27.401  25.109  1.00  0.00    -0.052 C 
ATOM      2  H   UNL A   1      33.909  26.912  24.157  1.00  0.00     0.027 H 
ATOM      3  H   UNL A   1      34.899  27.647  25.450  1.00  0.00     0.027 H 
ENDROOT
BRANCH   1   4
ATOM      4  C   UNL A   1      33.325  26.437  26.146  1.00  0.00    -0.036 C 
ATOM      5  H   UNL A   1      33.647  26.748  27.118  1.00  0.00     0.028 H 
ATOM      6  H   UNL A   1      32.262  26.473  26.035  1.00  0.00     0.028 H 
BRANCH   4   7
ATOM      7  C   UNL A   1      33.748  24.977  25.942  1.00  0.00     0.017 C 
ATOM      8  H   UNL A   1      34.418  24.688  26.725  1.00  0.00     0.049 H 
ATOM      9  H   UNL A   1      32.882  24.349  25.964  1.00  0.00     0.049 H 
BRANCH   7  10
ATOM     10  N   UNL A   1      34.411  24.838  24.662  1.00  0.00    -0.356 N 
ATOM     11  C   UNL A   1      34.014  24.146  23.554  1.00  0.00     0.227 C 
ATOM     12  O   UNL A   1      34.898  23.842  22.751  1.00  0.00    -0.274 OA
ATOM     13  H   UNL A   1      35.272  25.310  24.580  1.00  0.00     0.163 HD
BRANCH  11  14
ATOM     14  C   UNL A   1      32.513  23.843  23.318  1.00  0.00     0.067 C 
ATOM     15  H   UNL A   1      32.077  23.369  24.172  1.00  0.00     0.045 H 
BRANCH  14  16
ATOM     16  C   UNL A   1      32.362  22.815  22.197  1.00  0.00    -0.049 C 
ATOM     17  H   UNL A   1      32.405  21.829  22.611  1.00  0.00     0.024 H 
ATOM     18  H   UNL A   1      33.155  22.939  21.489  1.00  0.00     0.024 H 
ATOM     19  H   UNL A   1      31.421  22.956  21.708  1.00  0.00     0.024 H 
ENDBRANCH  14  16
BRANCH  14  20
ATOM     20  C   UNL A   1      31.689  25.140  23.201  1.00  0.00     0.042 A 
ATOM     21  C   UNL A   1      30.592  25.270  24.082  1.00  0.00    -0.051 A 
ATOM     22  C   UNL A   1      31.874  26.200  22.293  1.00  0.00     0.273 A 
ATOM     23  C   UNL A   1      29.759  26.394  24.084  1.00  0.00    -0.058 A 
ATOM     24  H   UNL A   1      30.399  24.508  24.751  1.00  0.00     0.063 H 
ATOM     25  C   UNL A   1      31.005  27.306  22.253  1.00  0.00     0.019 A 
ATOM     26  C   UNL A   1      29.936  27.410  23.145  1.00  0.00    -0.040 A 
ATOM     27  H   UNL A   1      29.006  26.472  24.785  1.00  0.00     0.063 H 
ATOM     28  H   UNL A   1      31.160  28.050  21.556  1.00  0.00     0.070 H 
BRANCH  22  29
ATOM     29  N   UNL A   1      32.954  26.254  21.352  1.00  0.00     0.063 N 
ATOM     30  O   UNL A   1      33.975  26.850  21.626  1.00  0.00    -0.258 OA
ATOM     31  O   UNL A   1      32.903  25.529  20.188  1.00  0.00    -0.258 OA
ENDBRANCH  22  29
BRANCH  26  32
ATOM     32  C   UNL A   1      29.006  28.597  23.091  1.00  0.00    -0.018 C 
ATOM     33  H   UNL A   1      28.659  28.785  24.086  1.00  0.00     0.032 H 
ATOM     34  H   UNL A   1      28.239  28.326  22.397  1.00  0.00     0.032 H 
BRANCH  32  35
ATOM     35  C   UNL A   1      29.599  29.905  22.551  1.00  0.00     0.022 C 
ATOM     36  C   UNL A   1      28.985  30.452  21.258  1.00  0.00    -0.043 C 
ATOM     37  C   UNL A   1      29.412  31.062  23.504  1.00  0.00     0.136 C 
ATOM     38  H   UNL A   1      30.613  29.604  22.395  1.00  0.00     0.039 H 
ATOM     39  C   UNL A   1      27.978  31.515  21.679  1.00  0.00    -0.046 C 
ATOM     40  H   UNL A   1      28.493  29.668  20.720  1.00  0.00     0.027 H 
ATOM     41  H   UNL A   1      29.735  30.861  20.613  1.00  0.00     0.027 H 
ATOM     42  C   UNL A   1      28.571  32.166  22.921  1.00  0.00     0.006 C 
ATOM     43  O   UNL A   1      29.903  31.107  24.626  1.00  0.00    -0.299 OA
ATOM     44  H   UNL A   1      27.033  31.068  21.907  1.00  0.00     0.027 H 
ATOM     45  H   UNL A   1      27.805  32.230  20.902  1.00  0.00     0.027 H 
ATOM     46  H   UNL A   1      27.803  32.467  23.603  1.00  0.00     0.035 H 
ATOM     47  H   UNL A   1      29.127  33.056  22.710  1.00  0.00     0.035 H 
ENDBRANCH  32  35
ENDBRANCH  26  32
ENDBRANCH  14  20
ENDBRANCH  11  14
ENDBRANCH   7  10
ENDBRANCH   4   7
ENDBRANCH   1   4
BRANCH   1  48
ATOM     48  C   UNL A   1      33.163  28.727  24.968  1.00  0.00    -0.052 C 
ATOM     49  H   UNL A   1      32.847  28.823  23.950  1.00  0.00     0.027 H 
ATOM     50  H   UNL A   1      33.844  29.494  25.272  1.00  0.00     0.027 H 
BRANCH  48  51
ATOM     51  C   UNL A   1      31.930  28.864  25.865  1.00  0.00    -0.036 C 
ATOM     52  H   UNL A   1      31.619  27.884  26.157  1.00  0.00     0.028 H 
ATOM     53  H   UNL A   1      31.193  29.385  25.289  1.00  0.00     0.028 H 
BRANCH  51  54
ATOM     54  C   UNL A   1      32.152  29.691  27.129  1.00  0.00     0.018 C 
ATOM     55  H   UNL A   1      33.032  29.337  27.624  1.00  0.00     0.049 H 
ATOM     56  H   UNL A   1      31.289  29.581  27.753  1.00  0.00     0.049 H 
BRANCH  54  57
ATOM     57  N   UNL A   1      32.316  31.103  26.831  1.00  0.00    -0.352 N 
ATOM     58  C   UNL A   1      33.278  31.983  27.256  1.00  0.00     0.251 C 
ATOM     59  H   UNL A   1      31.633  31.487  26.234  1.00  0.00     0.163 HD
ATOM     60  O   UNL A   1      33.128  33.187  27.075  1.00  0.00    -0.269 OA
BRANCH  58  61
ATOM     61  C   UNL A   1      34.493  31.491  27.942  1.00  0.00     0.039 A 
ATOM     62  C   UNL A   1      35.471  32.420  28.310  1.00  0.00    -0.049 A 
ATOM     63  C   UNL A   1      34.696  30.129  28.180  1.00  0.00    -0.049 A 
ATOM     64  C   UNL A   1      36.631  31.986  28.953  1.00  0.00    -0.053 A 
ATOM     65  H   UNL A   1      35.335  33.422  28.107  1.00  0.00     0.063 H 
ATOM     66  C   UNL A   1      35.825  29.703  28.879  1.00  0.00    -0.053 A 
ATOM     67  H   UNL A   1      34.010  29.438  27.839  1.00  0.00     0.063 H 
ATOM     68  C   UNL A   1      36.807  30.627  29.264  1.00  0.00    -0.014 A 
ATOM     69  H   UNL A   1      37.364  32.668  29.202  1.00  0.00     0.063 H 
ATOM     70  H   UNL A   1      35.939  28.704  29.113  1.00  0.00     0.063 H 
BRANCH  68  71
ATOM     71  C   UNL A   1      38.018  30.175  29.995  1.00  0.00     0.031 A 
ATOM     72  C   UNL A   1      38.284  30.644  31.399  1.00  0.00     0.074 A 
ATOM     73  C   UNL A   1      38.893  29.357  29.380  1.00  0.00     0.049 A 
ATOM     74  N   UNL A   1      39.283  30.349  32.194  1.00  0.00    -0.248 NA
ATOM     75  C   UNL A   1      37.313  31.583  31.980  1.00  0.00    -0.034 C 
ATOM     76  C   UNL A   1      38.775  28.881  28.000  1.00  0.00    -0.036 A 
ATOM     77  N   UNL A   1      40.054  28.782  29.831  1.00  0.00    -0.354 N 
ATOM     78  C   UNL A   1      39.058  31.061  33.365  1.00  0.00     0.074 A 
ATOM     79  C   UNL A   1      37.862  31.849  33.157  1.00  0.00    -0.034 C 
ATOM     80  H   UNL A   1      36.433  31.942  31.577  1.00  0.00     0.065 H 
ATOM     81  C   UNL A   1      39.809  28.070  27.725  1.00  0.00    -0.036 A 
ATOM     82  H   UNL A   1      38.019  29.130  27.343  1.00  0.00     0.065 H 
ATOM     83  C   UNL A   1      40.673  27.987  28.899  1.00  0.00     0.049 A 
ATOM     84  H   UNL A   1      40.408  28.925  30.739  1.00  0.00     0.167 HD
ATOM     85  C   UNL A   1      39.767  31.036  34.518  1.00  0.00     0.037 A 
ATOM     86  H   UNL A   1      37.486  32.529  33.836  1.00  0.00     0.065 H 
ATOM     87  H   UNL A   1      39.967  27.584  26.829  1.00  0.00     0.065 H 
ATOM     88  C   UNL A   1      41.808  27.268  28.982  1.00  0.00     0.037 A 
ATOM     89  C   UNL A   1      40.952  30.243  34.727  1.00  0.00     0.049 A 
ATOM     90  C   UNL A   1      42.568  27.247  30.281  1.00  0.00     0.074 A 
ATOM     91  C   UNL A   1      41.724  30.128  35.869  1.00  0.00    -0.036 A 
ATOM     92  N   UNL A   1      41.532  29.427  33.768  1.00  0.00    -0.354 N 
ATOM     93  N   UNL A   1      42.308  27.876  31.401  1.00  0.00    -0.248 NA
ATOM     94  C   UNL A   1      43.770  26.404  30.329  1.00  0.00    -0.034 C 
ATOM     95  C   UNL A   1      42.792  29.267  35.592  1.00  0.00    -0.036 A 
ATOM     96  H   UNL A   1      41.544  30.596  36.771  1.00  0.00     0.065 H 
ATOM     97  C   UNL A   1      42.659  28.813  34.290  1.00  0.00     0.049 A 
ATOM     98  H   UNL A   1      41.194  29.303  32.852  1.00  0.00     0.167 HD
ATOM     99  C   UNL A   1      43.302  27.491  32.293  1.00  0.00     0.074 A 
ATOM    100  C   UNL A   1      44.152  26.553  31.590  1.00  0.00    -0.034 C 
ATOM    101  H   UNL A   1      44.204  25.843  29.580  1.00  0.00     0.065 H 
ATOM    102  H   UNL A   1      43.549  29.014  36.246  1.00  0.00     0.065 H 
ATOM    103  C   UNL A   1      43.495  27.882  33.576  1.00  0.00     0.037 A 
ATOM    104  H   UNL A   1      44.954  26.063  32.017  1.00  0.00     0.065 H 
BRANCH  85 105
ATOM    105  C   UNL A   1      39.271  31.881  35.656  1.00  0.00     0.064 A 
ATOM    106  C   UNL A   1      39.644  33.228  35.780  1.00  0.00     0.173 A 
ATOM    107  C   UNL A   1      38.377  31.358  36.602  1.00  0.00     0.173 A 
ATOM    108  F   UNL A   1      40.505  33.773  34.908  1.00  0.00    -0.203 F 
ATOM    109  C   UNL A   1      39.159  34.014  36.821  1.00  0.00     0.198 A 
ATOM    110  C   UNL A   1      37.873  32.154  37.627  1.00  0.00     0.198 A 
ATOM    111  F   UNL A   1      37.984  30.078  36.527  1.00  0.00    -0.203 F 
ATOM    112  F   UNL A   1      39.561  35.286  36.942  1.00  0.00    -0.200 F 
ATOM    113  C   UNL A   1      38.267  33.479  37.739  1.00  0.00     0.200 A 
ATOM    114  F   UNL A   1      37.002  31.640  38.507  1.00  0.00    -0.200 F 
ATOM    115  F   UNL A   1      37.793  34.240  38.736  1.00  0.00    -0.200 F 
ENDBRANCH  85 105
BRANCH  88 116
ATOM    116  C   UNL A   1      42.282  26.490  27.810  1.00  0.00     0.064 A 
ATOM    117  C   UNL A   1      41.793  25.202  27.551  1.00  0.00     0.173 A 
ATOM    118  C   UNL A   1      43.242  27.013  26.931  1.00  0.00     0.173 A 
ATOM    119  F   UNL A   1      40.888  24.652  28.373  1.00  0.00    -0.203 F 
ATOM    120  C   UNL A   1      42.265  24.456  26.473  1.00  0.00     0.198 A 
ATOM    121  C   UNL A   1      43.691  26.278  25.836  1.00  0.00     0.198 A 
ATOM    122  F   UNL A   1      43.736  28.243  27.130  1.00  0.00    -0.203 F 
ATOM    123  F   UNL A   1      41.818  23.208  26.278  1.00  0.00    -0.200 F 
ATOM    124  C   UNL A   1      43.210  24.996  25.614  1.00  0.00     0.200 A 
ATOM    125  F   UNL A   1      44.594  26.809  25.001  1.00  0.00    -0.200 F 
ATOM    126  F   UNL A   1      43.664  24.279  24.577  1.00  0.00    -0.200 F 
ENDBRANCH  88 116
BRANCH 103 127
ATOM    127  C   UNL A   1      44.663  27.281  34.302  1.00  0.00     0.064 A 
ATOM    128  C   UNL A   1      45.921  27.901  34.306  1.00  0.00     0.173 A 
ATOM    129  C   UNL A   1      44.517  26.082  35.014  1.00  0.00     0.173 A 
ATOM    130  F   UNL A   1      46.114  29.042  33.627  1.00  0.00    -0.203 F 
ATOM    131  C   UNL A   1      47.000  27.323  34.969  1.00  0.00     0.198 A 
ATOM    132  C   UNL A   1      45.591  25.521  35.700  1.00  0.00     0.198 A 
ATOM    133  F   UNL A   1      43.332  25.453  35.047  1.00  0.00    -0.203 F 
ATOM    134  F   UNL A   1      48.207  27.902  34.914  1.00  0.00    -0.200 F 
ATOM    135  C   UNL A   1      46.833  26.136  35.669  1.00  0.00     0.200 A 
ATOM    136  F   UNL A   1      45.425  24.382  36.385  1.00  0.00    -0.200 F 
ATOM    137  F   UNL A   1      47.874  25.582  36.306  1.00  0.00    -0.200 F 
ENDBRANCH 103 127
ENDBRANCH  68  71
ENDBRANCH  58  61
ENDBRANCH  54  57
ENDBRANCH  51  54
ENDBRANCH  48  51
ENDBRANCH   1  48
TORSDOF 18
ENDMDL
MODEL 3
REMARK VINA RESULT:     -11.3      4.713     10.136
REMARK SMILES C[C@@H](C(=O)NCCCCCCNC(=O)c1ccc(-c2c3nc(c(-c4c(F)c(F)c(F)c(F)c4F)c4ccc([nH]4)c(-c4c(F)c(F)c(F)c(F)c4F)c4nc(c(-c5c(F)c(F)c(F)c(F)c5F)c5ccc2[nH]5)C=C4)C=C3)cc1)c1ccc(C[C@H]2CCCC2=O)cc1[N+](=O)[O-]
REMARK SMILES IDX 8 1 7 4 6 7 5 10 3 11 4 12 2 14 1 16 78 20 79 21 90 22 80 23
REMARK SMILES IDX 89 25 81 26 91 29 92 30 93 31 82 32 83 35 84 36 87 37 85 39
REMARK SMILES IDX 86 42 88 43 9 48 10 51 11 54 12 57 13 58 14 60 15 61 16 62
REMARK SMILES IDX 77 63 17 64 76 66 18 68 19 71 20 72 70 73 21 74 75 75 69 76
REMARK SMILES IDX 71 77 22 78 74 79 68 81 67 83 23 85 55 88 35 89 54 90 36 91
REMARK SMILES IDX 39 92 53 93 72 94 37 95 38 97 52 99 73 100 40 103 24 105
REMARK SMILES IDX 25 106 33 107 26 108 27 109 31 110 34 111 28 112 29 113
REMARK SMILES IDX 32 114 30 115 56 116 57 117 65 118 58 119 59 120 63 121
REMARK SMILES IDX 66 122 60 123 61 124 64 125 62 126 41 127 42 128 50 129
REMARK SMILES IDX 43 130 44 131 48 132 51 133 45 134 46 135 49 136 47 137
REMARK H PARENT 8 2 8 3 7 5 7 6 6 8 6 9 5 13 2 15 1 17 1 18 1 19 79 24 80 27
REMARK H PARENT 89 28 82 33 82 34 83 38 84 40 84 41 85 44 85 45 86 46 86 47
REMARK H PARENT 9 49 9 50 10 52 10 53 11 55 11 56 12 59 16 65 77 67 17 69
REMARK H PARENT 76 70 75 80 69 82 71 84 74 86 68 87 36 96 39 98 72 101 37 102
REMARK H PARENT 73 104
REMARK Flexibility Score: inf
ROOT
ATOM      1  C   UNL A   1      36.112  21.954  24.494  1.00  0.00    -0.052 C 
ATOM      2  H   UNL A   1      37.075  22.237  24.122  1.00  0.00     0.027 H 
ATOM      3  H   UNL A   1      35.355  21.943  23.738  1.00  0.00     0.027 H 
ENDROOT
BRANCH   1   4
ATOM      4  C   UNL A   1      35.674  22.994  25.532  1.00  0.00    -0.036 C 
ATOM      5  H   UNL A   1      34.876  22.579  26.111  1.00  0.00     0.028 H 
ATOM      6  H   UNL A   1      36.535  23.223  26.126  1.00  0.00     0.028 H 
BRANCH   4   7
ATOM      7  C   UNL A   1      35.191  24.314  24.918  1.00  0.00     0.017 C 
ATOM      8  H   UNL A   1      36.035  24.930  24.687  1.00  0.00     0.049 H 
ATOM      9  H   UNL A   1      34.642  24.110  24.023  1.00  0.00     0.049 H 
BRANCH   7  10
ATOM     10  N   UNL A   1      34.335  25.002  25.862  1.00  0.00    -0.356 N 
ATOM     11  C   UNL A   1      33.102  25.555  25.666  1.00  0.00     0.227 C 
ATOM     12  O   UNL A   1      32.752  26.417  26.475  1.00  0.00    -0.274 OA
ATOM     13  H   UNL A   1      34.694  25.084  26.775  1.00  0.00     0.163 HD
BRANCH  11  14
ATOM     14  C   UNL A   1      32.191  25.048  24.520  1.00  0.00     0.067 C 
ATOM     15  H   UNL A   1      32.568  25.351  23.565  1.00  0.00     0.045 H 
BRANCH  14  16
ATOM     16  C   UNL A   1      30.819  25.716  24.614  1.00  0.00    -0.049 C 
ATOM     17  H   UNL A   1      30.202  25.169  25.295  1.00  0.00     0.024 H 
ATOM     18  H   UNL A   1      30.361  25.727  23.647  1.00  0.00     0.024 H 
ATOM     19  H   UNL A   1      30.936  26.720  24.965  1.00  0.00     0.024 H 
ENDBRANCH  14  16
BRANCH  14  20
ATOM     20  C   UNL A   1      32.221  23.511  24.416  1.00  0.00     0.042 A 
ATOM     21  C   UNL A   1      32.537  22.972  23.148  1.00  0.00    -0.051 A 
ATOM     22  C   UNL A   1      31.934  22.573  25.426  1.00  0.00     0.273 A 
ATOM     23  C   UNL A   1      32.599  21.594  22.912  1.00  0.00    -0.058 A 
ATOM     24  H   UNL A   1      32.731  23.619  22.368  1.00  0.00     0.063 H 
ATOM     25  C   UNL A   1      31.940  21.187  25.177  1.00  0.00     0.019 A 
ATOM     26  C   UNL A   1      32.267  20.686  23.916  1.00  0.00    -0.040 A 
ATOM     27  H   UNL A   1      32.892  21.247  21.985  1.00  0.00     0.063 H 
ATOM     28  H   UNL A   1      31.699  20.533  25.938  1.00  0.00     0.070 H 
BRANCH  22  29
ATOM     29  N   UNL A   1      31.629  22.937  26.777  1.00  0.00     0.063 N 
ATOM     30  O   UNL A   1      32.504  22.959  27.617  1.00  0.00    -0.258 OA
ATOM     31  O   UNL A   1      30.377  23.389  27.114  1.00  0.00    -0.258 OA
ENDBRANCH  22  29
BRANCH  26  32
ATOM     32  C   UNL A   1      32.265  19.199  23.659  1.00  0.00    -0.018 C 
ATOM     33  H   UNL A   1      32.408  19.050  22.609  1.00  0.00     0.032 H 
ATOM     34  H   UNL A   1      31.326  18.847  24.032  1.00  0.00     0.032 H 
BRANCH  32  35
ATOM     35  C   UNL A   1      33.329  18.377  24.395  1.00  0.00     0.022 C 
ATOM     36  C   UNL A   1      32.980  17.920  25.816  1.00  0.00    -0.043 C 
ATOM     37  C   UNL A   1      33.626  17.066  23.707  1.00  0.00     0.136 C 
ATOM     38  H   UNL A   1      34.137  19.078  24.407  1.00  0.00     0.039 H 
ATOM     39  C   UNL A   1      32.486  16.484  25.695  1.00  0.00    -0.046 C 
ATOM     40  H   UNL A   1      32.213  18.543  26.227  1.00  0.00     0.027 H 
ATOM     41  H   UNL A   1      33.828  17.986  26.466  1.00  0.00     0.027 H 
ATOM     42  C   UNL A   1      33.296  15.871  24.561  1.00  0.00     0.006 C 
ATOM     43  O   UNL A   1      34.100  16.980  22.579  1.00  0.00    -0.299 OA
ATOM     44  H   UNL A   1      31.442  16.465  25.461  1.00  0.00     0.027 H 
ATOM     45  H   UNL A   1      32.610  15.942  26.609  1.00  0.00     0.027 H 
ATOM     46  H   UNL A   1      32.716  15.155  24.016  1.00  0.00     0.035 H 
ATOM     47  H   UNL A   1      34.161  15.338  24.897  1.00  0.00     0.035 H 
ENDBRANCH  32  35
ENDBRANCH  26  32
ENDBRANCH  14  20
ENDBRANCH  11  14
ENDBRANCH   7  10
ENDBRANCH   4   7
ENDBRANCH   1   4
BRANCH   1  48
ATOM     48  C   UNL A   1      36.211  20.522  25.026  1.00  0.00    -0.052 C 
ATOM     49  H   UNL A   1      35.459  19.934  24.541  1.00  0.00     0.027 H 
ATOM     50  H   UNL A   1      36.080  20.584  26.086  1.00  0.00     0.027 H 
BRANCH  48  51
ATOM     51  C   UNL A   1      37.565  19.845  24.798  1.00  0.00    -0.036 C 
ATOM     52  H   UNL A   1      37.814  19.935  23.762  1.00  0.00     0.028 H 
ATOM     53  H   UNL A   1      37.453  18.829  25.117  1.00  0.00     0.028 H 
BRANCH  51  54
ATOM     54  C   UNL A   1      38.714  20.429  25.617  1.00  0.00     0.018 C 
ATOM     55  H   UNL A   1      38.334  20.755  26.563  1.00  0.00     0.049 H 
ATOM     56  H   UNL A   1      39.131  21.246  25.067  1.00  0.00     0.049 H 
BRANCH  54  57
ATOM     57  N   UNL A   1      39.767  19.454  25.844  1.00  0.00    -0.352 N 
ATOM     58  C   UNL A   1      41.092  19.648  26.138  1.00  0.00     0.251 C 
ATOM     59  H   UNL A   1      39.488  18.513  25.775  1.00  0.00     0.163 HD
ATOM     60  O   UNL A   1      41.876  18.706  26.080  1.00  0.00    -0.269 OA
BRANCH  58  61
ATOM     61  C   UNL A   1      41.587  20.990  26.517  1.00  0.00     0.039 A 
ATOM     62  C   UNL A   1      41.846  21.915  25.502  1.00  0.00    -0.049 A 
ATOM     63  C   UNL A   1      41.844  21.324  27.850  1.00  0.00    -0.049 A 
ATOM     64  C   UNL A   1      42.320  23.186  25.827  1.00  0.00    -0.053 A 
ATOM     65  H   UNL A   1      41.686  21.658  24.516  1.00  0.00     0.063 H 
ATOM     66  C   UNL A   1      42.256  22.615  28.180  1.00  0.00    -0.053 A 
ATOM     67  H   UNL A   1      41.726  20.615  28.591  1.00  0.00     0.063 H 
ATOM     68  C   UNL A   1      42.506  23.555  27.170  1.00  0.00    -0.014 A 
ATOM     69  H   UNL A   1      42.534  23.861  25.076  1.00  0.00     0.063 H 
ATOM     70  H   UNL A   1      42.378  22.878  29.170  1.00  0.00     0.063 H 
BRANCH  68  71
ATOM     71  C   UNL A   1      42.960  24.926  27.516  1.00  0.00     0.031 A 
ATOM     72  C   UNL A   1      44.382  25.346  27.266  1.00  0.00     0.074 A 
ATOM     73  C   UNL A   1      42.092  25.786  28.081  1.00  0.00     0.049 A 
ATOM     74  N   UNL A   1      44.955  26.502  27.497  1.00  0.00    -0.248 NA
ATOM     75  C   UNL A   1      45.285  24.332  26.702  1.00  0.00    -0.034 C 
ATOM     76  C   UNL A   1      40.703  25.475  28.427  1.00  0.00    -0.036 A 
ATOM     77  N   UNL A   1      42.245  27.094  28.465  1.00  0.00    -0.354 N 
ATOM     78  C   UNL A   1      46.279  26.354  27.103  1.00  0.00     0.074 A 
ATOM     79  C   UNL A   1      46.441  24.981  26.677  1.00  0.00    -0.034 C 
ATOM     80  H   UNL A   1      45.074  23.366  26.403  1.00  0.00     0.065 H 
ATOM     81  C   UNL A   1      40.126  26.568  28.952  1.00  0.00    -0.036 A 
ATOM     82  H   UNL A   1      40.242  24.562  28.291  1.00  0.00     0.065 H 
ATOM     83  C   UNL A   1      41.108  27.647  29.000  1.00  0.00     0.049 A 
ATOM     84  H   UNL A   1      43.091  27.589  28.365  1.00  0.00     0.167 HD
ATOM     85  C   UNL A   1      47.260  27.286  27.073  1.00  0.00     0.037 A 
ATOM     86  H   UNL A   1      47.339  24.561  26.389  1.00  0.00     0.065 H 
ATOM     87  H   UNL A   1      39.147  26.635  29.269  1.00  0.00     0.065 H 
ATOM     88  C   UNL A   1      40.882  28.887  29.473  1.00  0.00     0.037 A 
ATOM     89  C   UNL A   1      47.095  28.655  27.488  1.00  0.00     0.049 A 
ATOM     90  C   UNL A   1      41.987  29.906  29.413  1.00  0.00     0.074 A 
ATOM     91  C   UNL A   1      48.021  29.683  27.468  1.00  0.00    -0.036 A 
ATOM     92  N   UNL A   1      45.919  29.187  27.998  1.00  0.00    -0.354 N 
ATOM     93  N   UNL A   1      43.216  29.770  28.980  1.00  0.00    -0.248 NA
ATOM     94  C   UNL A   1      41.667  31.257  29.895  1.00  0.00    -0.034 C 
ATOM     95  C   UNL A   1      47.416  30.829  27.997  1.00  0.00    -0.036 A 
ATOM     96  H   UNL A   1      48.991  29.616  27.123  1.00  0.00     0.065 H 
ATOM     97  C   UNL A   1      46.101  30.526  28.305  1.00  0.00     0.049 A 
ATOM     98  H   UNL A   1      45.081  28.687  28.122  1.00  0.00     0.167 HD
ATOM     99  C   UNL A   1      43.810  31.018  29.118  1.00  0.00     0.074 A 
ATOM    100  C   UNL A   1      42.797  31.905  29.650  1.00  0.00    -0.034 C 
ATOM    101  H   UNL A   1      40.792  31.610  30.314  1.00  0.00     0.065 H 
ATOM    102  H   UNL A   1      47.874  31.744  28.133  1.00  0.00     0.065 H 
ATOM    103  C   UNL A   1      45.081  31.394  28.835  1.00  0.00     0.037 A 
ATOM    104  H   UNL A   1      42.937  32.914  29.818  1.00  0.00     0.065 H 
BRANCH  85 105
ATOM    105  C   UNL A   1      48.604  26.861  26.555  1.00  0.00     0.064 A 
ATOM    106  C   UNL A   1      49.544  26.238  27.391  1.00  0.00     0.173 A 
ATOM    107  C   UNL A   1      48.940  27.031  25.204  1.00  0.00     0.173 A 
ATOM    108  F   UNL A   1      49.276  26.062  28.694  1.00  0.00    -0.203 F 
ATOM    109  C   UNL A   1      50.777  25.821  26.899  1.00  0.00     0.198 A 
ATOM    110  C   UNL A   1      50.163  26.589  24.709  1.00  0.00     0.198 A 
ATOM    111  F   UNL A   1      48.076  27.616  24.360  1.00  0.00    -0.203 F 
ATOM    112  F   UNL A   1      51.673  25.265  27.725  1.00  0.00    -0.200 F 
ATOM    113  C   UNL A   1      51.083  25.989  25.556  1.00  0.00     0.200 A 
ATOM    114  F   UNL A   1      50.454  26.741  23.409  1.00  0.00    -0.200 F 
ATOM    115  F   UNL A   1      52.267  25.578  25.081  1.00  0.00    -0.200 F 
ENDBRANCH  85 105
BRANCH  88 116
ATOM    116  C   UNL A   1      39.548  29.240  30.022  1.00  0.00     0.064 A 
ATOM    117  C   UNL A   1      39.238  29.015  31.370  1.00  0.00     0.173 A 
ATOM    118  C   UNL A   1      38.552  29.798  29.207  1.00  0.00     0.173 A 
ATOM    119  F   UNL A   1      40.151  28.468  32.185  1.00  0.00    -0.203 F 
ATOM    120  C   UNL A   1      37.974  29.311  31.877  1.00  0.00     0.198 A 
ATOM    121  C   UNL A   1      37.299  30.120  29.722  1.00  0.00     0.198 A 
ATOM    122  F   UNL A   1      38.801  30.039  27.912  1.00  0.00    -0.203 F 
ATOM    123  F   UNL A   1      37.688  29.039  33.157  1.00  0.00    -0.200 F 
ATOM    124  C   UNL A   1      37.007  29.867  31.053  1.00  0.00     0.200 A 
ATOM    125  F   UNL A   1      36.372  30.671  28.925  1.00  0.00    -0.200 F 
ATOM    126  F   UNL A   1      35.792  30.152  31.541  1.00  0.00    -0.200 F 
ENDBRANCH  88 116
BRANCH 103 127
ATOM    127  C   UNL A   1      45.436  32.831  29.081  1.00  0.00     0.064 A 
ATOM    128  C   UNL A   1      45.242  33.812  28.097  1.00  0.00     0.173 A 
ATOM    129  C   UNL A   1      45.961  33.234  30.317  1.00  0.00     0.173 A 
ATOM    130  F   UNL A   1      44.757  33.475  26.893  1.00  0.00    -0.203 F 
ATOM    131  C   UNL A   1      45.593  35.139  28.332  1.00  0.00     0.198 A 
ATOM    132  C   UNL A   1      46.284  34.566  30.559  1.00  0.00     0.198 A 
ATOM    133  F   UNL A   1      46.159  32.334  31.294  1.00  0.00    -0.203 F 
ATOM    134  F   UNL A   1      45.452  36.050  27.360  1.00  0.00    -0.200 F 
ATOM    135  C   UNL A   1      46.109  35.515  29.564  1.00  0.00     0.200 A 
ATOM    136  F   UNL A   1      46.771  34.930  31.753  1.00  0.00    -0.200 F 
ATOM    137  F   UNL A   1      46.447  36.793  29.787  1.00  0.00    -0.200 F 
ENDBRANCH 103 127
ENDBRANCH  68  71
ENDBRANCH  58  61
ENDBRANCH  54  57
ENDBRANCH  51  54
ENDBRANCH  48  51
ENDBRANCH   1  48
TORSDOF 18
ENDMDL
MODEL 4
REMARK VINA RESULT:     -11.3      1.137      2.135
REMARK SMILES C[C@@H](C(=O)NCCCCCCNC(=O)c1ccc(-c2c3nc(c(-c4c(F)c(F)c(F)c(F)c4F)c4ccc([nH]4)c(-c4c(F)c(F)c(F)c(F)c4F)c4nc(c(-c5c(F)c(F)c(F)c(F)c5F)c5ccc2[nH]5)C=C4)C=C3)cc1)c1ccc(C[C@H]2CCCC2=O)cc1[N+](=O)[O-]
REMARK SMILES IDX 8 1 7 4 6 7 5 10 3 11 4 12 2 14 1 16 78 20 79 21 90 22 80 23
REMARK SMILES IDX 89 25 81 26 91 29 92 30 93 31 82 32 83 35 84 36 87 37 85 39
REMARK SMILES IDX 86 42 88 43 9 48 10 51 11 54 12 57 13 58 14 60 15 61 16 62
REMARK SMILES IDX 77 63 17 64 76 66 18 68 19 71 20 72 70 73 21 74 75 75 69 76
REMARK SMILES IDX 71 77 22 78 74 79 68 81 67 83 23 85 55 88 35 89 54 90 36 91
REMARK SMILES IDX 39 92 53 93 72 94 37 95 38 97 52 99 73 100 40 103 24 105
REMARK SMILES IDX 25 106 33 107 26 108 27 109 31 110 34 111 28 112 29 113
REMARK SMILES IDX 32 114 30 115 56 116 57 117 65 118 58 119 59 120 63 121
REMARK SMILES IDX 66 122 60 123 61 124 64 125 62 126 41 127 42 128 50 129
REMARK SMILES IDX 43 130 44 131 48 132 51 133 45 134 46 135 49 136 47 137
REMARK H PARENT 8 2 8 3 7 5 7 6 6 8 6 9 5 13 2 15 1 17 1 18 1 19 79 24 80 27
REMARK H PARENT 89 28 82 33 82 34 83 38 84 40 84 41 85 44 85 45 86 46 86 47
REMARK H PARENT 9 49 9 50 10 52 10 53 11 55 11 56 12 59 16 65 77 67 17 69
REMARK H PARENT 76 70 75 80 69 82 71 84 74 86 68 87 36 96 39 98 72 101 37 102
REMARK H PARENT 73 104
REMARK Flexibility Score: inf
ROOT
ATOM      1  C   UNL A   1      34.234  25.884  25.387  1.00  0.00    -0.052 C 
ATOM      2  H   UNL A   1      33.796  25.690  24.430  1.00  0.00     0.027 H 
ATOM      3  H   UNL A   1      35.200  26.337  25.324  1.00  0.00     0.027 H 
ENDROOT
BRANCH   1   4
ATOM      4  C   UNL A   1      34.431  24.542  26.103  1.00  0.00    -0.036 C 
ATOM      5  H   UNL A   1      35.020  24.711  26.980  1.00  0.00     0.028 H 
ATOM      6  H   UNL A   1      33.456  24.165  26.331  1.00  0.00     0.028 H 
BRANCH   4   7
ATOM      7  C   UNL A   1      35.132  23.481  25.246  1.00  0.00     0.017 C 
ATOM      8  H   UNL A   1      36.184  23.504  25.442  1.00  0.00     0.049 H 
ATOM      9  H   UNL A   1      34.744  22.514  25.489  1.00  0.00     0.049 H 
BRANCH   7  10
ATOM     10  N   UNL A   1      34.896  23.757  23.844  1.00  0.00    -0.356 N 
ATOM     11  C   UNL A   1      33.909  23.286  23.026  1.00  0.00     0.227 C 
ATOM     12  O   UNL A   1      34.134  23.328  21.815  1.00  0.00    -0.274 OA
ATOM     13  H   UNL A   1      35.539  24.371  23.421  1.00  0.00     0.163 HD
BRANCH  11  14
ATOM     14  C   UNL A   1      32.564  22.802  23.622  1.00  0.00     0.067 C 
ATOM     15  H   UNL A   1      32.699  22.409  24.608  1.00  0.00     0.045 H 
BRANCH  14  16
ATOM     16  C   UNL A   1      32.035  21.617  22.814  1.00  0.00    -0.049 C 
ATOM     17  H   UNL A   1      31.727  20.839  23.481  1.00  0.00     0.024 H 
ATOM     18  H   UNL A   1      32.808  21.250  22.171  1.00  0.00     0.024 H 
ATOM     19  H   UNL A   1      31.200  21.932  22.224  1.00  0.00     0.024 H 
ENDBRANCH  14  16
BRANCH  14  20
ATOM     20  C   UNL A   1      31.598  23.978  23.861  1.00  0.00     0.042 A 
ATOM     21  C   UNL A   1      31.459  24.903  22.802  1.00  0.00    -0.051 A 
ATOM     22  C   UNL A   1      30.862  24.266  25.027  1.00  0.00     0.273 A 
ATOM     23  C   UNL A   1      30.617  26.018  22.884  1.00  0.00    -0.058 A 
ATOM     24  H   UNL A   1      31.997  24.750  21.935  1.00  0.00     0.063 H 
ATOM     25  C   UNL A   1      30.058  25.417  25.133  1.00  0.00     0.019 A 
ATOM     26  C   UNL A   1      29.933  26.306  24.064  1.00  0.00    -0.040 A 
ATOM     27  H   UNL A   1      30.502  26.633  22.064  1.00  0.00     0.063 H 
ATOM     28  H   UNL A   1      29.555  25.605  26.013  1.00  0.00     0.070 H 
BRANCH  22  29
ATOM     29  N   UNL A   1      30.854  23.422  26.184  1.00  0.00     0.063 N 
ATOM     30  O   UNL A   1      31.255  23.841  27.250  1.00  0.00    -0.258 OA
ATOM     31  O   UNL A   1      30.278  22.177  26.136  1.00  0.00    -0.258 OA
ENDBRANCH  22  29
BRANCH  26  32
ATOM     32  C   UNL A   1      29.073  27.539  24.190  1.00  0.00    -0.018 C 
ATOM     33  H   UNL A   1      29.535  28.187  24.905  1.00  0.00     0.032 H 
ATOM     34  H   UNL A   1      28.105  27.184  24.475  1.00  0.00     0.032 H 
BRANCH  32  35
ATOM     35  C   UNL A   1      28.847  28.348  22.907  1.00  0.00     0.022 C 
ATOM     36  C   UNL A   1      27.476  29.016  22.751  1.00  0.00    -0.043 C 
ATOM     37  C   UNL A   1      29.786  29.525  22.792  1.00  0.00     0.136 C 
ATOM     38  H   UNL A   1      28.985  27.583  22.173  1.00  0.00     0.039 H 
ATOM     39  C   UNL A   1      27.653  30.464  23.192  1.00  0.00    -0.046 C 
ATOM     40  H   UNL A   1      26.753  28.526  23.369  1.00  0.00     0.027 H 
ATOM     41  H   UNL A   1      27.126  28.956  21.741  1.00  0.00     0.027 H 
ATOM     42  C   UNL A   1      29.065  30.846  22.769  1.00  0.00     0.006 C 
ATOM     43  O   UNL A   1      31.005  29.420  22.710  1.00  0.00    -0.299 OA
ATOM     44  H   UNL A   1      27.544  30.549  24.252  1.00  0.00     0.027 H 
ATOM     45  H   UNL A   1      26.920  31.106  22.751  1.00  0.00     0.027 H 
ATOM     46  H   UNL A   1      29.501  31.536  23.462  1.00  0.00     0.035 H 
ATOM     47  H   UNL A   1      29.105  31.336  21.819  1.00  0.00     0.035 H 
ENDBRANCH  32  35
ENDBRANCH  26  32
ENDBRANCH  14  20
ENDBRANCH  11  14
ENDBRANCH   7  10
ENDBRANCH   4   7
ENDBRANCH   1   4
BRANCH   1  48
ATOM     48  C   UNL A   1      33.337  26.879  26.128  1.00  0.00    -0.052 C 
ATOM     49  H   UNL A   1      33.903  27.303  26.931  1.00  0.00     0.027 H 
ATOM     50  H   UNL A   1      32.483  26.327  26.458  1.00  0.00     0.027 H 
BRANCH  48  51
ATOM     51  C   UNL A   1      32.802  28.026  25.265  1.00  0.00    -0.036 C 
ATOM     52  H   UNL A   1      31.871  28.349  25.680  1.00  0.00     0.028 H 
ATOM     53  H   UNL A   1      32.708  27.638  24.272  1.00  0.00     0.028 H 
BRANCH  51  54
ATOM     54  C   UNL A   1      33.727  29.236  25.171  1.00  0.00     0.018 C 
ATOM     55  H   UNL A   1      33.963  29.412  24.142  1.00  0.00     0.049 H 
ATOM     56  H   UNL A   1      34.611  29.023  25.736  1.00  0.00     0.049 H 
BRANCH  54  57
ATOM     57  N   UNL A   1      33.114  30.431  25.724  1.00  0.00    -0.352 N 
ATOM     58  C   UNL A   1      33.411  31.117  26.874  1.00  0.00     0.251 C 
ATOM     59  H   UNL A   1      32.373  30.804  25.194  1.00  0.00     0.163 HD
ATOM     60  O   UNL A   1      32.642  31.977  27.288  1.00  0.00    -0.269 OA
BRANCH  58  61
ATOM     61  C   UNL A   1      34.650  30.818  27.626  1.00  0.00     0.039 A 
ATOM     62  C   UNL A   1      34.730  29.610  28.324  1.00  0.00    -0.049 A 
ATOM     63  C   UNL A   1      35.704  31.734  27.688  1.00  0.00    -0.049 A 
ATOM     64  C   UNL A   1      35.882  29.303  29.048  1.00  0.00    -0.053 A 
ATOM     65  H   UNL A   1      33.939  28.948  28.304  1.00  0.00     0.063 H 
ATOM     66  C   UNL A   1      36.880  31.399  28.359  1.00  0.00    -0.053 A 
ATOM     67  H   UNL A   1      35.613  32.658  27.237  1.00  0.00     0.063 H 
ATOM     68  C   UNL A   1      36.976  30.185  29.052  1.00  0.00    -0.014 A 
ATOM     69  H   UNL A   1      35.931  28.423  29.584  1.00  0.00     0.063 H 
ATOM     70  H   UNL A   1      37.682  32.049  28.346  1.00  0.00     0.063 H 
BRANCH  68  71
ATOM     71  C   UNL A   1      38.222  29.832  29.780  1.00  0.00     0.031 A 
ATOM     72  C   UNL A   1      38.509  30.420  31.134  1.00  0.00     0.074 A 
ATOM     73  C   UNL A   1      39.107  28.996  29.206  1.00  0.00     0.049 A 
ATOM     74  N   UNL A   1      39.538  30.222  31.920  1.00  0.00    -0.248 NA
ATOM     75  C   UNL A   1      37.522  31.370  31.668  1.00  0.00    -0.034 C 
ATOM     76  C   UNL A   1      38.969  28.408  27.872  1.00  0.00    -0.036 A 
ATOM     77  N   UNL A   1      40.299  28.496  29.667  1.00  0.00    -0.354 N 
ATOM     78  C   UNL A   1      39.320  31.017  33.038  1.00  0.00     0.074 A 
ATOM     79  C   UNL A   1      38.093  31.747  32.803  1.00  0.00    -0.034 C 
ATOM     80  H   UNL A   1      36.619  31.667  31.264  1.00  0.00     0.065 H 
ATOM     81  C   UNL A   1      40.022  27.612  27.632  1.00  0.00    -0.036 A 
ATOM     82  H   UNL A   1      38.187  28.579  27.220  1.00  0.00     0.065 H 
ATOM     83  C   UNL A   1      40.920  27.650  28.782  1.00  0.00     0.049 A 
ATOM     84  H   UNL A   1      40.673  28.723  30.550  1.00  0.00     0.167 HD
ATOM     85  C   UNL A   1      40.061  31.108  34.168  1.00  0.00     0.037 A 
ATOM     86  H   UNL A   1      37.712  32.466  33.438  1.00  0.00     0.065 H 
ATOM     87  H   UNL A   1      40.173  27.061  26.773  1.00  0.00     0.065 H 
ATOM     88  C   UNL A   1      42.082  26.978  28.889  1.00  0.00     0.037 A 
ATOM     89  C   UNL A   1      41.277  30.373  34.404  1.00  0.00     0.049 A 
ATOM     90  C   UNL A   1      42.876  27.085  30.162  1.00  0.00     0.074 A 
ATOM     91  C   UNL A   1      42.083  30.374  35.528  1.00  0.00    -0.036 A 
ATOM     92  N   UNL A   1      41.860  29.502  33.495  1.00  0.00    -0.354 N 
ATOM     93  N   UNL A   1      42.625  27.792  31.237  1.00  0.00    -0.248 NA
ATOM     94  C   UNL A   1      44.108  26.288  30.241  1.00  0.00    -0.034 C 
ATOM     95  C   UNL A   1      43.173  29.529  35.288  1.00  0.00    -0.036 A 
ATOM     96  H   UNL A   1      41.912  30.906  36.395  1.00  0.00     0.065 H 
ATOM     97  C   UNL A   1      43.021  28.968  34.031  1.00  0.00     0.049 A 
ATOM     98  H   UNL A   1      41.501  29.294  32.602  1.00  0.00     0.167 HD
ATOM     99  C   UNL A   1      43.655  27.512  32.126  1.00  0.00     0.074 A 
ATOM    100  C   UNL A   1      44.518  26.549  31.475  1.00  0.00    -0.034 C 
ATOM    101  H   UNL A   1      44.541  25.684  29.526  1.00  0.00     0.065 H 
ATOM    102  H   UNL A   1      43.956  29.354  35.937  1.00  0.00     0.065 H 
ATOM    103  C   UNL A   1      43.869  28.011  33.367  1.00  0.00     0.037 A 
ATOM    104  H   UNL A   1      45.347  26.121  31.914  1.00  0.00     0.065 H 
BRANCH  85 105
ATOM    105  C   UNL A   1      39.566  32.024  35.250  1.00  0.00     0.064 A 
ATOM    106  C   UNL A   1      39.931  33.379  35.279  1.00  0.00     0.173 A 
ATOM    107  C   UNL A   1      38.683  31.560  36.235  1.00  0.00     0.173 A 
ATOM    108  F   UNL A   1      40.782  33.869  34.366  1.00  0.00    -0.203 F 
ATOM    109  C   UNL A   1      39.447  34.230  36.269  1.00  0.00     0.198 A 
ATOM    110  C   UNL A   1      38.179  32.420  37.208  1.00  0.00     0.198 A 
ATOM    111  F   UNL A   1      38.298  30.275  36.250  1.00  0.00    -0.203 F 
ATOM    112  F   UNL A   1      39.841  35.510  36.301  1.00  0.00    -0.200 F 
ATOM    113  C   UNL A   1      38.565  33.753  37.228  1.00  0.00     0.200 A 
ATOM    114  F   UNL A   1      37.318  31.961  38.127  1.00  0.00    -0.200 F 
ATOM    115  F   UNL A   1      38.092  34.575  38.174  1.00  0.00    -0.200 F 
ENDBRANCH  85 105
BRANCH  88 116
ATOM    116  C   UNL A   1      42.550  26.124  27.767  1.00  0.00     0.064 A 
ATOM    117  C   UNL A   1      43.508  26.589  26.856  1.00  0.00     0.173 A 
ATOM    118  C   UNL A   1      42.041  24.831  27.577  1.00  0.00     0.173 A 
ATOM    119  F   UNL A   1      44.011  27.825  26.986  1.00  0.00    -0.203 F 
ATOM    120  C   UNL A   1      43.920  25.803  25.781  1.00  0.00     0.198 A 
ATOM    121  C   UNL A   1      42.476  24.036  26.520  1.00  0.00     0.198 A 
ATOM    122  F   UNL A   1      41.128  24.337  28.426  1.00  0.00    -0.203 F 
ATOM    123  F   UNL A   1      44.799  26.292  24.896  1.00  0.00    -0.200 F 
ATOM    124  C   UNL A   1      43.407  24.526  25.617  1.00  0.00     0.200 A 
ATOM    125  F   UNL A   1      41.987  22.796  26.373  1.00  0.00    -0.200 F 
ATOM    126  F   UNL A   1      43.803  23.770  24.584  1.00  0.00    -0.200 F 
ENDBRANCH  88 116
BRANCH 103 127
ATOM    127  C   UNL A   1      45.076  27.508  34.104  1.00  0.00     0.064 A 
ATOM    128  C   UNL A   1      46.315  28.157  34.010  1.00  0.00     0.173 A 
ATOM    129  C   UNL A   1      44.987  26.374  34.925  1.00  0.00     0.173 A 
ATOM    130  F   UNL A   1      46.455  29.237  33.225  1.00  0.00    -0.203 F 
ATOM    131  C   UNL A   1      47.431  27.669  34.684  1.00  0.00     0.198 A 
ATOM    132  C   UNL A   1      46.098  25.906  35.622  1.00  0.00     0.198 A 
ATOM    133  F   UNL A   1      43.822  25.721  35.055  1.00  0.00    -0.203 F 
ATOM    134  F   UNL A   1      48.619  28.272  34.536  1.00  0.00    -0.200 F 
ATOM    135  C   UNL A   1      47.321  26.547  35.493  1.00  0.00     0.200 A 
ATOM    136  F   UNL A   1      45.986  24.829  36.412  1.00  0.00    -0.200 F 
ATOM    137  F   UNL A   1      48.396  26.079  36.141  1.00  0.00    -0.200 F 
ENDBRANCH 103 127
ENDBRANCH  68  71
ENDBRANCH  58  61
ENDBRANCH  54  57
ENDBRANCH  51  54
ENDBRANCH  48  51
ENDBRANCH   1  48
TORSDOF 18
ENDMDL
MODEL 5
REMARK VINA RESULT:     -11.3      1.898      2.784
REMARK SMILES C[C@@H](C(=O)NCCCCCCNC(=O)c1ccc(-c2c3nc(c(-c4c(F)c(F)c(F)c(F)c4F)c4ccc([nH]4)c(-c4c(F)c(F)c(F)c(F)c4F)c4nc(c(-c5c(F)c(F)c(F)c(F)c5F)c5ccc2[nH]5)C=C4)C=C3)cc1)c1ccc(C[C@H]2CCCC2=O)cc1[N+](=O)[O-]
REMARK SMILES IDX 8 1 7 4 6 7 5 10 3 11 4 12 2 14 1 16 78 20 79 21 90 22 80 23
REMARK SMILES IDX 89 25 81 26 91 29 92 30 93 31 82 32 83 35 84 36 87 37 85 39
REMARK SMILES IDX 86 42 88 43 9 48 10 51 11 54 12 57 13 58 14 60 15 61 16 62
REMARK SMILES IDX 77 63 17 64 76 66 18 68 19 71 20 72 70 73 21 74 75 75 69 76
REMARK SMILES IDX 71 77 22 78 74 79 68 81 67 83 23 85 55 88 35 89 54 90 36 91
REMARK SMILES IDX 39 92 53 93 72 94 37 95 38 97 52 99 73 100 40 103 24 105
REMARK SMILES IDX 25 106 33 107 26 108 27 109 31 110 34 111 28 112 29 113
REMARK SMILES IDX 32 114 30 115 56 116 57 117 65 118 58 119 59 120 63 121
REMARK SMILES IDX 66 122 60 123 61 124 64 125 62 126 41 127 42 128 50 129
REMARK SMILES IDX 43 130 44 131 48 132 51 133 45 134 46 135 49 136 47 137
REMARK H PARENT 8 2 8 3 7 5 7 6 6 8 6 9 5 13 2 15 1 17 1 18 1 19 79 24 80 27
REMARK H PARENT 89 28 82 33 82 34 83 38 84 40 84 41 85 44 85 45 86 46 86 47
REMARK H PARENT 9 49 9 50 10 52 10 53 11 55 11 56 12 59 16 65 77 67 17 69
REMARK H PARENT 76 70 75 80 69 82 71 84 74 86 68 87 36 96 39 98 72 101 37 102
REMARK H PARENT 73 104
REMARK Flexibility Score: inf
ROOT
ATOM      1  C   UNL A   1      31.804  29.355  26.838  1.00  0.00    -0.052 C 
ATOM      2  H   UNL A   1      32.452  29.818  27.553  1.00  0.00     0.027 H 
ATOM      3  H   UNL A   1      30.885  29.011  27.264  1.00  0.00     0.027 H 
ENDROOT
BRANCH   1   4
ATOM      4  C   UNL A   1      32.514  28.116  26.280  1.00  0.00    -0.036 C 
ATOM      5  H   UNL A   1      32.569  28.210  25.215  1.00  0.00     0.028 H 
ATOM      6  H   UNL A   1      33.480  28.078  26.738  1.00  0.00     0.028 H 
BRANCH   4   7
ATOM      7  C   UNL A   1      31.808  26.796  26.613  1.00  0.00     0.017 C 
ATOM      8  H   UNL A   1      31.680  26.718  27.673  1.00  0.00     0.049 H 
ATOM      9  H   UNL A   1      30.850  26.774  26.136  1.00  0.00     0.049 H 
BRANCH   7  10
ATOM     10  N   UNL A   1      32.608  25.686  26.139  1.00  0.00    -0.356 N 
ATOM     11  C   UNL A   1      32.225  24.592  25.417  1.00  0.00     0.227 C 
ATOM     12  O   UNL A   1      32.966  23.609  25.476  1.00  0.00    -0.274 OA
ATOM     13  H   UNL A   1      33.563  25.725  26.373  1.00  0.00     0.163 HD
BRANCH  11  14
ATOM     14  C   UNL A   1      30.960  24.648  24.524  1.00  0.00     0.067 C 
ATOM     15  H   UNL A   1      30.070  24.587  25.114  1.00  0.00     0.045 H 
BRANCH  14  16
ATOM     16  C   UNL A   1      30.904  23.412  23.626  1.00  0.00    -0.049 C 
ATOM     17  H   UNL A   1      31.786  22.824  23.775  1.00  0.00     0.024 H 
ATOM     18  H   UNL A   1      30.847  23.717  22.602  1.00  0.00     0.024 H 
ATOM     19  H   UNL A   1      30.041  22.831  23.874  1.00  0.00     0.024 H 
ENDBRANCH  14  16
BRANCH  14  20
ATOM     20  C   UNL A   1      30.813  26.022  23.842  1.00  0.00     0.042 A 
ATOM     21  C   UNL A   1      29.595  26.705  24.059  1.00  0.00    -0.051 A 
ATOM     22  C   UNL A   1      31.735  26.667  22.994  1.00  0.00     0.273 A 
ATOM     23  C   UNL A   1      29.328  27.960  23.500  1.00  0.00    -0.058 A 
ATOM     24  H   UNL A   1      28.876  26.263  24.653  1.00  0.00     0.063 H 
ATOM     25  C   UNL A   1      31.446  27.903  22.386  1.00  0.00     0.019 A 
ATOM     26  C   UNL A   1      30.238  28.557  22.629  1.00  0.00    -0.040 A 
ATOM     27  H   UNL A   1      28.449  28.447  23.734  1.00  0.00     0.063 H 
ATOM     28  H   UNL A   1      32.137  28.330  21.751  1.00  0.00     0.070 H 
BRANCH  22  29
ATOM     29  N   UNL A   1      33.032  26.139  22.692  1.00  0.00     0.063 N 
ATOM     30  O   UNL A   1      33.956  26.309  23.460  1.00  0.00    -0.258 OA
ATOM     31  O   UNL A   1      33.219  25.328  21.601  1.00  0.00    -0.258 OA
ENDBRANCH  22  29
BRANCH  26  32
ATOM     32  C   UNL A   1      29.936  29.879  21.967  1.00  0.00    -0.018 C 
ATOM     33  H   UNL A   1      29.871  29.709  20.912  1.00  0.00     0.032 H 
ATOM     34  H   UNL A   1      30.728  30.533  22.262  1.00  0.00     0.032 H 
BRANCH  32  35
ATOM     35  C   UNL A   1      28.645  30.583  22.403  1.00  0.00     0.022 C 
ATOM     36  C   UNL A   1      28.757  31.546  23.590  1.00  0.00    -0.043 C 
ATOM     37  C   UNL A   1      28.079  31.476  21.324  1.00  0.00     0.136 C 
ATOM     38  H   UNL A   1      28.043  29.736  22.655  1.00  0.00     0.039 H 
ATOM     39  C   UNL A   1      28.880  32.944  22.995  1.00  0.00    -0.046 C 
ATOM     40  H   UNL A   1      29.624  31.315  24.174  1.00  0.00     0.027 H 
ATOM     41  H   UNL A   1      27.907  31.471  24.235  1.00  0.00     0.027 H 
ATOM     42  C   UNL A   1      28.029  32.924  21.733  1.00  0.00     0.006 C 
ATOM     43  O   UNL A   1      27.686  31.067  20.238  1.00  0.00    -0.299 OA
ATOM     44  H   UNL A   1      29.899  33.162  22.756  1.00  0.00     0.027 H 
ATOM     45  H   UNL A   1      28.553  33.698  23.681  1.00  0.00     0.027 H 
ATOM     46  H   UNL A   1      28.449  33.553  20.975  1.00  0.00     0.035 H 
ATOM     47  H   UNL A   1      27.035  33.288  21.885  1.00  0.00     0.035 H 
ENDBRANCH  32  35
ENDBRANCH  26  32
ENDBRANCH  14  20
ENDBRANCH  11  14
ENDBRANCH   7  10
ENDBRANCH   4   7
ENDBRANCH   1   4
BRANCH   1  48
ATOM     48  C   UNL A   1      31.427  30.404  25.789  1.00  0.00    -0.052 C 
ATOM     49  H   UNL A   1      30.483  30.129  25.366  1.00  0.00     0.027 H 
ATOM     50  H   UNL A   1      32.222  30.415  25.074  1.00  0.00     0.027 H 
BRANCH  48  51
ATOM     51  C   UNL A   1      31.309  31.834  26.325  1.00  0.00    -0.036 C 
ATOM     52  H   UNL A   1      30.467  31.876  26.982  1.00  0.00     0.028 H 
ATOM     53  H   UNL A   1      31.207  32.470  25.470  1.00  0.00     0.028 H 
BRANCH  51  54
ATOM     54  C   UNL A   1      32.534  32.330  27.088  1.00  0.00     0.018 C 
ATOM     55  H   UNL A   1      33.396  32.229  26.462  1.00  0.00     0.049 H 
ATOM     56  H   UNL A   1      32.632  31.742  27.977  1.00  0.00     0.049 H 
BRANCH  54  57
ATOM     57  N   UNL A   1      32.400  33.722  27.482  1.00  0.00    -0.352 N 
ATOM     58  C   UNL A   1      33.079  34.432  28.438  1.00  0.00     0.251 C 
ATOM     59  H   UNL A   1      31.717  34.232  26.989  1.00  0.00     0.163 HD
ATOM     60  O   UNL A   1      32.677  35.539  28.778  1.00  0.00    -0.269 OA
BRANCH  58  61
ATOM     61  C   UNL A   1      34.292  33.867  29.071  1.00  0.00     0.039 A 
ATOM     62  C   UNL A   1      34.133  32.897  30.065  1.00  0.00    -0.049 A 
ATOM     63  C   UNL A   1      35.570  34.318  28.731  1.00  0.00    -0.049 A 
ATOM     64  C   UNL A   1      35.257  32.350  30.685  1.00  0.00    -0.053 A 
ATOM     65  H   UNL A   1      33.188  32.586  30.338  1.00  0.00     0.063 H 
ATOM     66  C   UNL A   1      36.695  33.726  29.305  1.00  0.00    -0.053 A 
ATOM     67  H   UNL A   1      35.683  35.089  28.054  1.00  0.00     0.063 H 
ATOM     68  C   UNL A   1      36.548  32.742  30.293  1.00  0.00    -0.014 A 
ATOM     69  H   UNL A   1      35.139  31.652  31.436  1.00  0.00     0.063 H 
ATOM     70  H   UNL A   1      37.638  34.013  29.002  1.00  0.00     0.063 H 
BRANCH  68  71
ATOM     71  C   UNL A   1      37.743  32.121  30.918  1.00  0.00     0.031 A 
ATOM     72  C   UNL A   1      38.205  32.553  32.282  1.00  0.00     0.074 A 
ATOM     73  C   UNL A   1      38.427  31.180  30.240  1.00  0.00     0.049 A 
ATOM     74  N   UNL A   1      39.220  32.118  32.987  1.00  0.00    -0.248 NA
ATOM     75  C   UNL A   1      37.441  33.627  32.933  1.00  0.00    -0.034 C 
ATOM     76  C   UNL A   1      38.112  30.719  28.886  1.00  0.00    -0.036 A 
ATOM     77  N   UNL A   1      39.528  30.441  30.594  1.00  0.00    -0.354 N 
ATOM     78  C   UNL A   1      39.213  32.861  34.161  1.00  0.00     0.074 A 
ATOM     79  C   UNL A   1      38.131  33.815  34.048  1.00  0.00    -0.034 C 
ATOM     80  H   UNL A   1      36.588  34.110  32.606  1.00  0.00     0.065 H 
ATOM     81  C   UNL A   1      38.986  29.763  28.533  1.00  0.00    -0.036 A 
ATOM     82  H   UNL A   1      37.342  31.074  28.297  1.00  0.00     0.065 H 
ATOM     83  C   UNL A   1      39.934  29.559  29.623  1.00  0.00     0.049 A 
ATOM     84  H   UNL A   1      39.984  30.536  31.462  1.00  0.00     0.167 HD
ATOM     85  C   UNL A   1      40.016  32.737  35.243  1.00  0.00     0.037 A 
ATOM     86  H   UNL A   1      37.923  34.546  34.747  1.00  0.00     0.065 H 
ATOM     87  H   UNL A   1      38.986  29.255  27.635  1.00  0.00     0.065 H 
ATOM     88  C   UNL A   1      40.956  28.682  29.615  1.00  0.00     0.037 A 
ATOM     89  C   UNL A   1      41.086  31.780  35.358  1.00  0.00     0.049 A 
ATOM     90  C   UNL A   1      41.822  28.556  30.839  1.00  0.00     0.074 A 
ATOM     91  C   UNL A   1      41.937  31.558  36.426  1.00  0.00    -0.036 A 
ATOM     92  N   UNL A   1      41.448  30.882  34.365  1.00  0.00    -0.354 N 
ATOM     93  N   UNL A   1      41.764  29.221  31.966  1.00  0.00    -0.248 NA
ATOM     94  C   UNL A   1      42.887  27.545  30.792  1.00  0.00    -0.034 C 
ATOM     95  C   UNL A   1      42.837  30.547  36.067  1.00  0.00    -0.036 A 
ATOM     96  H   UNL A   1      41.913  32.051  37.332  1.00  0.00     0.065 H 
ATOM     97  C   UNL A   1      42.518  30.111  34.792  1.00  0.00     0.049 A 
ATOM     98  H   UNL A   1      41.011  30.804  33.486  1.00  0.00     0.167 HD
ATOM     99  C   UNL A   1      42.769  28.699  32.769  1.00  0.00     0.074 A 
ATOM    100  C   UNL A   1      43.404  27.642  32.009  1.00  0.00    -0.034 C 
ATOM    101  H   UNL A   1      43.163  26.923  30.016  1.00  0.00     0.065 H 
ATOM    102  H   UNL A   1      43.607  30.189  36.653  1.00  0.00     0.065 H 
ATOM    103  C   UNL A   1      43.138  29.064  34.021  1.00  0.00     0.037 A 
ATOM    104  H   UNL A   1      44.161  27.041  32.369  1.00  0.00     0.065 H 
BRANCH  85 105
ATOM    105  C   UNL A   1      39.757  33.652  36.406  1.00  0.00     0.064 A 
ATOM    106  C   UNL A   1      38.902  33.273  37.453  1.00  0.00     0.173 A 
ATOM    107  C   UNL A   1      40.404  34.892  36.503  1.00  0.00     0.173 A 
ATOM    108  F   UNL A   1      38.250  32.102  37.403  1.00  0.00    -0.203 F 
ATOM    109  C   UNL A   1      38.687  34.113  38.542  1.00  0.00     0.198 A 
ATOM    110  C   UNL A   1      40.208  35.717  37.607  1.00  0.00     0.198 A 
ATOM    111  F   UNL A   1      41.235  35.300  35.533  1.00  0.00    -0.203 F 
ATOM    112  F   UNL A   1      37.835  33.748  39.510  1.00  0.00    -0.200 F 
ATOM    113  C   UNL A   1      39.346  35.331  38.623  1.00  0.00     0.200 A 
ATOM    114  F   UNL A   1      40.854  36.889  37.690  1.00  0.00    -0.200 F 
ATOM    115  F   UNL A   1      39.146  36.134  39.677  1.00  0.00    -0.200 F 
ENDBRANCH  85 105
BRANCH  88 116
ATOM    116  C   UNL A   1      41.198  27.836  28.419  1.00  0.00     0.064 A 
ATOM    117  C   UNL A   1      42.075  28.250  27.406  1.00  0.00     0.173 A 
ATOM    118  C   UNL A   1      40.548  26.604  28.256  1.00  0.00     0.173 A 
ATOM    119  F   UNL A   1      42.705  29.429  27.508  1.00  0.00    -0.203 F 
ATOM    120  C   UNL A   1      42.274  27.475  26.266  1.00  0.00     0.198 A 
ATOM    121  C   UNL A   1      40.771  25.817  27.129  1.00  0.00     0.198 A 
ATOM    122  F   UNL A   1      39.705  26.160  29.200  1.00  0.00    -0.203 F 
ATOM    123  F   UNL A   1      43.079  27.918  25.291  1.00  0.00    -0.200 F 
ATOM    124  C   UNL A   1      41.625  26.257  26.130  1.00  0.00     0.200 A 
ATOM    125  F   UNL A   1      40.153  24.634  27.009  1.00  0.00    -0.200 F 
ATOM    126  F   UNL A   1      41.817  25.513  25.033  1.00  0.00    -0.200 F 
ENDBRANCH  88 116
BRANCH 103 127
ATOM    127  C   UNL A   1      44.267  28.301  34.649  1.00  0.00     0.064 A 
ATOM    128  C   UNL A   1      45.597  28.731  34.528  1.00  0.00     0.173 A 
ATOM    129  C   UNL A   1      44.016  27.137  35.390  1.00  0.00     0.173 A 
ATOM    130  F   UNL A   1      45.891  29.829  33.816  1.00  0.00    -0.203 F 
ATOM    131  C   UNL A   1      46.638  28.003  35.100  1.00  0.00     0.198 A 
ATOM    132  C   UNL A   1      45.056  26.429  35.985  1.00  0.00     0.198 A 
ATOM    133  F   UNL A   1      42.760  26.688  35.540  1.00  0.00    -0.203 F 
ATOM    134  F   UNL A   1      47.906  28.400  34.926  1.00  0.00    -0.200 F 
ATOM    135  C   UNL A   1      46.366  26.856  35.831  1.00  0.00     0.200 A 
ATOM    136  F   UNL A   1      44.791  25.327  36.701  1.00  0.00    -0.200 F 
ATOM    137  F   UNL A   1      47.369  26.157  36.380  1.00  0.00    -0.200 F 
ENDBRANCH 103 127
ENDBRANCH  68  71
ENDBRANCH  58  61
ENDBRANCH  54  57
ENDBRANCH  51  54
ENDBRANCH  48  51
ENDBRANCH   1  48
TORSDOF 18
ENDMDL
MODEL 6
REMARK VINA RESULT:     -11.3      2.477      4.781
REMARK SMILES C[C@@H](C(=O)NCCCCCCNC(=O)c1ccc(-c2c3nc(c(-c4c(F)c(F)c(F)c(F)c4F)c4ccc([nH]4)c(-c4c(F)c(F)c(F)c(F)c4F)c4nc(c(-c5c(F)c(F)c(F)c(F)c5F)c5ccc2[nH]5)C=C4)C=C3)cc1)c1ccc(C[C@H]2CCCC2=O)cc1[N+](=O)[O-]
REMARK SMILES IDX 8 1 7 4 6 7 5 10 3 11 4 12 2 14 1 16 78 20 79 21 90 22 80 23
REMARK SMILES IDX 89 25 81 26 91 29 92 30 93 31 82 32 83 35 84 36 87 37 85 39
REMARK SMILES IDX 86 42 88 43 9 48 10 51 11 54 12 57 13 58 14 60 15 61 16 62
REMARK SMILES IDX 77 63 17 64 76 66 18 68 19 71 20 72 70 73 21 74 75 75 69 76
REMARK SMILES IDX 71 77 22 78 74 79 68 81 67 83 23 85 55 88 35 89 54 90 36 91
REMARK SMILES IDX 39 92 53 93 72 94 37 95 38 97 52 99 73 100 40 103 24 105
REMARK SMILES IDX 25 106 33 107 26 108 27 109 31 110 34 111 28 112 29 113
REMARK SMILES IDX 32 114 30 115 56 116 57 117 65 118 58 119 59 120 63 121
REMARK SMILES IDX 66 122 60 123 61 124 64 125 62 126 41 127 42 128 50 129
REMARK SMILES IDX 43 130 44 131 48 132 51 133 45 134 46 135 49 136 47 137
REMARK H PARENT 8 2 8 3 7 5 7 6 6 8 6 9 5 13 2 15 1 17 1 18 1 19 79 24 80 27
REMARK H PARENT 89 28 82 33 82 34 83 38 84 40 84 41 85 44 85 45 86 46 86 47
REMARK H PARENT 9 49 9 50 10 52 10 53 11 55 11 56 12 59 16 65 77 67 17 69
REMARK H PARENT 76 70 75 80 69 82 71 84 74 86 68 87 36 96 39 98 72 101 37 102
REMARK H PARENT 73 104
REMARK Flexibility Score: inf
ROOT
ATOM      1  C   UNL A   1      32.374  29.968  26.956  1.00  0.00    -0.052 C 
ATOM      2  H   UNL A   1      33.216  29.733  26.340  1.00  0.00     0.027 H 
ATOM      3  H   UNL A   1      32.631  30.552  27.815  1.00  0.00     0.027 H 
ENDROOT
BRANCH   1   4
ATOM      4  C   UNL A   1      31.786  28.654  27.485  1.00  0.00    -0.036 C 
ATOM      5  H   UNL A   1      32.165  28.488  28.472  1.00  0.00     0.028 H 
ATOM      6  H   UNL A   1      30.722  28.760  27.468  1.00  0.00     0.028 H 
BRANCH   4   7
ATOM      7  C   UNL A   1      32.129  27.433  26.624  1.00  0.00     0.017 C 
ATOM      8  H   UNL A   1      32.081  27.701  25.589  1.00  0.00     0.049 H 
ATOM      9  H   UNL A   1      33.117  27.097  26.860  1.00  0.00     0.049 H 
BRANCH   7  10
ATOM     10  N   UNL A   1      31.183  26.370  26.892  1.00  0.00    -0.356 N 
ATOM     11  C   UNL A   1      30.451  25.623  26.013  1.00  0.00     0.227 C 
ATOM     12  O   UNL A   1      29.443  25.076  26.463  1.00  0.00    -0.274 OA
ATOM     13  H   UNL A   1      31.046  26.156  27.843  1.00  0.00     0.163 HD
BRANCH  11  14
ATOM     14  C   UNL A   1      30.936  25.437  24.553  1.00  0.00     0.067 C 
ATOM     15  H   UNL A   1      31.700  26.145  24.308  1.00  0.00     0.045 H 
BRANCH  14  16
ATOM     16  C   UNL A   1      29.798  25.759  23.584  1.00  0.00    -0.049 C 
ATOM     17  H   UNL A   1      30.197  26.231  22.711  1.00  0.00     0.024 H 
ATOM     18  H   UNL A   1      29.101  26.416  24.058  1.00  0.00     0.024 H 
ATOM     19  H   UNL A   1      29.302  24.853  23.305  1.00  0.00     0.024 H 
ENDBRANCH  14  16
BRANCH  14  20
ATOM     20  C   UNL A   1      31.660  24.089  24.368  1.00  0.00     0.042 A 
ATOM     21  C   UNL A   1      31.201  23.015  25.164  1.00  0.00    -0.051 A 
ATOM     22  C   UNL A   1      32.752  23.805  23.527  1.00  0.00     0.273 A 
ATOM     23  C   UNL A   1      31.767  21.736  25.099  1.00  0.00    -0.058 A 
ATOM     24  H   UNL A   1      30.418  23.178  25.816  1.00  0.00     0.063 H 
ATOM     25  C   UNL A   1      33.360  22.536  23.500  1.00  0.00     0.019 A 
ATOM     26  C   UNL A   1      32.876  21.492  24.290  1.00  0.00    -0.040 A 
ATOM     27  H   UNL A   1      31.361  20.968  25.655  1.00  0.00     0.063 H 
ATOM     28  H   UNL A   1      34.175  22.376  22.888  1.00  0.00     0.070 H 
BRANCH  22  29
ATOM     29  N   UNL A   1      33.324  24.762  22.627  1.00  0.00     0.063 N 
ATOM     30  O   UNL A   1      33.263  24.587  21.428  1.00  0.00    -0.258 OA
ATOM     31  O   UNL A   1      33.833  25.947  23.098  1.00  0.00    -0.258 OA
ENDBRANCH  22  29
BRANCH  26  32
ATOM     32  C   UNL A   1      33.539  20.137  24.259  1.00  0.00    -0.018 C 
ATOM     33  H   UNL A   1      34.021  19.988  25.202  1.00  0.00     0.032 H 
ATOM     34  H   UNL A   1      34.203  20.164  23.421  1.00  0.00     0.032 H 
BRANCH  32  35
ATOM     35  C   UNL A   1      32.621  18.933  24.009  1.00  0.00     0.022 C 
ATOM     36  C   UNL A   1      32.850  18.155  22.709  1.00  0.00    -0.043 C 
ATOM     37  C   UNL A   1      32.784  17.856  25.055  1.00  0.00     0.136 C 
ATOM     38  H   UNL A   1      31.669  19.420  24.001  1.00  0.00     0.039 H 
ATOM     39  C   UNL A   1      33.711  16.952  23.076  1.00  0.00    -0.046 C 
ATOM     40  H   UNL A   1      33.357  18.769  21.994  1.00  0.00     0.027 H 
ATOM     41  H   UNL A   1      31.923  17.851  22.269  1.00  0.00     0.027 H 
ATOM     42  C   UNL A   1      33.273  16.554  24.479  1.00  0.00     0.006 C 
ATOM     43  O   UNL A   1      32.530  18.015  26.244  1.00  0.00    -0.299 OA
ATOM     44  H   UNL A   1      34.747  17.217  23.069  1.00  0.00     0.027 H 
ATOM     45  H   UNL A   1      33.589  16.149  22.380  1.00  0.00     0.027 H 
ATOM     46  H   UNL A   1      34.096  16.167  25.044  1.00  0.00     0.035 H 
ATOM     47  H   UNL A   1      32.534  15.781  24.489  1.00  0.00     0.035 H 
ENDBRANCH  32  35
ENDBRANCH  26  32
ENDBRANCH  14  20
ENDBRANCH  11  14
ENDBRANCH   7  10
ENDBRANCH   4   7
ENDBRANCH   1   4
BRANCH   1  48
ATOM     48  C   UNL A   1      31.403  30.817  26.132  1.00  0.00    -0.052 C 
ATOM     49  H   UNL A   1      30.418  30.419  26.262  1.00  0.00     0.027 H 
ATOM     50  H   UNL A   1      31.747  30.771  25.120  1.00  0.00     0.027 H 
BRANCH  48  51
ATOM     51  C   UNL A   1      31.370  32.301  26.508  1.00  0.00    -0.036 C 
ATOM     52  H   UNL A   1      30.606  32.443  27.243  1.00  0.00     0.028 H 
ATOM     53  H   UNL A   1      31.186  32.839  25.601  1.00  0.00     0.028 H 
BRANCH  51  54
ATOM     54  C   UNL A   1      32.680  32.844  27.073  1.00  0.00     0.018 C 
ATOM     55  H   UNL A   1      33.406  32.882  26.287  1.00  0.00     0.049 H 
ATOM     56  H   UNL A   1      32.999  32.191  27.859  1.00  0.00     0.049 H 
BRANCH  54  57
ATOM     57  N   UNL A   1      32.520  34.176  27.630  1.00  0.00    -0.352 N 
ATOM     58  C   UNL A   1      33.150  34.762  28.697  1.00  0.00     0.251 C 
ATOM     59  H   UNL A   1      31.858  34.743  27.173  1.00  0.00     0.163 HD
ATOM     60  O   UNL A   1      32.726  35.818  29.153  1.00  0.00    -0.269 OA
BRANCH  58  61
ATOM     61  C   UNL A   1      34.335  34.122  29.311  1.00  0.00     0.039 A 
ATOM     62  C   UNL A   1      34.132  33.166  30.311  1.00  0.00    -0.049 A 
ATOM     63  C   UNL A   1      35.633  34.490  28.948  1.00  0.00    -0.049 A 
ATOM     64  C   UNL A   1      35.229  32.550  30.913  1.00  0.00    -0.053 A 
ATOM     65  H   UNL A   1      33.174  32.917  30.601  1.00  0.00     0.063 H 
ATOM     66  C   UNL A   1      36.728  33.829  29.504  1.00  0.00    -0.053 A 
ATOM     67  H   UNL A   1      35.783  35.251  28.266  1.00  0.00     0.063 H 
ATOM     68  C   UNL A   1      36.536  32.859  30.499  1.00  0.00    -0.014 A 
ATOM     69  H   UNL A   1      35.081  31.863  31.669  1.00  0.00     0.063 H 
ATOM     70  H   UNL A   1      37.682  34.055  29.184  1.00  0.00     0.063 H 
BRANCH  68  71
ATOM     71  C   UNL A   1      37.700  32.164  31.105  1.00  0.00     0.031 A 
ATOM     72  C   UNL A   1      38.171  32.524  32.487  1.00  0.00     0.074 A 
ATOM     73  C   UNL A   1      38.349  31.222  30.395  1.00  0.00     0.049 A 
ATOM     74  N   UNL A   1      39.162  32.019  33.180  1.00  0.00    -0.248 NA
ATOM     75  C   UNL A   1      37.447  33.603  33.175  1.00  0.00    -0.034 C 
ATOM     76  C   UNL A   1      38.024  30.828  29.022  1.00  0.00    -0.036 A 
ATOM     77  N   UNL A   1      39.416  30.425  30.725  1.00  0.00    -0.354 N 
ATOM     78  C   UNL A   1      39.177  32.716  34.381  1.00  0.00     0.074 A 
ATOM     79  C   UNL A   1      38.137  33.719  34.301  1.00  0.00    -0.034 C 
ATOM     80  H   UNL A   1      36.618  34.133  32.863  1.00  0.00     0.065 H 
ATOM     81  C   UNL A   1      38.859  29.851  28.637  1.00  0.00    -0.036 A 
ATOM     82  H   UNL A   1      37.273  31.237  28.444  1.00  0.00     0.065 H 
ATOM     83  C   UNL A   1      39.791  29.565  29.723  1.00  0.00     0.049 A 
ATOM     84  H   UNL A   1      39.869  30.467  31.599  1.00  0.00     0.167 HD
ATOM     85  C   UNL A   1      39.967  32.518  35.463  1.00  0.00     0.037 A 
ATOM     86  H   UNL A   1      37.955  34.431  35.026  1.00  0.00     0.065 H 
ATOM     87  H   UNL A   1      38.845  29.377  27.720  1.00  0.00     0.065 H 
ATOM     88  C   UNL A   1      40.775  28.647  29.686  1.00  0.00     0.037 A 
ATOM     89  C   UNL A   1      40.996  31.512  35.545  1.00  0.00     0.049 A 
ATOM     90  C   UNL A   1      41.627  28.437  30.908  1.00  0.00     0.074 A 
ATOM     91  C   UNL A   1      41.829  31.214  36.608  1.00  0.00    -0.036 A 
ATOM     92  N   UNL A   1      41.327  30.639  34.520  1.00  0.00    -0.354 N 
ATOM     93  N   UNL A   1      41.589  29.060  32.060  1.00  0.00    -0.248 NA
ATOM     94  C   UNL A   1      42.650  27.385  30.828  1.00  0.00    -0.034 C 
ATOM     95  C   UNL A   1      42.689  30.181  36.215  1.00  0.00    -0.036 A 
ATOM     96  H   UNL A   1      41.820  31.673  37.532  1.00  0.00     0.065 H 
ATOM     97  C   UNL A   1      42.360  29.808  34.923  1.00  0.00     0.049 A 
ATOM     98  H   UNL A   1      40.893  30.614  33.637  1.00  0.00     0.167 HD
ATOM     99  C   UNL A   1      42.566  28.466  32.848  1.00  0.00     0.074 A 
ATOM    100  C   UNL A   1      43.162  27.413  32.051  1.00  0.00    -0.034 C 
ATOM    101  H   UNL A   1      42.904  26.782  30.030  1.00  0.00     0.065 H 
ATOM    102  H   UNL A   1      43.439  29.769  36.791  1.00  0.00     0.065 H 
ATOM    103  C   UNL A   1      42.941  28.766  34.115  1.00  0.00     0.037 A 
ATOM    104  H   UNL A   1      43.891  26.768  32.391  1.00  0.00     0.065 H 
BRANCH  85 105
ATOM    105  C   UNL A   1      39.739  33.396  36.659  1.00  0.00     0.064 A 
ATOM    106  C   UNL A   1      40.456  34.591  36.833  1.00  0.00     0.173 A 
ATOM    107  C   UNL A   1      38.764  33.072  37.613  1.00  0.00     0.173 A 
ATOM    108  F   UNL A   1      41.408  34.941  35.954  1.00  0.00    -0.203 F 
ATOM    109  C   UNL A   1      40.221  35.415  37.929  1.00  0.00     0.198 A 
ATOM    110  C   UNL A   1      38.512  33.913  38.694  1.00  0.00     0.198 A 
ATOM    111  F   UNL A   1      38.047  31.945  37.492  1.00  0.00    -0.203 F 
ATOM    112  F   UNL A   1      40.946  36.530  38.095  1.00  0.00    -0.200 F 
ATOM    113  C   UNL A   1      39.244  35.080  38.855  1.00  0.00     0.200 A 
ATOM    114  F   UNL A   1      37.560  33.594  39.582  1.00  0.00    -0.200 F 
ATOM    115  F   UNL A   1      39.011  35.880  39.905  1.00  0.00    -0.200 F 
ENDBRANCH  85 105
BRANCH  88 116
ATOM    116  C   UNL A   1      40.990  27.838  28.459  1.00  0.00     0.064 A 
ATOM    117  C   UNL A   1      41.868  28.269  27.454  1.00  0.00     0.173 A 
ATOM    118  C   UNL A   1      40.313  26.626  28.260  1.00  0.00     0.173 A 
ATOM    119  F   UNL A   1      42.524  29.430  27.591  1.00  0.00    -0.203 F 
ATOM    120  C   UNL A   1      42.041  27.530  26.286  1.00  0.00     0.198 A 
ATOM    121  C   UNL A   1      40.510  25.874  27.104  1.00  0.00     0.198 A 
ATOM    122  F   UNL A   1      39.468  26.168  29.194  1.00  0.00    -0.203 F 
ATOM    123  F   UNL A   1      42.848  27.990  25.320  1.00  0.00    -0.200 F 
ATOM    124  C   UNL A   1      41.365  26.331  26.114  1.00  0.00     0.200 A 
ATOM    125  F   UNL A   1      39.866  24.710  26.948  1.00  0.00    -0.200 F 
ATOM    126  F   UNL A   1      41.533  25.622  24.990  1.00  0.00    -0.200 F 
ENDBRANCH  88 116
BRANCH 103 127
ATOM    127  C   UNL A   1      44.034  27.933  34.718  1.00  0.00     0.064 A 
ATOM    128  C   UNL A   1      45.381  28.315  34.628  1.00  0.00     0.173 A 
ATOM    129  C   UNL A   1      43.730  26.749  35.405  1.00  0.00     0.173 A 
ATOM    130  F   UNL A   1      45.724  29.431  33.968  1.00  0.00    -0.203 F 
ATOM    131  C   UNL A   1      46.386  27.523  35.176  1.00  0.00     0.198 A 
ATOM    132  C   UNL A   1      44.735  25.975  35.977  1.00  0.00     0.198 A 
ATOM    133  F   UNL A   1      42.456  26.344  35.525  1.00  0.00    -0.203 F 
ATOM    134  F   UNL A   1      47.670  27.878  35.031  1.00  0.00    -0.200 F 
ATOM    135  C   UNL A   1      46.062  26.357  35.854  1.00  0.00     0.200 A 
ATOM    136  F   UNL A   1      44.420  24.855  36.642  1.00  0.00    -0.200 F 
ATOM    137  F   UNL A   1      47.032  25.596  36.380  1.00  0.00    -0.200 F 
ENDBRANCH 103 127
ENDBRANCH  68  71
ENDBRANCH  58  61
ENDBRANCH  54  57
ENDBRANCH  51  54
ENDBRANCH  48  51
ENDBRANCH   1  48
TORSDOF 18
ENDMDL
MODEL 7
REMARK VINA RESULT:     -11.3      4.652     10.057
REMARK SMILES C[C@@H](C(=O)NCCCCCCNC(=O)c1ccc(-c2c3nc(c(-c4c(F)c(F)c(F)c(F)c4F)c4ccc([nH]4)c(-c4c(F)c(F)c(F)c(F)c4F)c4nc(c(-c5c(F)c(F)c(F)c(F)c5F)c5ccc2[nH]5)C=C4)C=C3)cc1)c1ccc(C[C@H]2CCCC2=O)cc1[N+](=O)[O-]
REMARK SMILES IDX 8 1 7 4 6 7 5 10 3 11 4 12 2 14 1 16 78 20 79 21 90 22 80 23
REMARK SMILES IDX 89 25 81 26 91 29 92 30 93 31 82 32 83 35 84 36 87 37 85 39
REMARK SMILES IDX 86 42 88 43 9 48 10 51 11 54 12 57 13 58 14 60 15 61 16 62
REMARK SMILES IDX 77 63 17 64 76 66 18 68 19 71 20 72 70 73 21 74 75 75 69 76
REMARK SMILES IDX 71 77 22 78 74 79 68 81 67 83 23 85 55 88 35 89 54 90 36 91
REMARK SMILES IDX 39 92 53 93 72 94 37 95 38 97 52 99 73 100 40 103 24 105
REMARK SMILES IDX 25 106 33 107 26 108 27 109 31 110 34 111 28 112 29 113
REMARK SMILES IDX 32 114 30 115 56 116 57 117 65 118 58 119 59 120 63 121
REMARK SMILES IDX 66 122 60 123 61 124 64 125 62 126 41 127 42 128 50 129
REMARK SMILES IDX 43 130 44 131 48 132 51 133 45 134 46 135 49 136 47 137
REMARK H PARENT 8 2 8 3 7 5 7 6 6 8 6 9 5 13 2 15 1 17 1 18 1 19 79 24 80 27
REMARK H PARENT 89 28 82 33 82 34 83 38 84 40 84 41 85 44 85 45 86 46 86 47
REMARK H PARENT 9 49 9 50 10 52 10 53 11 55 11 56 12 59 16 65 77 67 17 69
REMARK H PARENT 76 70 75 80 69 82 71 84 74 86 68 87 36 96 39 98 72 101 37 102
REMARK H PARENT 73 104
REMARK Flexibility Score: inf
ROOT
ATOM      1  C   UNL A   1      35.724  23.026  24.629  1.00  0.00    -0.052 C 
ATOM      2  H   UNL A   1      36.742  23.305  24.453  1.00  0.00     0.027 H 
ATOM      3  H   UNL A   1      35.140  22.979  23.734  1.00  0.00     0.027 H 
ENDROOT
BRANCH   1   4
ATOM      4  C   UNL A   1      35.079  24.103  25.510  1.00  0.00    -0.036 C 
ATOM      5  H   UNL A   1      34.341  23.635  26.129  1.00  0.00     0.028 H 
ATOM      6  H   UNL A   1      35.866  24.551  26.079  1.00  0.00     0.028 H 
BRANCH   4   7
ATOM      7  C   UNL A   1      34.402  25.227  24.717  1.00  0.00     0.017 C 
ATOM      8  H   UNL A   1      35.120  25.990  24.498  1.00  0.00     0.049 H 
ATOM      9  H   UNL A   1      34.010  24.833  23.804  1.00  0.00     0.049 H 
BRANCH   7  10
ATOM     10  N   UNL A   1      33.323  25.791  25.501  1.00  0.00    -0.356 N 
ATOM     11  C   UNL A   1      32.004  25.934  25.177  1.00  0.00     0.227 C 
ATOM     12  O   UNL A   1      31.372  26.782  25.811  1.00  0.00    -0.274 OA
ATOM     13  H   UNL A   1      33.577  26.119  26.394  1.00  0.00     0.163 HD
BRANCH  11  14
ATOM     14  C   UNL A   1      31.355  25.010  24.117  1.00  0.00     0.067 C 
ATOM     15  H   UNL A   1      31.794  25.162  23.153  1.00  0.00     0.045 H 
BRANCH  14  16
ATOM     16  C   UNL A   1      29.887  25.392  23.926  1.00  0.00    -0.049 C 
ATOM     17  H   UNL A   1      29.742  26.410  24.222  1.00  0.00     0.024 H 
ATOM     18  H   UNL A   1      29.272  24.755  24.527  1.00  0.00     0.024 H 
ATOM     19  H   UNL A   1      29.620  25.277  22.897  1.00  0.00     0.024 H 
ENDBRANCH  14  16
BRANCH  14  20
ATOM     20  C   UNL A   1      31.667  23.527  24.395  1.00  0.00     0.042 A 
ATOM     21  C   UNL A   1      32.139  22.768  23.300  1.00  0.00    -0.051 A 
ATOM     22  C   UNL A   1      31.505  22.824  25.604  1.00  0.00     0.273 A 
ATOM     23  C   UNL A   1      32.461  21.410  23.410  1.00  0.00    -0.058 A 
ATOM     24  H   UNL A   1      32.251  23.232  22.385  1.00  0.00     0.063 H 
ATOM     25  C   UNL A   1      31.775  21.446  25.704  1.00  0.00     0.019 A 
ATOM     26  C   UNL A   1      32.249  20.726  24.607  1.00  0.00    -0.040 A 
ATOM     27  H   UNL A   1      32.857  20.911  22.599  1.00  0.00     0.063 H 
ATOM     28  H   UNL A   1      31.618  20.962  26.601  1.00  0.00     0.070 H 
BRANCH  22  29
ATOM     29  N   UNL A   1      31.073  23.440  26.823  1.00  0.00     0.063 N 
ATOM     30  O   UNL A   1      31.887  23.843  27.627  1.00  0.00    -0.258 OA
ATOM     31  O   UNL A   1      29.742  23.699  27.041  1.00  0.00    -0.258 OA
ENDBRANCH  22  29
BRANCH  26  32
ATOM     32  C   UNL A   1      32.529  19.248  24.723  1.00  0.00    -0.018 C 
ATOM     33  H   UNL A   1      31.642  18.724  24.433  1.00  0.00     0.032 H 
ATOM     34  H   UNL A   1      32.823  19.093  25.740  1.00  0.00     0.032 H 
BRANCH  32  35
ATOM     35  C   UNL A   1      33.688  18.703  23.879  1.00  0.00     0.022 C 
ATOM     36  C   UNL A   1      34.856  18.071  24.645  1.00  0.00    -0.043 C 
ATOM     37  C   UNL A   1      33.261  17.577  22.967  1.00  0.00     0.136 C 
ATOM     38  H   UNL A   1      33.998  19.598  23.382  1.00  0.00     0.039 H 
ATOM     39  C   UNL A   1      34.618  16.566  24.619  1.00  0.00    -0.046 C 
ATOM     40  H   UNL A   1      34.872  18.426  25.654  1.00  0.00     0.027 H 
ATOM     41  H   UNL A   1      35.795  18.324  24.201  1.00  0.00     0.027 H 
ATOM     42  C   UNL A   1      33.964  16.282  23.274  1.00  0.00     0.006 C 
ATOM     43  O   UNL A   1      32.442  17.704  22.064  1.00  0.00    -0.299 OA
ATOM     44  H   UNL A   1      33.970  16.274  25.419  1.00  0.00     0.027 H 
ATOM     45  H   UNL A   1      35.529  16.017  24.740  1.00  0.00     0.027 H 
ATOM     46  H   UNL A   1      33.266  15.473  23.348  1.00  0.00     0.035 H 
ATOM     47  H   UNL A   1      34.660  15.987  22.517  1.00  0.00     0.035 H 
ENDBRANCH  32  35
ENDBRANCH  26  32
ENDBRANCH  14  20
ENDBRANCH  11  14
ENDBRANCH   7  10
ENDBRANCH   4   7
ENDBRANCH   1   4
BRANCH   1  48
ATOM     48  C   UNL A   1      35.713  21.618  25.227  1.00  0.00    -0.052 C 
ATOM     49  H   UNL A   1      34.868  21.094  24.830  1.00  0.00     0.027 H 
ATOM     50  H   UNL A   1      35.672  21.741  26.289  1.00  0.00     0.027 H 
BRANCH  48  51
ATOM     51  C   UNL A   1      36.966  20.787  24.938  1.00  0.00    -0.036 C 
ATOM     52  H   UNL A   1      37.016  20.612  23.884  1.00  0.00     0.028 H 
ATOM     53  H   UNL A   1      36.872  19.887  25.510  1.00  0.00     0.028 H 
BRANCH  51  54
ATOM     54  C   UNL A   1      38.276  21.440  25.374  1.00  0.00     0.018 C 
ATOM     55  H   UNL A   1      38.052  22.297  25.975  1.00  0.00     0.049 H 
ATOM     56  H   UNL A   1      38.817  21.718  24.494  1.00  0.00     0.049 H 
BRANCH  54  57
ATOM     57  N   UNL A   1      39.105  20.529  26.144  1.00  0.00    -0.352 N 
ATOM     58  C   UNL A   1      40.267  20.769  26.831  1.00  0.00     0.251 C 
ATOM     59  H   UNL A   1      38.784  19.598  26.177  1.00  0.00     0.163 HD
ATOM     60  O   UNL A   1      40.941  19.829  27.239  1.00  0.00    -0.269 OA
BRANCH  58  61
ATOM     61  C   UNL A   1      40.721  22.156  27.074  1.00  0.00     0.039 A 
ATOM     62  C   UNL A   1      41.660  22.381  28.085  1.00  0.00    -0.049 A 
ATOM     63  C   UNL A   1      40.197  23.232  26.353  1.00  0.00    -0.049 A 
ATOM     64  C   UNL A   1      42.103  23.678  28.343  1.00  0.00    -0.053 A 
ATOM     65  H   UNL A   1      42.024  21.590  28.638  1.00  0.00     0.063 H 
ATOM     66  C   UNL A   1      40.687  24.521  26.568  1.00  0.00    -0.053 A 
ATOM     67  H   UNL A   1      39.448  23.074  25.661  1.00  0.00     0.063 H 
ATOM     68  C   UNL A   1      41.638  24.756  27.571  1.00  0.00    -0.014 A 
ATOM     69  H   UNL A   1      42.777  23.848  29.106  1.00  0.00     0.063 H 
ATOM     70  H   UNL A   1      40.347  25.303  25.987  1.00  0.00     0.063 H 
BRANCH  68  71
ATOM     71  C   UNL A   1      42.150  26.129  27.812  1.00  0.00     0.031 A 
ATOM     72  C   UNL A   1      43.503  26.541  27.303  1.00  0.00     0.074 A 
ATOM     73  C   UNL A   1      41.400  26.999  28.515  1.00  0.00     0.049 A 
ATOM     74  N   UNL A   1      44.111  27.697  27.411  1.00  0.00    -0.248 NA
ATOM     75  C   UNL A   1      44.287  25.517  26.596  1.00  0.00    -0.034 C 
ATOM     76  C   UNL A   1      40.097  26.698  29.112  1.00  0.00    -0.036 A 
ATOM     77  N   UNL A   1      41.623  28.310  28.849  1.00  0.00    -0.354 N 
ATOM     78  C   UNL A   1      45.341  27.539  26.785  1.00  0.00     0.074 A 
ATOM     79  C   UNL A   1      45.420  26.160  26.353  1.00  0.00    -0.034 C 
ATOM     80  H   UNL A   1      44.023  24.549  26.352  1.00  0.00     0.065 H 
ATOM     81  C   UNL A   1      39.628  27.799  29.720  1.00  0.00    -0.036 A 
ATOM     82  H   UNL A   1      39.617  25.785  29.073  1.00  0.00     0.065 H 
ATOM     83  C   UNL A   1      40.604  28.874  29.576  1.00  0.00     0.049 A 
ATOM     84  H   UNL A   1      42.438  28.801  28.591  1.00  0.00     0.167 HD
ATOM     85  C   UNL A   1      46.302  28.467  26.566  1.00  0.00     0.037 A 
ATOM     86  H   UNL A   1      46.250  25.734  25.912  1.00  0.00     0.065 H 
ATOM     87  H   UNL A   1      38.723  27.873  30.210  1.00  0.00     0.065 H 
ATOM     88  C   UNL A   1      40.471  30.120  30.068  1.00  0.00     0.037 A 
ATOM     89  C   UNL A   1      46.218  29.841  26.988  1.00  0.00     0.049 A 
ATOM     90  C   UNL A   1      41.548  31.134  29.796  1.00  0.00     0.074 A 
ATOM     91  C   UNL A   1      47.127  30.864  26.788  1.00  0.00    -0.036 A 
ATOM     92  N   UNL A   1      45.155  30.383  27.697  1.00  0.00    -0.354 N 
ATOM     93  N   UNL A   1      42.678  30.988  29.147  1.00  0.00    -0.248 NA
ATOM     94  C   UNL A   1      41.323  32.491  30.312  1.00  0.00    -0.034 C 
ATOM     95  C   UNL A   1      46.631  32.019  27.404  1.00  0.00    -0.036 A 
ATOM     96  H   UNL A   1      48.018  30.790  26.273  1.00  0.00     0.065 H 
ATOM     97  C   UNL A   1      45.392  31.725  27.950  1.00  0.00     0.049 A 
ATOM     98  H   UNL A   1      44.353  29.888  27.978  1.00  0.00     0.167 HD
ATOM     99  C   UNL A   1      43.289  32.235  29.161  1.00  0.00     0.074 A 
ATOM    100  C   UNL A   1      42.392  33.133  29.858  1.00  0.00    -0.034 C 
ATOM    101  H   UNL A   1      40.541  32.853  30.879  1.00  0.00     0.065 H 
ATOM    102  H   UNL A   1      47.107  32.934  27.445  1.00  0.00     0.065 H 
ATOM    103  C   UNL A   1      44.488  32.603  28.647  1.00  0.00     0.037 A 
ATOM    104  H   UNL A   1      42.562  34.142  29.985  1.00  0.00     0.065 H 
BRANCH  85 105
ATOM    105  C   UNL A   1      47.529  28.031  25.817  1.00  0.00     0.064 A 
ATOM    106  C   UNL A   1      48.713  27.695  26.492  1.00  0.00     0.173 A 
ATOM    107  C   UNL A   1      47.508  27.899  24.421  1.00  0.00     0.173 A 
ATOM    108  F   UNL A   1      48.787  27.814  27.825  1.00  0.00    -0.203 F 
ATOM    109  C   UNL A   1      49.838  27.265  25.794  1.00  0.00     0.198 A 
ATOM    110  C   UNL A   1      48.627  27.443  23.729  1.00  0.00     0.198 A 
ATOM    111  F   UNL A   1      46.401  28.202  23.728  1.00  0.00    -0.203 F 
ATOM    112  F   UNL A   1      50.970  26.988  26.455  1.00  0.00    -0.200 F 
ATOM    113  C   UNL A   1      49.792  27.131  24.414  1.00  0.00     0.200 A 
ATOM    114  F   UNL A   1      48.578  27.303  22.396  1.00  0.00    -0.200 F 
ATOM    115  F   UNL A   1      50.873  26.707  23.744  1.00  0.00    -0.200 F 
ENDBRANCH  85 105
BRANCH  88 116
ATOM    116  C   UNL A   1      39.260  30.485  30.846  1.00  0.00     0.064 A 
ATOM    117  C   UNL A   1      38.138  31.045  30.219  1.00  0.00     0.173 A 
ATOM    118  C   UNL A   1      39.203  30.294  32.235  1.00  0.00     0.173 A 
ATOM    119  F   UNL A   1      38.151  31.264  28.896  1.00  0.00    -0.203 F 
ATOM    120  C   UNL A   1      37.016  31.422  30.953  1.00  0.00     0.198 A 
ATOM    121  C   UNL A   1      38.069  30.645  32.963  1.00  0.00     0.198 A 
ATOM    122  F   UNL A   1      40.248  29.756  32.881  1.00  0.00    -0.203 F 
ATOM    123  F   UNL A   1      35.978  32.001  30.335  1.00  0.00    -0.200 F 
ATOM    124  C   UNL A   1      36.981  31.218  32.324  1.00  0.00     0.200 A 
ATOM    125  F   UNL A   1      38.035  30.433  34.286  1.00  0.00    -0.200 F 
ATOM    126  F   UNL A   1      35.902  31.581  33.030  1.00  0.00    -0.200 F 
ENDBRANCH  88 116
BRANCH 103 127
ATOM    127  C   UNL A   1      44.885  34.042  28.807  1.00  0.00     0.064 A 
ATOM    128  C   UNL A   1      45.637  34.475  29.909  1.00  0.00     0.173 A 
ATOM    129  C   UNL A   1      44.522  34.992  27.842  1.00  0.00     0.173 A 
ATOM    130  F   UNL A   1      45.995  33.607  30.867  1.00  0.00    -0.203 F 
ATOM    131  C   UNL A   1      45.983  35.816  30.054  1.00  0.00     0.198 A 
ATOM    132  C   UNL A   1      44.895  36.327  27.976  1.00  0.00     0.198 A 
ATOM    133  F   UNL A   1      43.808  34.626  26.766  1.00  0.00    -0.203 F 
ATOM    134  F   UNL A   1      46.654  36.219  31.142  1.00  0.00    -0.200 F 
ATOM    135  C   UNL A   1      45.616  36.739  29.086  1.00  0.00     0.200 A 
ATOM    136  F   UNL A   1      44.549  37.215  27.034  1.00  0.00    -0.200 F 
ATOM    137  F   UNL A   1      45.949  38.030  29.229  1.00  0.00    -0.200 F 
ENDBRANCH 103 127
ENDBRANCH  68  71
ENDBRANCH  58  61
ENDBRANCH  54  57
ENDBRANCH  51  54
ENDBRANCH  48  51
ENDBRANCH   1  48
TORSDOF 18
ENDMDL
MODEL 8
REMARK VINA RESULT:     -11.3      4.733      8.350
REMARK SMILES C[C@@H](C(=O)NCCCCCCNC(=O)c1ccc(-c2c3nc(c(-c4c(F)c(F)c(F)c(F)c4F)c4ccc([nH]4)c(-c4c(F)c(F)c(F)c(F)c4F)c4nc(c(-c5c(F)c(F)c(F)c(F)c5F)c5ccc2[nH]5)C=C4)C=C3)cc1)c1ccc(C[C@H]2CCCC2=O)cc1[N+](=O)[O-]
REMARK SMILES IDX 8 1 7 4 6 7 5 10 3 11 4 12 2 14 1 16 78 20 79 21 90 22 80 23
REMARK SMILES IDX 89 25 81 26 91 29 92 30 93 31 82 32 83 35 84 36 87 37 85 39
REMARK SMILES IDX 86 42 88 43 9 48 10 51 11 54 12 57 13 58 14 60 15 61 16 62
REMARK SMILES IDX 77 63 17 64 76 66 18 68 19 71 20 72 70 73 21 74 75 75 69 76
REMARK SMILES IDX 71 77 22 78 74 79 68 81 67 83 23 85 55 88 35 89 54 90 36 91
REMARK SMILES IDX 39 92 53 93 72 94 37 95 38 97 52 99 73 100 40 103 24 105
REMARK SMILES IDX 25 106 33 107 26 108 27 109 31 110 34 111 28 112 29 113
REMARK SMILES IDX 32 114 30 115 56 116 57 117 65 118 58 119 59 120 63 121
REMARK SMILES IDX 66 122 60 123 61 124 64 125 62 126 41 127 42 128 50 129
REMARK SMILES IDX 43 130 44 131 48 132 51 133 45 134 46 135 49 136 47 137
REMARK H PARENT 8 2 8 3 7 5 7 6 6 8 6 9 5 13 2 15 1 17 1 18 1 19 79 24 80 27
REMARK H PARENT 89 28 82 33 82 34 83 38 84 40 84 41 85 44 85 45 86 46 86 47
REMARK H PARENT 9 49 9 50 10 52 10 53 11 55 11 56 12 59 16 65 77 67 17 69
REMARK H PARENT 76 70 75 80 69 82 71 84 74 86 68 87 36 96 39 98 72 101 37 102
REMARK H PARENT 73 104
REMARK Flexibility Score: inf
ROOT
ATOM      1  C   UNL A   1      36.407  21.807  24.491  1.00  0.00    -0.052 C 
ATOM      2  H   UNL A   1      37.401  22.094  24.217  1.00  0.00     0.027 H 
ATOM      3  H   UNL A   1      35.725  21.814  23.667  1.00  0.00     0.027 H 
ENDROOT
BRANCH   1   4
ATOM      4  C   UNL A   1      35.876  22.828  25.504  1.00  0.00    -0.036 C 
ATOM      5  H   UNL A   1      35.030  22.401  26.002  1.00  0.00     0.028 H 
ATOM      6  H   UNL A   1      36.679  23.048  26.175  1.00  0.00     0.028 H 
BRANCH   4   7
ATOM      7  C   UNL A   1      35.443  24.157  24.872  1.00  0.00     0.017 C 
ATOM      8  H   UNL A   1      36.311  24.727  24.611  1.00  0.00     0.049 H 
ATOM      9  H   UNL A   1      34.866  23.962  23.993  1.00  0.00     0.049 H 
BRANCH   7  10
ATOM     10  N   UNL A   1      34.642  24.905  25.819  1.00  0.00    -0.356 N 
ATOM     11  C   UNL A   1      33.437  25.519  25.634  1.00  0.00     0.227 C 
ATOM     12  O   UNL A   1      33.147  26.411  26.434  1.00  0.00    -0.274 OA
ATOM     13  H   UNL A   1      35.021  24.982  26.724  1.00  0.00     0.163 HD
BRANCH  11  14
ATOM     14  C   UNL A   1      32.480  25.043  24.513  1.00  0.00     0.067 C 
ATOM     15  H   UNL A   1      32.853  25.314  23.547  1.00  0.00     0.045 H 
BRANCH  14  16
ATOM     16  C   UNL A   1      31.145  25.780  24.622  1.00  0.00    -0.049 C 
ATOM     17  H   UNL A   1      30.403  25.260  24.054  1.00  0.00     0.024 H 
ATOM     18  H   UNL A   1      31.254  26.774  24.242  1.00  0.00     0.024 H 
ATOM     19  H   UNL A   1      30.844  25.822  25.648  1.00  0.00     0.024 H 
ENDBRANCH  14  16
BRANCH  14  20
ATOM     20  C   UNL A   1      32.431  23.505  24.430  1.00  0.00     0.042 A 
ATOM     21  C   UNL A   1      32.740  22.932  23.175  1.00  0.00    -0.051 A 
ATOM     22  C   UNL A   1      32.079  22.598  25.448  1.00  0.00     0.273 A 
ATOM     23  C   UNL A   1      32.733  21.550  22.959  1.00  0.00    -0.058 A 
ATOM     24  H   UNL A   1      32.980  23.557  22.390  1.00  0.00     0.063 H 
ATOM     25  C   UNL A   1      32.017  21.210  25.219  1.00  0.00     0.019 A 
ATOM     26  C   UNL A   1      32.338  20.675  23.970  1.00  0.00    -0.040 A 
ATOM     27  H   UNL A   1      33.022  21.174  22.043  1.00  0.00     0.063 H 
ATOM     28  H   UNL A   1      31.730  20.581  25.984  1.00  0.00     0.070 H 
BRANCH  22  29
ATOM     29  N   UNL A   1      31.772  22.997  26.789  1.00  0.00     0.063 N 
ATOM     30  O   UNL A   1      32.639  23.008  27.638  1.00  0.00    -0.258 OA
ATOM     31  O   UNL A   1      30.531  23.493  27.103  1.00  0.00    -0.258 OA
ENDBRANCH  22  29
BRANCH  26  32
ATOM     32  C   UNL A   1      32.263  19.187  23.733  1.00  0.00    -0.018 C 
ATOM     33  H   UNL A   1      32.326  19.021  22.678  1.00  0.00     0.032 H 
ATOM     34  H   UNL A   1      31.341  18.874  24.176  1.00  0.00     0.032 H 
BRANCH  32  35
ATOM     35  C   UNL A   1      33.345  18.332  24.404  1.00  0.00     0.022 C 
ATOM     36  C   UNL A   1      33.050  17.846  25.827  1.00  0.00    -0.043 C 
ATOM     37  C   UNL A   1      33.595  17.034  23.672  1.00  0.00     0.136 C 
ATOM     38  H   UNL A   1      34.163  19.022  24.398  1.00  0.00     0.039 H 
ATOM     39  C   UNL A   1      32.530  16.420  25.692  1.00  0.00    -0.046 C 
ATOM     40  H   UNL A   1      32.309  18.468  26.285  1.00  0.00     0.027 H 
ATOM     41  H   UNL A   1      33.925  17.885  26.442  1.00  0.00     0.027 H 
ATOM     42  C   UNL A   1      33.284  15.824  24.511  1.00  0.00     0.006 C 
ATOM     43  O   UNL A   1      34.019  16.970  22.524  1.00  0.00    -0.299 OA
ATOM     44  H   UNL A   1      31.478  16.420  25.503  1.00  0.00     0.027 H 
ATOM     45  H   UNL A   1      32.685  15.854  26.587  1.00  0.00     0.027 H 
ATOM     46  H   UNL A   1      32.671  15.129  23.974  1.00  0.00     0.035 H 
ATOM     47  H   UNL A   1      34.154  15.271  24.798  1.00  0.00     0.035 H 
ENDBRANCH  32  35
ENDBRANCH  26  32
ENDBRANCH  14  20
ENDBRANCH  11  14
ENDBRANCH   7  10
ENDBRANCH   4   7
ENDBRANCH   1   4
BRANCH   1  48
ATOM     48  C   UNL A   1      36.453  20.364  25.001  1.00  0.00    -0.052 C 
ATOM     49  H   UNL A   1      35.712  19.801  24.473  1.00  0.00     0.027 H 
ATOM     50  H   UNL A   1      36.276  20.411  26.055  1.00  0.00     0.027 H 
BRANCH  48  51
ATOM     51  C   UNL A   1      37.802  19.663  24.821  1.00  0.00    -0.036 C 
ATOM     52  H   UNL A   1      38.106  19.779  23.802  1.00  0.00     0.028 H 
ATOM     53  H   UNL A   1      37.651  18.640  25.101  1.00  0.00     0.028 H 
BRANCH  51  54
ATOM     54  C   UNL A   1      38.919  20.194  25.714  1.00  0.00     0.018 C 
ATOM     55  H   UNL A   1      38.512  20.428  26.676  1.00  0.00     0.049 H 
ATOM     56  H   UNL A   1      39.331  21.065  25.249  1.00  0.00     0.049 H 
BRANCH  54  57
ATOM     57  N   UNL A   1      39.988  19.224  25.881  1.00  0.00    -0.352 N 
ATOM     58  C   UNL A   1      41.329  19.422  26.083  1.00  0.00     0.251 C 
ATOM     59  H   UNL A   1      39.706  18.281  25.840  1.00  0.00     0.163 HD
ATOM     60  O   UNL A   1      42.109  18.481  25.982  1.00  0.00    -0.269 OA
BRANCH  58  61
ATOM     61  C   UNL A   1      41.846  20.769  26.415  1.00  0.00     0.039 A 
ATOM     62  C   UNL A   1      42.092  21.663  25.368  1.00  0.00    -0.049 A 
ATOM     63  C   UNL A   1      42.133  21.136  27.732  1.00  0.00    -0.049 A 
ATOM     64  C   UNL A   1      42.585  22.938  25.648  1.00  0.00    -0.053 A 
ATOM     65  H   UNL A   1      41.909  21.381  24.393  1.00  0.00     0.063 H 
ATOM     66  C   UNL A   1      42.566  22.432  28.017  1.00  0.00    -0.053 A 
ATOM     67  H   UNL A   1      42.025  20.450  28.495  1.00  0.00     0.063 H 
ATOM     68  C   UNL A   1      42.804  23.341  26.976  1.00  0.00    -0.014 A 
ATOM     69  H   UNL A   1      42.791  23.589  24.875  1.00  0.00     0.063 H 
ATOM     70  H   UNL A   1      42.712  22.721  28.996  1.00  0.00     0.063 H 
BRANCH  68  71
ATOM     71  C   UNL A   1      43.279  24.716  27.275  1.00  0.00     0.031 A 
ATOM     72  C   UNL A   1      42.341  25.742  27.849  1.00  0.00     0.074 A 
ATOM     73  C   UNL A   1      44.556  25.046  27.004  1.00  0.00     0.049 A 
ATOM     74  N   UNL A   1      42.580  26.987  28.180  1.00  0.00    -0.248 NA
ATOM     75  C   UNL A   1      40.947  25.322  28.061  1.00  0.00    -0.034 C 
ATOM     76  C   UNL A   1      45.545  24.156  26.392  1.00  0.00    -0.036 A 
ATOM     77  N   UNL A   1      45.242  26.216  27.206  1.00  0.00    -0.354 N 
ATOM     78  C   UNL A   1      41.372  27.495  28.640  1.00  0.00     0.074 A 
ATOM     79  C   UNL A   1      40.388  26.445  28.490  1.00  0.00    -0.034 C 
ATOM     80  H   UNL A   1      40.517  24.395  27.914  1.00  0.00     0.065 H 
ATOM     81  C   UNL A   1      46.715  24.805  26.288  1.00  0.00    -0.036 A 
ATOM     82  H   UNL A   1      45.370  23.185  26.088  1.00  0.00     0.065 H 
ATOM     83  C   UNL A   1      46.554  26.161  26.804  1.00  0.00     0.049 A 
ATOM     84  H   UNL A   1      44.833  27.020  27.602  1.00  0.00     0.167 HD
ATOM     85  C   UNL A   1      41.115  28.715  29.167  1.00  0.00     0.037 A 
ATOM     86  H   UNL A   1      39.382  26.555  28.692  1.00  0.00     0.065 H 
ATOM     87  H   UNL A   1      47.588  24.409  25.906  1.00  0.00     0.065 H 
ATOM     88  C   UNL A   1      47.519  27.099  26.850  1.00  0.00     0.037 A 
ATOM     89  C   UNL A   1      42.098  29.756  29.326  1.00  0.00     0.049 A 
ATOM     90  C   UNL A   1      47.209  28.441  27.454  1.00  0.00     0.074 A 
ATOM     91  C   UNL A   1      41.941  31.016  29.875  1.00  0.00    -0.036 A 
ATOM     92  N   UNL A   1      43.424  29.653  28.934  1.00  0.00    -0.354 N 
ATOM     93  N   UNL A   1      46.078  28.886  27.945  1.00  0.00    -0.248 NA
ATOM     94  C   UNL A   1      48.315  29.405  27.525  1.00  0.00    -0.034 C 
ATOM     95  C   UNL A   1      43.166  31.689  29.786  1.00  0.00    -0.036 A 
ATOM     96  H   UNL A   1      41.072  31.396  30.281  1.00  0.00     0.065 H 
ATOM     97  C   UNL A   1      44.095  30.831  29.221  1.00  0.00     0.049 A 
ATOM     98  H   UNL A   1      43.829  28.860  28.514  1.00  0.00     0.167 HD
ATOM     99  C   UNL A   1      46.340  30.172  28.399  1.00  0.00     0.074 A 
ATOM    100  C   UNL A   1      47.744  30.425  28.151  1.00  0.00    -0.034 C 
ATOM    101  H   UNL A   1      49.284  29.314  27.180  1.00  0.00     0.065 H 
ATOM    102  H   UNL A   1      43.345  32.659  30.090  1.00  0.00     0.065 H 
ATOM    103  C   UNL A   1      45.493  31.066  28.965  1.00  0.00     0.037 A 
ATOM    104  H   UNL A   1      48.236  31.289  28.425  1.00  0.00     0.065 H 
BRANCH  85 105
ATOM    105  C   UNL A   1      39.713  28.989  29.632  1.00  0.00     0.064 A 
ATOM    106  C   UNL A   1      38.737  29.479  28.750  1.00  0.00     0.173 A 
ATOM    107  C   UNL A   1      39.327  28.714  30.951  1.00  0.00     0.173 A 
ATOM    108  F   UNL A   1      39.058  29.769  27.481  1.00  0.00    -0.203 F 
ATOM    109  C   UNL A   1      37.432  29.705  29.180  1.00  0.00     0.198 A 
ATOM    110  C   UNL A   1      38.014  28.914  31.370  1.00  0.00     0.198 A 
ATOM    111  F   UNL A   1      40.219  28.239  31.833  1.00  0.00    -0.203 F 
ATOM    112  F   UNL A   1      36.527  30.212  28.331  1.00  0.00    -0.200 F 
ATOM    113  C   UNL A   1      37.069  29.415  30.486  1.00  0.00     0.200 A 
ATOM    114  F   UNL A   1      37.662  28.623  32.630  1.00  0.00    -0.200 F 
ATOM    115  F   UNL A   1      35.810  29.623  30.896  1.00  0.00    -0.200 F 
ENDBRANCH  85 105
BRANCH  88 116
ATOM    116  C   UNL A   1      48.876  26.792  26.330  1.00  0.00     0.064 A 
ATOM    117  C   UNL A   1      49.230  27.095  25.008  1.00  0.00     0.173 A 
ATOM    118  C   UNL A   1      49.843  26.178  27.141  1.00  0.00     0.173 A 
ATOM    119  F   UNL A   1      48.334  27.665  24.189  1.00  0.00    -0.203 F 
ATOM    120  C   UNL A   1      50.491  26.773  24.509  1.00  0.00     0.198 A 
ATOM    121  C   UNL A   1      51.112  25.884  26.648  1.00  0.00     0.198 A 
ATOM    122  F   UNL A   1      49.556  25.875  28.415  1.00  0.00    -0.203 F 
ATOM    123  F   UNL A   1      50.785  27.028  23.227  1.00  0.00    -0.200 F 
ATOM    124  C   UNL A   1      51.432  26.172  25.331  1.00  0.00     0.200 A 
ATOM    125  F   UNL A   1      52.023  25.316  27.450  1.00  0.00    -0.200 F 
ATOM    126  F   UNL A   1      52.644  25.862  24.850  1.00  0.00    -0.200 F 
ENDBRANCH  88 116
BRANCH 103 127
ATOM    127  C   UNL A   1      46.071  32.390  29.369  1.00  0.00     0.064 A 
ATOM    128  C   UNL A   1      46.042  33.496  28.506  1.00  0.00     0.173 A 
ATOM    129  C   UNL A   1      46.645  32.560  30.637  1.00  0.00     0.173 A 
ATOM    130  F   UNL A   1      45.517  33.380  27.277  1.00  0.00    -0.203 F 
ATOM    131  C   UNL A   1      46.599  34.714  28.887  1.00  0.00     0.198 A 
ATOM    132  C   UNL A   1      47.175  33.787  31.025  1.00  0.00     0.198 A 
ATOM    133  F   UNL A   1      46.691  31.535  31.502  1.00  0.00    -0.203 F 
ATOM    134  F   UNL A   1      46.611  35.741  28.026  1.00  0.00    -0.200 F 
ATOM    135  C   UNL A   1      47.160  34.860  30.147  1.00  0.00     0.200 A 
ATOM    136  F   UNL A   1      47.706  33.930  32.247  1.00  0.00    -0.200 F 
ATOM    137  F   UNL A   1      47.695  36.034  30.511  1.00  0.00    -0.200 F 
ENDBRANCH 103 127
ENDBRANCH  68  71
ENDBRANCH  58  61
ENDBRANCH  54  57
ENDBRANCH  51  54
ENDBRANCH  48  51
ENDBRANCH   1  48
TORSDOF 18
ENDMDL
MODEL 9
REMARK VINA RESULT:     -11.2      3.935      8.393
REMARK SMILES C[C@@H](C(=O)NCCCCCCNC(=O)c1ccc(-c2c3nc(c(-c4c(F)c(F)c(F)c(F)c4F)c4ccc([nH]4)c(-c4c(F)c(F)c(F)c(F)c4F)c4nc(c(-c5c(F)c(F)c(F)c(F)c5F)c5ccc2[nH]5)C=C4)C=C3)cc1)c1ccc(C[C@H]2CCCC2=O)cc1[N+](=O)[O-]
REMARK SMILES IDX 8 1 7 4 6 7 5 10 3 11 4 12 2 14 1 16 78 20 79 21 90 22 80 23
REMARK SMILES IDX 89 25 81 26 91 29 92 30 93 31 82 32 83 35 84 36 87 37 85 39
REMARK SMILES IDX 86 42 88 43 9 48 10 51 11 54 12 57 13 58 14 60 15 61 16 62
REMARK SMILES IDX 77 63 17 64 76 66 18 68 19 71 20 72 70 73 21 74 75 75 69 76
REMARK SMILES IDX 71 77 22 78 74 79 68 81 67 83 23 85 55 88 35 89 54 90 36 91
REMARK SMILES IDX 39 92 53 93 72 94 37 95 38 97 52 99 73 100 40 103 24 105
REMARK SMILES IDX 25 106 33 107 26 108 27 109 31 110 34 111 28 112 29 113
REMARK SMILES IDX 32 114 30 115 56 116 57 117 65 118 58 119 59 120 63 121
REMARK SMILES IDX 66 122 60 123 61 124 64 125 62 126 41 127 42 128 50 129
REMARK SMILES IDX 43 130 44 131 48 132 51 133 45 134 46 135 49 136 47 137
REMARK H PARENT 8 2 8 3 7 5 7 6 6 8 6 9 5 13 2 15 1 17 1 18 1 19 79 24 80 27
REMARK H PARENT 89 28 82 33 82 34 83 38 84 40 84 41 85 44 85 45 86 46 86 47
REMARK H PARENT 9 49 9 50 10 52 10 53 11 55 11 56 12 59 16 65 77 67 17 69
REMARK H PARENT 76 70 75 80 69 82 71 84 74 86 68 87 36 96 39 98 72 101 37 102
REMARK H PARENT 73 104
REMARK Flexibility Score: inf
ROOT
ATOM      1  C   UNL A   1      33.509  21.301  26.416  1.00  0.00    -0.052 C 
ATOM      2  H   UNL A   1      33.192  21.047  27.406  1.00  0.00     0.027 H 
ATOM      3  H   UNL A   1      32.949  22.106  25.988  1.00  0.00     0.027 H 
ENDROOT
BRANCH   1   4
ATOM      4  C   UNL A   1      33.278  20.084  25.512  1.00  0.00    -0.036 C 
ATOM      5  H   UNL A   1      34.231  19.698  25.215  1.00  0.00     0.028 H 
ATOM      6  H   UNL A   1      32.709  19.378  26.080  1.00  0.00     0.028 H 
BRANCH   4   7
ATOM      7  C   UNL A   1      32.469  20.398  24.248  1.00  0.00     0.017 C 
ATOM      8  H   UNL A   1      32.354  19.505  23.668  1.00  0.00     0.049 H 
ATOM      9  H   UNL A   1      31.505  20.770  24.525  1.00  0.00     0.049 H 
BRANCH   7  10
ATOM     10  N   UNL A   1      33.164  21.397  23.463  1.00  0.00    -0.356 N 
ATOM     11  C   UNL A   1      32.738  22.632  23.067  1.00  0.00     0.227 C 
ATOM     12  O   UNL A   1      33.316  23.127  22.097  1.00  0.00    -0.274 OA
ATOM     13  H   UNL A   1      34.072  21.150  23.174  1.00  0.00     0.163 HD
BRANCH  11  14
ATOM     14  C   UNL A   1      31.636  23.373  23.865  1.00  0.00     0.067 C 
ATOM     15  H   UNL A   1      31.262  22.764  24.661  1.00  0.00     0.045 H 
BRANCH  14  16
ATOM     16  C   UNL A   1      30.421  23.614  22.969  1.00  0.00    -0.049 C 
ATOM     17  H   UNL A   1      30.381  22.858  22.212  1.00  0.00     0.024 H 
ATOM     18  H   UNL A   1      30.501  24.576  22.509  1.00  0.00     0.024 H 
ATOM     19  H   UNL A   1      29.530  23.574  23.560  1.00  0.00     0.024 H 
ENDBRANCH  14  16
BRANCH  14  20
ATOM     20  C   UNL A   1      32.208  24.590  24.618  1.00  0.00     0.042 A 
ATOM     21  C   UNL A   1      33.304  25.246  24.013  1.00  0.00    -0.051 A 
ATOM     22  C   UNL A   1      31.794  25.107  25.860  1.00  0.00     0.273 A 
ATOM     23  C   UNL A   1      33.922  26.363  24.587  1.00  0.00    -0.058 A 
ATOM     24  H   UNL A   1      33.662  24.889  23.113  1.00  0.00     0.063 H 
ATOM     25  C   UNL A   1      32.449  26.196  26.468  1.00  0.00     0.019 A 
ATOM     26  C   UNL A   1      33.522  26.829  25.839  1.00  0.00    -0.040 A 
ATOM     27  H   UNL A   1      34.680  26.845  24.081  1.00  0.00     0.063 H 
ATOM     28  H   UNL A   1      32.131  26.529  27.391  1.00  0.00     0.070 H 
BRANCH  22  29
ATOM     29  N   UNL A   1      30.680  24.591  26.598  1.00  0.00     0.063 N 
ATOM     30  O   UNL A   1      30.822  23.636  27.332  1.00  0.00    -0.258 OA
ATOM     31  O   UNL A   1      29.472  25.244  26.587  1.00  0.00    -0.258 OA
ENDBRANCH  22  29
BRANCH  26  32
ATOM     32  C   UNL A   1      34.220  27.991  26.502  1.00  0.00    -0.018 C 
ATOM     33  H   UNL A   1      35.275  27.821  26.431  1.00  0.00     0.032 H 
ATOM     34  H   UNL A   1      33.842  28.017  27.502  1.00  0.00     0.032 H 
BRANCH  32  35
ATOM     35  C   UNL A   1      33.933  29.381  25.922  1.00  0.00     0.022 C 
ATOM     36  C   UNL A   1      32.805  29.474  24.889  1.00  0.00    -0.043 C 
ATOM     37  C   UNL A   1      33.478  30.364  26.975  1.00  0.00     0.136 C 
ATOM     38  H   UNL A   1      34.880  29.600  25.475  1.00  0.00     0.039 H 
ATOM     39  C   UNL A   1      31.568  29.941  25.646  1.00  0.00    -0.046 C 
ATOM     40  H   UNL A   1      32.629  28.515  24.447  1.00  0.00     0.027 H 
ATOM     41  H   UNL A   1      33.055  30.149  24.098  1.00  0.00     0.027 H 
ATOM     42  C   UNL A   1      32.086  30.880  26.727  1.00  0.00     0.006 C 
ATOM     43  O   UNL A   1      34.170  30.718  27.923  1.00  0.00    -0.299 OA
ATOM     44  H   UNL A   1      31.061  29.108  26.086  1.00  0.00     0.027 H 
ATOM     45  H   UNL A   1      30.867  30.427  25.001  1.00  0.00     0.027 H 
ATOM     46  H   UNL A   1      31.487  30.816  27.612  1.00  0.00     0.035 H 
ATOM     47  H   UNL A   1      32.060  31.911  26.441  1.00  0.00     0.035 H 
ENDBRANCH  32  35
ENDBRANCH  26  32
ENDBRANCH  14  20
ENDBRANCH  11  14
ENDBRANCH   7  10
ENDBRANCH   4   7
ENDBRANCH   1   4
BRANCH   1  48
ATOM     48  C   UNL A   1      34.962  21.777  26.490  1.00  0.00    -0.052 C 
ATOM     49  H   UNL A   1      35.491  21.363  25.656  1.00  0.00     0.027 H 
ATOM     50  H   UNL A   1      35.339  21.448  27.435  1.00  0.00     0.027 H 
BRANCH  48  51
ATOM     51  C   UNL A   1      35.141  23.297  26.460  1.00  0.00    -0.036 C 
ATOM     52  H   UNL A   1      35.121  23.656  27.467  1.00  0.00     0.028 H 
ATOM     53  H   UNL A   1      34.344  23.684  25.859  1.00  0.00     0.028 H 
BRANCH  51  54
ATOM     54  C   UNL A   1      36.439  23.771  25.811  1.00  0.00     0.018 C 
ATOM     55  H   UNL A   1      36.766  24.665  26.302  1.00  0.00     0.049 H 
ATOM     56  H   UNL A   1      36.246  23.952  24.774  1.00  0.00     0.049 H 
BRANCH  54  57
ATOM     57  N   UNL A   1      37.489  22.772  25.906  1.00  0.00    -0.352 N 
ATOM     58  C   UNL A   1      38.802  22.912  26.278  1.00  0.00     0.251 C 
ATOM     59  H   UNL A   1      37.218  21.856  25.668  1.00  0.00     0.163 HD
ATOM     60  O   UNL A   1      39.592  21.994  26.087  1.00  0.00    -0.269 OA
BRANCH  58  61
ATOM     61  C   UNL A   1      39.275  24.169  26.898  1.00  0.00     0.039 A 
ATOM     62  C   UNL A   1      39.956  25.091  26.097  1.00  0.00    -0.049 A 
ATOM     63  C   UNL A   1      39.099  24.422  28.261  1.00  0.00    -0.049 A 
ATOM     64  C   UNL A   1      40.420  26.283  26.654  1.00  0.00    -0.053 A 
ATOM     65  H   UNL A   1      40.113  24.891  25.097  1.00  0.00     0.063 H 
ATOM     66  C   UNL A   1      39.507  25.641  28.804  1.00  0.00    -0.053 A 
ATOM     67  H   UNL A   1      38.666  23.707  28.867  1.00  0.00     0.063 H 
ATOM     68  C   UNL A   1      40.179  26.578  28.007  1.00  0.00    -0.014 A 
ATOM     69  H   UNL A   1      40.944  26.952  26.069  1.00  0.00     0.063 H 
ATOM     70  H   UNL A   1      39.314  25.852  29.795  1.00  0.00     0.063 H 
BRANCH  68  71
ATOM     71  C   UNL A   1      40.628  27.870  28.585  1.00  0.00     0.031 A 
ATOM     72  C   UNL A   1      42.074  28.091  28.933  1.00  0.00     0.074 A 
ATOM     73  C   UNL A   1      39.723  28.839  28.818  1.00  0.00     0.049 A 
ATOM     74  N   UNL A   1      42.650  29.154  29.438  1.00  0.00    -0.248 NA
ATOM     75  C   UNL A   1      42.991  26.964  28.704  1.00  0.00    -0.034 C 
ATOM     76  C   UNL A   1      38.283  28.723  28.577  1.00  0.00    -0.036 A 
ATOM     77  N   UNL A   1      39.875  30.111  29.309  1.00  0.00    -0.354 N 
ATOM     78  C   UNL A   1      43.992  28.826  29.581  1.00  0.00     0.074 A 
ATOM     79  C   UNL A   1      44.135  27.446  29.170  1.00  0.00    -0.034 C 
ATOM     80  H   UNL A   1      42.796  26.039  28.289  1.00  0.00     0.065 H 
ATOM     81  C   UNL A   1      37.689  29.882  28.902  1.00  0.00    -0.036 A 
ATOM     82  H   UNL A   1      37.802  27.884  28.217  1.00  0.00     0.065 H 
ATOM     83  C   UNL A   1      38.699  30.814  29.393  1.00  0.00     0.049 A 
ATOM     84  H   UNL A   1      40.747  30.484  29.576  1.00  0.00     0.167 HD
ATOM     85  C   UNL A   1      45.015  29.612  29.992  1.00  0.00     0.037 A 
ATOM     86  H   UNL A   1      45.014  26.907  29.229  1.00  0.00     0.065 H 
ATOM     87  H   UNL A   1      36.680  30.082  28.817  1.00  0.00     0.065 H 
ATOM     88  C   UNL A   1      38.463  32.070  29.816  1.00  0.00     0.037 A 
ATOM     89  C   UNL A   1      44.872  30.989  30.393  1.00  0.00     0.049 A 
ATOM     90  C   UNL A   1      39.620  32.926  30.252  1.00  0.00     0.074 A 
ATOM     91  C   UNL A   1      45.853  31.877  30.797  1.00  0.00    -0.036 A 
ATOM     92  N   UNL A   1      43.668  31.675  30.436  1.00  0.00    -0.354 N 
ATOM     93  N   UNL A   1      40.893  32.622  30.323  1.00  0.00    -0.248 NA
ATOM     94  C   UNL A   1      39.308  34.304  30.652  1.00  0.00    -0.034 C 
ATOM     95  C   UNL A   1      45.238  33.093  31.117  1.00  0.00    -0.036 A 
ATOM     96  H   UNL A   1      46.864  31.679  30.853  1.00  0.00     0.065 H 
ATOM     97  C   UNL A   1      43.880  32.974  30.870  1.00  0.00     0.049 A 
ATOM     98  H   UNL A   1      42.793  31.296  30.194  1.00  0.00     0.167 HD
ATOM     99  C   UNL A   1      41.536  33.775  30.757  1.00  0.00     0.074 A 
ATOM    100  C   UNL A   1      40.515  34.791  30.906  1.00  0.00    -0.034 C 
ATOM    101  H   UNL A   1      38.391  34.773  30.719  1.00  0.00     0.065 H 
ATOM    102  H   UNL A   1      45.715  33.935  31.476  1.00  0.00     0.065 H 
ATOM    103  C   UNL A   1      42.852  33.973  31.014  1.00  0.00     0.037 A 
ATOM    104  H   UNL A   1      40.704  35.769  31.175  1.00  0.00     0.065 H 
BRANCH  85 105
ATOM    105  C   UNL A   1      46.390  29.008  30.012  1.00  0.00     0.064 A 
ATOM    106  C   UNL A   1      46.884  28.362  31.157  1.00  0.00     0.173 A 
ATOM    107  C   UNL A   1      47.200  29.029  28.869  1.00  0.00     0.173 A 
ATOM    108  F   UNL A   1      46.153  28.324  32.280  1.00  0.00    -0.203 F 
ATOM    109  C   UNL A   1      48.148  27.779  31.161  1.00  0.00     0.198 A 
ATOM    110  C   UNL A   1      48.453  28.421  28.868  1.00  0.00     0.198 A 
ATOM    111  F   UNL A   1      46.774  29.628  27.748  1.00  0.00    -0.203 F 
ATOM    112  F   UNL A   1      48.615  27.204  32.277  1.00  0.00    -0.200 F 
ATOM    113  C   UNL A   1      48.929  27.802  30.015  1.00  0.00     0.200 A 
ATOM    114  F   UNL A   1      49.202  28.434  27.756  1.00  0.00    -0.200 F 
ATOM    115  F   UNL A   1      50.142  27.232  30.017  1.00  0.00    -0.200 F 
ENDBRANCH  85 105
BRANCH  88 116
ATOM    116  C   UNL A   1      37.076  32.602  29.823  1.00  0.00     0.064 A 
ATOM    117  C   UNL A   1      36.576  33.331  28.735  1.00  0.00     0.173 A 
ATOM    118  C   UNL A   1      36.227  32.403  30.922  1.00  0.00     0.173 A 
ATOM    119  F   UNL A   1      37.355  33.564  27.670  1.00  0.00    -0.203 F 
ATOM    120  C   UNL A   1      35.288  33.863  28.757  1.00  0.00     0.198 A 
ATOM    121  C   UNL A   1      34.930  32.910  30.929  1.00  0.00     0.198 A 
ATOM    122  F   UNL A   1      36.656  31.705  31.984  1.00  0.00    -0.203 F 
ATOM    123  F   UNL A   1      34.853  34.600  27.726  1.00  0.00    -0.200 F 
ATOM    124  C   UNL A   1      34.465  33.648  29.852  1.00  0.00     0.200 A 
ATOM    125  F   UNL A   1      34.133  32.688  31.984  1.00  0.00    -0.200 F 
ATOM    126  F   UNL A   1      33.227  34.160  29.873  1.00  0.00    -0.200 F 
ENDBRANCH  88 116
BRANCH 103 127
ATOM    127  C   UNL A   1      43.259  35.344  31.465  1.00  0.00     0.064 A 
ATOM    128  C   UNL A   1      43.261  35.698  32.822  1.00  0.00     0.173 A 
ATOM    129  C   UNL A   1      43.665  36.310  30.532  1.00  0.00     0.173 A 
ATOM    130  F   UNL A   1      42.866  34.815  33.752  1.00  0.00    -0.203 F 
ATOM    131  C   UNL A   1      43.623  36.981  33.225  1.00  0.00     0.198 A 
ATOM    132  C   UNL A   1      44.055  37.582  30.941  1.00  0.00     0.198 A 
ATOM    133  F   UNL A   1      43.687  36.018  29.222  1.00  0.00    -0.203 F 
ATOM    134  F   UNL A   1      43.565  37.315  34.522  1.00  0.00    -0.200 F 
ATOM    135  C   UNL A   1      44.025  37.919  32.286  1.00  0.00     0.200 A 
ATOM    136  F   UNL A   1      44.453  38.483  30.034  1.00  0.00    -0.200 F 
ATOM    137  F   UNL A   1      44.372  39.153  32.677  1.00  0.00    -0.200 F 
ENDBRANCH 103 127
ENDBRANCH  68  71
ENDBRANCH  58  61
ENDBRANCH  54  57
ENDBRANCH  51  54
ENDBRANCH  48  51
ENDBRANCH   1  48
TORSDOF 18
ENDMDL
MODEL 10
REMARK VINA RESULT:     -11.2      2.116      4.472
REMARK SMILES C[C@@H](C(=O)NCCCCCCNC(=O)c1ccc(-c2c3nc(c(-c4c(F)c(F)c(F)c(F)c4F)c4ccc([nH]4)c(-c4c(F)c(F)c(F)c(F)c4F)c4nc(c(-c5c(F)c(F)c(F)c(F)c5F)c5ccc2[nH]5)C=C4)C=C3)cc1)c1ccc(C[C@H]2CCCC2=O)cc1[N+](=O)[O-]
REMARK SMILES IDX 8 1 7 4 6 7 5 10 3 11 4 12 2 14 1 16 78 20 79 21 90 22 80 23
REMARK SMILES IDX 89 25 81 26 91 29 92 30 93 31 82 32 83 35 84 36 87 37 85 39
REMARK SMILES IDX 86 42 88 43 9 48 10 51 11 54 12 57 13 58 14 60 15 61 16 62
REMARK SMILES IDX 77 63 17 64 76 66 18 68 19 71 20 72 70 73 21 74 75 75 69 76
REMARK SMILES IDX 71 77 22 78 74 79 68 81 67 83 23 85 55 88 35 89 54 90 36 91
REMARK SMILES IDX 39 92 53 93 72 94 37 95 38 97 52 99 73 100 40 103 24 105
REMARK SMILES IDX 25 106 33 107 26 108 27 109 31 110 34 111 28 112 29 113
REMARK SMILES IDX 32 114 30 115 56 116 57 117 65 118 58 119 59 120 63 121
REMARK SMILES IDX 66 122 60 123 61 124 64 125 62 126 41 127 42 128 50 129
REMARK SMILES IDX 43 130 44 131 48 132 51 133 45 134 46 135 49 136 47 137
REMARK H PARENT 8 2 8 3 7 5 7 6 6 8 6 9 5 13 2 15 1 17 1 18 1 19 79 24 80 27
REMARK H PARENT 89 28 82 33 82 34 83 38 84 40 84 41 85 44 85 45 86 46 86 47
REMARK H PARENT 9 49 9 50 10 52 10 53 11 55 11 56 12 59 16 65 77 67 17 69
REMARK H PARENT 76 70 75 80 69 82 71 84 74 86 68 87 36 96 39 98 72 101 37 102
REMARK H PARENT 73 104
REMARK Flexibility Score: inf
ROOT
ATOM      1  C   UNL A   1      32.755  29.847  25.996  1.00  0.00    -0.052 C 
ATOM      2  H   UNL A   1      33.458  30.610  26.259  1.00  0.00     0.027 H 
ATOM      3  H   UNL A   1      32.650  29.095  26.750  1.00  0.00     0.027 H 
ENDROOT
BRANCH   1   4
ATOM      4  C   UNL A   1      33.270  29.133  24.741  1.00  0.00    -0.036 C 
ATOM      5  H   UNL A   1      32.509  29.180  23.989  1.00  0.00     0.028 H 
ATOM      6  H   UNL A   1      34.169  29.633  24.445  1.00  0.00     0.028 H 
BRANCH   4   7
ATOM      7  C   UNL A   1      33.632  27.660  24.971  1.00  0.00     0.017 C 
ATOM      8  H   UNL A   1      33.565  27.128  24.045  1.00  0.00     0.049 H 
ATOM      9  H   UNL A   1      34.630  27.594  25.350  1.00  0.00     0.049 H 
BRANCH   7  10
ATOM     10  N   UNL A   1      32.713  27.080  25.928  1.00  0.00    -0.356 N 
ATOM     11  C   UNL A   1      31.408  26.716  25.761  1.00  0.00     0.227 C 
ATOM     12  O   UNL A   1      30.727  26.628  26.785  1.00  0.00    -0.274 OA
ATOM     13  H   UNL A   1      33.083  26.927  26.828  1.00  0.00     0.163 HD
BRANCH  11  14
ATOM     14  C   UNL A   1      30.867  26.368  24.351  1.00  0.00     0.067 C 
ATOM     15  H   UNL A   1      31.304  27.000  23.605  1.00  0.00     0.045 H 
BRANCH  14  16
ATOM     16  C   UNL A   1      29.372  26.677  24.279  1.00  0.00    -0.049 C 
ATOM     17  H   UNL A   1      28.826  25.917  24.797  1.00  0.00     0.024 H 
ATOM     18  H   UNL A   1      29.062  26.704  23.255  1.00  0.00     0.024 H 
ATOM     19  H   UNL A   1      29.182  27.627  24.734  1.00  0.00     0.024 H 
ENDBRANCH  14  16
BRANCH  14  20
ATOM     20  C   UNL A   1      31.320  24.965  23.905  1.00  0.00     0.042 A 
ATOM     21  C   UNL A   1      30.976  23.892  24.759  1.00  0.00    -0.051 A 
ATOM     22  C   UNL A   1      32.070  24.622  22.764  1.00  0.00     0.273 A 
ATOM     23  C   UNL A   1      31.324  22.566  24.477  1.00  0.00    -0.058 A 
ATOM     24  H   UNL A   1      30.447  24.094  25.623  1.00  0.00     0.063 H 
ATOM     25  C   UNL A   1      32.470  23.297  22.506  1.00  0.00     0.019 A 
ATOM     26  C   UNL A   1      32.105  22.259  23.364  1.00  0.00    -0.040 A 
ATOM     27  H   UNL A   1      31.000  21.810  25.100  1.00  0.00     0.063 H 
ATOM     28  H   UNL A   1      33.041  23.092  21.672  1.00  0.00     0.070 H 
BRANCH  22  29
ATOM     29  N   UNL A   1      32.475  25.573  21.772  1.00  0.00     0.063 N 
ATOM     30  O   UNL A   1      33.650  25.830  21.614  1.00  0.00    -0.258 OA
ATOM     31  O   UNL A   1      31.557  26.109  20.902  1.00  0.00    -0.258 OA
ENDBRANCH  22  29
BRANCH  26  32
ATOM     32  C   UNL A   1      32.543  20.843  23.082  1.00  0.00    -0.018 C 
ATOM     33  H   UNL A   1      33.465  20.889  22.541  1.00  0.00     0.032 H 
ATOM     34  H   UNL A   1      31.734  20.396  22.544  1.00  0.00     0.032 H 
BRANCH  32  35
ATOM     35  C   UNL A   1      32.765  19.940  24.303  1.00  0.00     0.022 C 
ATOM     36  C   UNL A   1      32.391  18.463  24.140  1.00  0.00    -0.043 C 
ATOM     37  C   UNL A   1      34.218  19.856  24.704  1.00  0.00     0.136 C 
ATOM     38  H   UNL A   1      32.124  20.420  25.012  1.00  0.00     0.039 H 
ATOM     39  C   UNL A   1      33.687  17.727  23.824  1.00  0.00    -0.046 C 
ATOM     40  H   UNL A   1      31.692  18.345  23.337  1.00  0.00     0.027 H 
ATOM     41  H   UNL A   1      31.930  18.078  25.025  1.00  0.00     0.027 H 
ATOM     42  C   UNL A   1      34.770  18.459  24.604  1.00  0.00     0.006 C 
ATOM     43  O   UNL A   1      34.878  20.817  25.085  1.00  0.00    -0.299 OA
ATOM     44  H   UNL A   1      33.893  17.763  22.774  1.00  0.00     0.027 H 
ATOM     45  H   UNL A   1      33.633  16.693  24.095  1.00  0.00     0.027 H 
ATOM     46  H   UNL A   1      35.700  18.448  24.075  1.00  0.00     0.035 H 
ATOM     47  H   UNL A   1      34.980  18.017  25.556  1.00  0.00     0.035 H 
ENDBRANCH  32  35
ENDBRANCH  26  32
ENDBRANCH  14  20
ENDBRANCH  11  14
ENDBRANCH   7  10
ENDBRANCH   4   7
ENDBRANCH   1   4
BRANCH   1  48
ATOM     48  C   UNL A   1      31.379  30.500  25.843  1.00  0.00    -0.052 C 
ATOM     49  H   UNL A   1      30.666  29.903  26.372  1.00  0.00     0.027 H 
ATOM     50  H   UNL A   1      31.187  30.554  24.792  1.00  0.00     0.027 H 
BRANCH  48  51
ATOM     51  C   UNL A   1      31.287  31.933  26.372  1.00  0.00    -0.036 C 
ATOM     52  H   UNL A   1      30.503  31.972  27.099  1.00  0.00     0.028 H 
ATOM     53  H   UNL A   1      31.103  32.558  25.523  1.00  0.00     0.028 H 
BRANCH  51  54
ATOM     54  C   UNL A   1      32.565  32.455  27.023  1.00  0.00     0.018 C 
ATOM     55  H   UNL A   1      33.363  32.403  26.311  1.00  0.00     0.049 H 
ATOM     56  H   UNL A   1      32.774  31.847  27.879  1.00  0.00     0.049 H 
BRANCH  54  57
ATOM     57  N   UNL A   1      32.424  33.830  27.470  1.00  0.00    -0.352 N 
ATOM     58  C   UNL A   1      33.088  34.502  28.464  1.00  0.00     0.251 C 
ATOM     59  H   UNL A   1      31.748  34.359  26.988  1.00  0.00     0.163 HD
ATOM     60  O   UNL A   1      32.680  35.594  28.842  1.00  0.00    -0.269 OA
BRANCH  58  61
ATOM     61  C   UNL A   1      34.292  33.912  29.091  1.00  0.00     0.039 A 
ATOM     62  C   UNL A   1      34.118  32.942  30.083  1.00  0.00    -0.049 A 
ATOM     63  C   UNL A   1      35.577  34.341  28.749  1.00  0.00    -0.049 A 
ATOM     64  C   UNL A   1      35.233  32.373  30.698  1.00  0.00    -0.053 A 
ATOM     65  H   UNL A   1      33.168  32.649  30.358  1.00  0.00     0.063 H 
ATOM     66  C   UNL A   1      36.693  33.726  29.318  1.00  0.00    -0.053 A 
ATOM     67  H   UNL A   1      35.702  35.111  28.074  1.00  0.00     0.063 H 
ATOM     68  C   UNL A   1      36.530  32.742  30.304  1.00  0.00    -0.014 A 
ATOM     69  H   UNL A   1      35.104  31.675  31.447  1.00  0.00     0.063 H 
ATOM     70  H   UNL A   1      37.640  33.997  29.013  1.00  0.00     0.063 H 
BRANCH  68  71
ATOM     71  C   UNL A   1      37.715  32.097  30.924  1.00  0.00     0.031 A 
ATOM     72  C   UNL A   1      38.180  32.506  32.294  1.00  0.00     0.074 A 
ATOM     73  C   UNL A   1      38.388  31.155  30.236  1.00  0.00     0.049 A 
ATOM     74  N   UNL A   1      39.187  32.048  32.996  1.00  0.00    -0.248 NA
ATOM     75  C   UNL A   1      37.429  33.582  32.956  1.00  0.00    -0.034 C 
ATOM     76  C   UNL A   1      38.069  30.715  28.876  1.00  0.00    -0.036 A 
ATOM     77  N   UNL A   1      39.478  30.397  30.583  1.00  0.00    -0.354 N 
ATOM     78  C   UNL A   1      39.187  32.777  34.178  1.00  0.00     0.074 A 
ATOM     79  C   UNL A   1      38.119  33.747  34.076  1.00  0.00    -0.034 C 
ATOM     80  H   UNL A   1      36.584  34.081  32.633  1.00  0.00     0.065 H 
ATOM     81  C   UNL A   1      38.931  29.752  28.513  1.00  0.00    -0.036 A 
ATOM     82  H   UNL A   1      37.306  31.088  28.290  1.00  0.00     0.065 H 
ATOM     83  C   UNL A   1      39.874  29.522  29.602  1.00  0.00     0.049 A 
ATOM     84  H   UNL A   1      39.933  30.475  31.453  1.00  0.00     0.167 HD
ATOM     85  C   UNL A   1      39.986  32.629  35.261  1.00  0.00     0.037 A 
ATOM     86  H   UNL A   1      37.920  34.473  34.783  1.00  0.00     0.065 H 
ATOM     87  H   UNL A   1      38.926  29.254  27.609  1.00  0.00     0.065 H 
ATOM     88  C   UNL A   1      40.883  28.631  29.586  1.00  0.00     0.037 A 
ATOM     89  C   UNL A   1      41.043  31.656  35.366  1.00  0.00     0.049 A 
ATOM     90  C   UNL A   1      41.745  28.478  30.809  1.00  0.00     0.074 A 
ATOM     91  C   UNL A   1      41.888  31.409  36.433  1.00  0.00    -0.036 A 
ATOM     92  N   UNL A   1      41.395  30.765  34.363  1.00  0.00    -0.354 N 
ATOM     93  N   UNL A   1      41.693  29.130  31.945  1.00  0.00    -0.248 NA
ATOM     94  C   UNL A   1      42.797  27.453  30.752  1.00  0.00    -0.034 C 
ATOM     95  C   UNL A   1      42.775  30.391  36.064  1.00  0.00    -0.036 A 
ATOM     96  H   UNL A   1      41.869  31.892  37.345  1.00  0.00     0.065 H 
ATOM     97  C   UNL A   1      42.453  29.975  34.783  1.00  0.00     0.049 A 
ATOM     98  H   UNL A   1      40.959  30.704  33.483  1.00  0.00     0.167 HD
ATOM     99  C   UNL A   1      42.690  28.584  32.744  1.00  0.00     0.074 A 
ATOM    100  C   UNL A   1      43.312  27.528  31.972  1.00  0.00    -0.034 C 
ATOM    101  H   UNL A   1      43.065  26.836  29.970  1.00  0.00     0.065 H 
ATOM    102  H   UNL A   1      43.539  30.015  36.648  1.00  0.00     0.065 H 
ATOM    103  C   UNL A   1      43.060  28.928  34.001  1.00  0.00     0.037 A 
ATOM    104  H   UNL A   1      44.060  26.913  32.326  1.00  0.00     0.065 H 
BRANCH  85 105
ATOM    105  C   UNL A   1      39.737  33.533  36.435  1.00  0.00     0.064 A 
ATOM    106  C   UNL A   1      38.836  33.175  37.451  1.00  0.00     0.173 A 
ATOM    107  C   UNL A   1      40.437  34.740  36.574  1.00  0.00     0.173 A 
ATOM    108  F   UNL A   1      38.133  32.036  37.359  1.00  0.00    -0.203 F 
ATOM    109  C   UNL A   1      38.630  34.003  38.550  1.00  0.00     0.198 A 
ATOM    110  C   UNL A   1      40.248  35.552  37.689  1.00  0.00     0.198 A 
ATOM    111  F   UNL A   1      41.313  35.126  35.635  1.00  0.00    -0.203 F 
ATOM    112  F   UNL A   1      37.735  33.660  39.487  1.00  0.00    -0.200 F 
ATOM    113  C   UNL A   1      39.341  35.187  38.673  1.00  0.00     0.200 A 
ATOM    114  F   UNL A   1      40.945  36.691  37.812  1.00  0.00    -0.200 F 
ATOM    115  F   UNL A   1      39.149  35.979  39.737  1.00  0.00    -0.200 F 
ENDBRANCH  85 105
BRANCH  88 116
ATOM    116  C   UNL A   1      41.117  27.797  28.380  1.00  0.00     0.064 A 
ATOM    117  C   UNL A   1      40.488  26.553  28.227  1.00  0.00     0.173 A 
ATOM    118  C   UNL A   1      41.984  28.220  27.361  1.00  0.00     0.173 A 
ATOM    119  F   UNL A   1      39.665  26.098  29.182  1.00  0.00    -0.203 F 
ATOM    120  C   UNL A   1      40.736  25.753  27.113  1.00  0.00     0.198 A 
ATOM    121  C   UNL A   1      42.208  27.432  26.235  1.00  0.00     0.198 A 
ATOM    122  F   UNL A   1      42.604  29.404  27.456  1.00  0.00    -0.203 F 
ATOM    123  F   UNL A   1      40.161  24.547  27.017  1.00  0.00    -0.200 F 
ATOM    124  C   UNL A   1      41.593  26.195  26.116  1.00  0.00     0.200 A 
ATOM    125  F   UNL A   1      43.025  27.869  25.267  1.00  0.00    -0.200 F 
ATOM    126  F   UNL A   1      41.831  25.426  25.046  1.00  0.00    -0.200 F 
ENDBRANCH  88 116
BRANCH 103 127
ATOM    127  C   UNL A   1      44.178  28.143  34.621  1.00  0.00     0.064 A 
ATOM    128  C   UNL A   1      45.514  28.553  34.505  1.00  0.00     0.173 A 
ATOM    129  C   UNL A   1      43.909  26.976  35.351  1.00  0.00     0.173 A 
ATOM    130  F   UNL A   1      45.825  29.654  33.804  1.00  0.00    -0.203 F 
ATOM    131  C   UNL A   1      46.543  27.804  35.070  1.00  0.00     0.198 A 
ATOM    132  C   UNL A   1      44.937  26.246  35.940  1.00  0.00     0.198 A 
ATOM    133  F   UNL A   1      42.646  26.545  35.498  1.00  0.00    -0.203 F 
ATOM    134  F   UNL A   1      47.817  28.184  34.900  1.00  0.00    -0.200 F 
ATOM    135  C   UNL A   1      46.254  26.655  35.791  1.00  0.00     0.200 A 
ATOM    136  F   UNL A   1      44.655  25.142  36.645  1.00  0.00    -0.200 F 
ATOM    137  F   UNL A   1      47.246  25.935  36.333  1.00  0.00    -0.200 F 
ENDBRANCH 103 127
ENDBRANCH  68  71
ENDBRANCH  58  61
ENDBRANCH  54  57
ENDBRANCH  51  54
ENDBRANCH  48  51
ENDBRANCH   1  48
TORSDOF 18
ENDMDL
