MODEL 1
REMARK VINA RESULT:     -11.7      0.000      0.000
REMARK SMILES C[C@@H](C(=O)NCCCCCCNC(=O)c1ccc(-c2c3nc(c(-c4c(F)c(F)c(F)c(F)c4F)c4ccc([nH]4)c(-c4c(F)c(F)c(F)c(F)c4F)c4nc(c(-c5c(F)c(F)c(F)c(F)c5F)c5ccc2[nH]5)C=C4)C=C3)cc1)c1ccc(C[C@@H]2CCC[C@@H]2O)cc1F
REMARK SMILES IDX 7 1 6 4 5 7 3 8 4 9 2 11 1 13 78 17 79 18 90 19 80 20 89 22
REMARK SMILES IDX 91 23 81 24 82 27 83 30 84 31 87 32 85 34 86 37 88 43 8 45
REMARK SMILES IDX 9 48 10 51 11 54 12 57 13 58 14 60 15 61 16 62 77 63 17 64
REMARK SMILES IDX 76 66 18 68 19 71 20 72 70 73 21 74 75 75 69 76 71 77 22 78
REMARK SMILES IDX 74 79 68 81 67 83 23 85 55 88 35 89 54 90 36 91 39 92 53 93
REMARK SMILES IDX 72 94 37 95 38 97 52 99 73 100 40 103 24 105 25 106 33 107
REMARK SMILES IDX 26 108 27 109 31 110 34 111 28 112 29 113 32 114 30 115
REMARK SMILES IDX 56 116 57 117 65 118 58 119 59 120 63 121 66 122 60 123
REMARK SMILES IDX 61 124 64 125 62 126 41 127 42 128 50 129 43 130 44 131
REMARK SMILES IDX 48 132 51 133 45 134 46 135 49 136 47 137
REMARK H PARENT 7 2 7 3 6 5 6 6 5 10 2 12 1 14 1 15 1 16 79 21 80 25 89 26
REMARK H PARENT 82 28 82 29 83 33 84 35 84 36 87 38 85 39 85 40 86 41 86 42
REMARK H PARENT 88 44 8 46 8 47 9 49 9 50 10 52 10 53 11 55 11 56 12 59 16 65
REMARK H PARENT 77 67 17 69 76 70 75 80 69 82 71 84 74 86 68 87 36 96 39 98
REMARK H PARENT 72 101 37 102 73 104
REMARK Flexibility Score: inf
ROOT
ATOM      1  C   UNL A   1      35.991  22.740  25.536  1.00  0.00    -0.036 C 
ATOM      2  H   UNL A   1      35.104  22.430  26.047  1.00  0.00     0.028 H 
ATOM      3  H   UNL A   1      36.836  22.810  26.188  1.00  0.00     0.028 H 
ENDROOT
BRANCH   1   4
ATOM      4  C   UNL A   1      35.753  24.140  24.964  1.00  0.00     0.017 C 
ATOM      5  H   UNL A   1      36.675  24.683  24.966  1.00  0.00     0.049 H 
ATOM      6  H   UNL A   1      35.383  24.048  23.964  1.00  0.00     0.049 H 
BRANCH   4   7
ATOM      7  N   UNL A   1      34.778  24.850  25.762  1.00  0.00    -0.356 N 
ATOM      8  C   UNL A   1      33.570  25.376  25.410  1.00  0.00     0.227 C 
ATOM      9  O   UNL A   1      33.008  26.083  26.248  1.00  0.00    -0.274 OA
ATOM     10  H   UNL A   1      35.025  24.975  26.706  1.00  0.00     0.163 HD
BRANCH   8  11
ATOM     11  C   UNL A   1      32.945  25.012  24.057  1.00  0.00     0.063 C 
ATOM     12  H   UNL A   1      33.657  25.277  23.304  1.00  0.00     0.045 H 
BRANCH  11  13
ATOM     13  C   UNL A   1      31.687  25.830  23.737  1.00  0.00    -0.049 C 
ATOM     14  H   UNL A   1      31.593  25.940  22.677  1.00  0.00     0.024 H 
ATOM     15  H   UNL A   1      31.765  26.797  24.190  1.00  0.00     0.024 H 
ATOM     16  H   UNL A   1      30.825  25.326  24.121  1.00  0.00     0.024 H 
ENDBRANCH  11  13
BRANCH  11  17
ATOM     17  C   UNL A   1      32.696  23.514  23.956  1.00  0.00    -0.000 A 
ATOM     18  C   UNL A   1      32.246  22.807  25.082  1.00  0.00    -0.055 A 
ATOM     19  C   UNL A   1      32.867  22.807  22.761  1.00  0.00     0.127 A 
ATOM     20  C   UNL A   1      32.057  21.424  25.025  1.00  0.00    -0.059 A 
ATOM     21  H   UNL A   1      32.055  23.314  25.960  1.00  0.00     0.063 H 
ATOM     22  C   UNL A   1      32.704  21.428  22.708  1.00  0.00    -0.023 A 
ATOM     23  F   UNL A   1      33.231  23.441  21.639  1.00  0.00    -0.207 F 
ATOM     24  C   UNL A   1      32.337  20.713  23.853  1.00  0.00    -0.045 A 
ATOM     25  H   UNL A   1      31.705  20.922  25.856  1.00  0.00     0.063 H 
ATOM     26  H   UNL A   1      32.855  20.927  21.818  1.00  0.00     0.066 H 
BRANCH  24  27
ATOM     27  C   UNL A   1      32.288  19.207  23.814  1.00  0.00    -0.022 C 
ATOM     28  H   UNL A   1      32.147  18.918  22.792  1.00  0.00     0.032 H 
ATOM     29  H   UNL A   1      31.493  18.942  24.477  1.00  0.00     0.032 H 
BRANCH  27  30
ATOM     30  C   UNL A   1      33.521  18.439  24.345  1.00  0.00    -0.011 C 
ATOM     31  C   UNL A   1      34.031  17.325  23.423  1.00  0.00    -0.048 C 
ATOM     32  C   UNL A   1      33.385  17.722  25.693  1.00  0.00     0.057 C 
ATOM     33  H   UNL A   1      34.184  19.274  24.423  1.00  0.00     0.033 H 
ATOM     34  C   UNL A   1      33.517  16.002  23.998  1.00  0.00    -0.050 C 
ATOM     35  H   UNL A   1      35.100  17.327  23.400  1.00  0.00     0.027 H 
ATOM     36  H   UNL A   1      33.682  17.468  22.421  1.00  0.00     0.027 H 
ATOM     37  C   UNL A   1      32.887  16.325  25.348  1.00  0.00    -0.027 C 
ATOM     38  H   UNL A   1      34.322  17.691  26.209  1.00  0.00     0.060 H 
ATOM     39  H   UNL A   1      34.329  15.316  24.125  1.00  0.00     0.027 H 
ATOM     40  H   UNL A   1      32.806  15.547  23.341  1.00  0.00     0.027 H 
ATOM     41  H   UNL A   1      33.204  15.619  26.088  1.00  0.00     0.029 H 
ATOM     42  H   UNL A   1      31.819  16.275  25.316  1.00  0.00     0.029 H 
BRANCH  32  43
ATOM     43  O   UNL A   1      32.542  18.397  26.603  1.00  0.00    -0.393 OA
ATOM     44  H   UNL A   1      32.657  19.354  26.501  1.00  0.00     0.210 HD
ENDBRANCH  32  43
ENDBRANCH  27  30
ENDBRANCH  24  27
ENDBRANCH  11  17
ENDBRANCH   8  11
ENDBRANCH   4   7
ENDBRANCH   1   4
BRANCH   1  45
ATOM     45  C   UNL A   1      36.331  21.686  24.474  1.00  0.00    -0.052 C 
ATOM     46  H   UNL A   1      37.250  21.970  24.005  1.00  0.00     0.027 H 
ATOM     47  H   UNL A   1      35.500  21.661  23.800  1.00  0.00     0.027 H 
BRANCH  45  48
ATOM     48  C   UNL A   1      36.492  20.259  25.006  1.00  0.00    -0.052 C 
ATOM     49  H   UNL A   1      35.774  19.637  24.514  1.00  0.00     0.027 H 
ATOM     50  H   UNL A   1      36.348  20.315  26.065  1.00  0.00     0.027 H 
BRANCH  48  51
ATOM     51  C   UNL A   1      37.878  19.645  24.793  1.00  0.00    -0.036 C 
ATOM     52  H   UNL A   1      38.188  19.860  23.792  1.00  0.00     0.028 H 
ATOM     53  H   UNL A   1      37.779  18.597  24.984  1.00  0.00     0.028 H 
BRANCH  51  54
ATOM     54  C   UNL A   1      38.952  20.160  25.745  1.00  0.00     0.018 C 
ATOM     55  H   UNL A   1      38.509  20.335  26.703  1.00  0.00     0.049 H 
ATOM     56  H   UNL A   1      39.353  21.063  25.332  1.00  0.00     0.049 H 
BRANCH  54  57
ATOM     57  N   UNL A   1      40.046  19.215  25.900  1.00  0.00    -0.352 N 
ATOM     58  C   UNL A   1      41.376  19.458  26.121  1.00  0.00     0.251 C 
ATOM     59  H   UNL A   1      39.794  18.265  25.837  1.00  0.00     0.163 HD
ATOM     60  O   UNL A   1      42.194  18.543  26.041  1.00  0.00    -0.269 OA
BRANCH  58  61
ATOM     61  C   UNL A   1      41.837  20.826  26.438  1.00  0.00     0.039 A 
ATOM     62  C   UNL A   1      42.065  21.720  25.390  1.00  0.00    -0.049 A 
ATOM     63  C   UNL A   1      42.064  21.219  27.761  1.00  0.00    -0.049 A 
ATOM     64  C   UNL A   1      42.475  23.024  25.669  1.00  0.00    -0.053 A 
ATOM     65  H   UNL A   1      41.930  21.417  24.412  1.00  0.00     0.063 H 
ATOM     66  C   UNL A   1      42.409  22.538  28.042  1.00  0.00    -0.053 A 
ATOM     67  H   UNL A   1      41.977  20.533  28.527  1.00  0.00     0.063 H 
ATOM     68  C   UNL A   1      42.627  23.451  26.998  1.00  0.00    -0.014 A 
ATOM     69  H   UNL A   1      42.669  23.679  24.894  1.00  0.00     0.063 H 
ATOM     70  H   UNL A   1      42.505  22.846  29.022  1.00  0.00     0.063 H 
BRANCH  68  71
ATOM     71  C   UNL A   1      43.028  24.845  27.314  1.00  0.00     0.031 A 
ATOM     72  C   UNL A   1      44.434  25.304  27.050  1.00  0.00     0.074 A 
ATOM     73  C   UNL A   1      42.141  25.679  27.888  1.00  0.00     0.049 A 
ATOM     74  N   UNL A   1      44.991  26.461  27.306  1.00  0.00    -0.248 NA
ATOM     75  C   UNL A   1      45.345  24.322  26.439  1.00  0.00    -0.034 C 
ATOM     76  C   UNL A   1      40.760  25.338  28.235  1.00  0.00    -0.036 A 
ATOM     77  N   UNL A   1      42.272  26.986  28.290  1.00  0.00    -0.354 N 
ATOM     78  C   UNL A   1      46.315  26.341  26.905  1.00  0.00     0.074 A 
ATOM     79  C   UNL A   1      46.492  24.984  26.435  1.00  0.00    -0.034 C 
ATOM     80  H   UNL A   1      45.142  23.368  26.103  1.00  0.00     0.065 H 
ATOM     81  C   UNL A   1      40.164  26.413  28.776  1.00  0.00    -0.036 A 
ATOM     82  H   UNL A   1      40.316  24.418  28.088  1.00  0.00     0.065 H 
ATOM     83  C   UNL A   1      41.129  27.508  28.844  1.00  0.00     0.049 A 
ATOM     84  H   UNL A   1      43.106  27.499  28.190  1.00  0.00     0.167 HD
ATOM     85  C   UNL A   1      47.287  27.283  26.906  1.00  0.00     0.037 A 
ATOM     86  H   UNL A   1      47.396  24.583  26.136  1.00  0.00     0.065 H 
ATOM     87  H   UNL A   1      39.184  26.459  29.091  1.00  0.00     0.065 H 
ATOM     88  C   UNL A   1      40.887  28.732  29.350  1.00  0.00     0.037 A 
ATOM     89  C   UNL A   1      47.099  28.640  27.346  1.00  0.00     0.049 A 
ATOM     90  C   UNL A   1      41.984  29.762  29.335  1.00  0.00     0.074 A 
ATOM     91  C   UNL A   1      48.004  29.687  27.331  1.00  0.00    -0.036 A 
ATOM     92  N   UNL A   1      45.920  29.139  27.883  1.00  0.00    -0.354 N 
ATOM     93  N   UNL A   1      43.214  29.657  28.892  1.00  0.00    -0.248 NA
ATOM     94  C   UNL A   1      41.656  31.084  29.885  1.00  0.00    -0.034 C 
ATOM     95  C   UNL A   1      47.386  30.809  27.895  1.00  0.00    -0.036 A 
ATOM     96  H   UNL A   1      48.969  29.647  26.967  1.00  0.00     0.065 H 
ATOM     97  C   UNL A   1      46.081  30.474  28.219  1.00  0.00     0.049 A 
ATOM     98  H   UNL A   1      45.092  28.621  28.006  1.00  0.00     0.167 HD
ATOM     99  C   UNL A   1      43.795  30.903  29.081  1.00  0.00     0.074 A 
ATOM    100  C   UNL A   1      42.779  31.753  29.667  1.00  0.00    -0.034 C 
ATOM    101  H   UNL A   1      40.780  31.408  30.326  1.00  0.00     0.065 H 
ATOM    102  H   UNL A   1      47.827  31.730  28.044  1.00  0.00     0.065 H 
ATOM    103  C   UNL A   1      45.056  31.307  28.793  1.00  0.00     0.037 A 
ATOM    104  H   UNL A   1      42.914  32.752  29.888  1.00  0.00     0.065 H 
BRANCH  85 105
ATOM    105  C   UNL A   1      48.644  26.877  26.410  1.00  0.00     0.064 A 
ATOM    106  C   UNL A   1      49.017  27.043  25.067  1.00  0.00     0.173 A 
ATOM    107  C   UNL A   1      49.596  26.344  27.293  1.00  0.00     0.173 A 
ATOM    108  F   UNL A   1      48.140  27.537  24.180  1.00  0.00    -0.203 F 
ATOM    109  C   UNL A   1      50.279  26.661  24.621  1.00  0.00     0.198 A 
ATOM    110  C   UNL A   1      50.868  25.991  26.848  1.00  0.00     0.198 A 
ATOM    111  F   UNL A   1      49.295  26.170  28.588  1.00  0.00    -0.203 F 
ATOM    112  F   UNL A   1      50.593  26.781  23.323  1.00  0.00    -0.200 F 
ATOM    113  C   UNL A   1      51.205  26.142  25.512  1.00  0.00     0.200 A 
ATOM    114  F   UNL A   1      51.766  25.501  27.714  1.00  0.00    -0.200 F 
ATOM    115  F   UNL A   1      52.422  25.779  25.081  1.00  0.00    -0.200 F 
ENDBRANCH  85 105
BRANCH  88 116
ATOM    116  C   UNL A   1      39.541  29.062  29.882  1.00  0.00     0.064 A 
ATOM    117  C   UNL A   1      38.574  29.664  29.063  1.00  0.00     0.173 A 
ATOM    118  C   UNL A   1      39.192  28.790  31.212  1.00  0.00     0.173 A 
ATOM    119  F   UNL A   1      38.869  29.962  27.789  1.00  0.00    -0.203 F 
ATOM    120  C   UNL A   1      37.317  29.998  29.560  1.00  0.00     0.198 A 
ATOM    121  C   UNL A   1      37.925  29.100  31.702  1.00  0.00     0.198 A 
ATOM    122  F   UNL A   1      40.080  28.211  32.035  1.00  0.00    -0.203 F 
ATOM    123  F   UNL A   1      36.427  30.611  28.769  1.00  0.00    -0.200 F 
ATOM    124  C   UNL A   1      36.992  29.711  30.878  1.00  0.00     0.200 A 
ATOM    125  F   UNL A   1      37.610  28.810  32.971  1.00  0.00    -0.200 F 
ATOM    126  F   UNL A   1      35.781  30.029  31.355  1.00  0.00    -0.200 F 
ENDBRANCH  88 116
BRANCH 103 127
ATOM    127  C   UNL A   1      45.397  32.741  29.074  1.00  0.00     0.064 A 
ATOM    128  C   UNL A   1      45.967  33.137  30.292  1.00  0.00     0.173 A 
ATOM    129  C   UNL A   1      45.183  33.726  28.097  1.00  0.00     0.173 A 
ATOM    130  F   UNL A   1      46.177  32.236  31.264  1.00  0.00    -0.203 F 
ATOM    131  C   UNL A   1      46.285  34.471  30.533  1.00  0.00     0.198 A 
ATOM    132  C   UNL A   1      45.528  35.053  28.330  1.00  0.00     0.198 A 
ATOM    133  F   UNL A   1      44.646  33.397  26.912  1.00  0.00    -0.203 F 
ATOM    134  F   UNL A   1      46.784  34.835  31.723  1.00  0.00    -0.200 F 
ATOM    135  C   UNL A   1      46.072  35.426  29.550  1.00  0.00     0.200 A 
ATOM    136  F   UNL A   1      45.333  35.973  27.375  1.00  0.00    -0.200 F 
ATOM    137  F   UNL A   1      46.383  36.709  29.781  1.00  0.00    -0.200 F 
ENDBRANCH 103 127
ENDBRANCH  68  71
ENDBRANCH  58  61
ENDBRANCH  54  57
ENDBRANCH  51  54
ENDBRANCH  48  51
ENDBRANCH  45  48
ENDBRANCH   1  45
TORSDOF 18
ENDMDL
MODEL 2
REMARK VINA RESULT:     -11.6      4.669     10.841
REMARK SMILES C[C@@H](C(=O)NCCCCCCNC(=O)c1ccc(-c2c3nc(c(-c4c(F)c(F)c(F)c(F)c4F)c4ccc([nH]4)c(-c4c(F)c(F)c(F)c(F)c4F)c4nc(c(-c5c(F)c(F)c(F)c(F)c5F)c5ccc2[nH]5)C=C4)C=C3)cc1)c1ccc(C[C@@H]2CCC[C@@H]2O)cc1F
REMARK SMILES IDX 7 1 6 4 5 7 3 8 4 9 2 11 1 13 78 17 79 18 90 19 80 20 89 22
REMARK SMILES IDX 91 23 81 24 82 27 83 30 84 31 87 32 85 34 86 37 88 43 8 45
REMARK SMILES IDX 9 48 10 51 11 54 12 57 13 58 14 60 15 61 16 62 77 63 17 64
REMARK SMILES IDX 76 66 18 68 19 71 20 72 70 73 21 74 75 75 69 76 71 77 22 78
REMARK SMILES IDX 74 79 68 81 67 83 23 85 55 88 35 89 54 90 36 91 39 92 53 93
REMARK SMILES IDX 72 94 37 95 38 97 52 99 73 100 40 103 24 105 25 106 33 107
REMARK SMILES IDX 26 108 27 109 31 110 34 111 28 112 29 113 32 114 30 115
REMARK SMILES IDX 56 116 57 117 65 118 58 119 59 120 63 121 66 122 60 123
REMARK SMILES IDX 61 124 64 125 62 126 41 127 42 128 50 129 43 130 44 131
REMARK SMILES IDX 48 132 51 133 45 134 46 135 49 136 47 137
REMARK H PARENT 7 2 7 3 6 5 6 6 5 10 2 12 1 14 1 15 1 16 79 21 80 25 89 26
REMARK H PARENT 82 28 82 29 83 33 84 35 84 36 87 38 85 39 85 40 86 41 86 42
REMARK H PARENT 88 44 8 46 8 47 9 49 9 50 10 52 10 53 11 55 11 56 12 59 16 65
REMARK H PARENT 77 67 17 69 76 70 75 80 69 82 71 84 74 86 68 87 36 96 39 98
REMARK H PARENT 72 101 37 102 73 104
REMARK Flexibility Score: inf
ROOT
ATOM      1  C   UNL A   1      46.738  23.816  24.347  1.00  0.00    -0.036 C 
ATOM      2  H   UNL A   1      47.533  23.298  23.853  1.00  0.00     0.028 H 
ATOM      3  H   UNL A   1      46.089  24.320  23.662  1.00  0.00     0.028 H 
ENDROOT
BRANCH   1   4
ATOM      4  C   UNL A   1      47.350  24.888  25.252  1.00  0.00     0.017 C 
ATOM      5  H   UNL A   1      46.820  24.908  26.182  1.00  0.00     0.049 H 
ATOM      6  H   UNL A   1      48.380  24.653  25.422  1.00  0.00     0.049 H 
BRANCH   4   7
ATOM      7  N   UNL A   1      47.262  26.188  24.624  1.00  0.00    -0.356 N 
ATOM      8  C   UNL A   1      46.274  27.127  24.683  1.00  0.00     0.227 C 
ATOM      9  O   UNL A   1      46.373  28.084  23.914  1.00  0.00    -0.274 OA
ATOM     10  H   UNL A   1      48.034  26.432  24.064  1.00  0.00     0.163 HD
BRANCH   8  11
ATOM     11  C   UNL A   1      45.158  26.995  25.728  1.00  0.00     0.063 C 
ATOM     12  H   UNL A   1      45.541  26.380  26.515  1.00  0.00     0.045 H 
BRANCH  11  13
ATOM     13  C   UNL A   1      43.922  26.258  25.197  1.00  0.00    -0.049 C 
ATOM     14  H   UNL A   1      43.133  26.321  25.916  1.00  0.00     0.024 H 
ATOM     15  H   UNL A   1      44.166  25.229  25.024  1.00  0.00     0.024 H 
ATOM     16  H   UNL A   1      43.606  26.707  24.279  1.00  0.00     0.024 H 
ENDBRANCH  11  13
BRANCH  11  17
ATOM     17  C   UNL A   1      44.806  28.350  26.325  1.00  0.00    -0.000 A 
ATOM     18  C   UNL A   1      43.469  28.773  26.346  1.00  0.00    -0.055 A 
ATOM     19  C   UNL A   1      45.770  29.190  26.891  1.00  0.00     0.127 A 
ATOM     20  C   UNL A   1      43.129  30.033  26.846  1.00  0.00    -0.059 A 
ATOM     21  H   UNL A   1      42.730  28.148  25.989  1.00  0.00     0.063 H 
ATOM     22  C   UNL A   1      45.439  30.454  27.365  1.00  0.00    -0.023 A 
ATOM     23  F   UNL A   1      47.053  28.809  26.958  1.00  0.00    -0.207 F 
ATOM     24  C   UNL A   1      44.117  30.907  27.309  1.00  0.00    -0.045 A 
ATOM     25  H   UNL A   1      42.137  30.320  26.874  1.00  0.00     0.063 H 
ATOM     26  H   UNL A   1      46.174  31.062  27.762  1.00  0.00     0.066 H 
BRANCH  24  27
ATOM     27  C   UNL A   1      43.793  32.325  27.709  1.00  0.00    -0.022 C 
ATOM     28  H   UNL A   1      43.956  32.405  28.764  1.00  0.00     0.032 H 
ATOM     29  H   UNL A   1      42.784  32.474  27.389  1.00  0.00     0.032 H 
BRANCH  27  30
ATOM     30  C   UNL A   1      44.596  33.458  27.029  1.00  0.00    -0.011 C 
ATOM     31  C   UNL A   1      44.526  34.813  27.744  1.00  0.00    -0.048 C 
ATOM     32  C   UNL A   1      44.231  33.822  25.586  1.00  0.00     0.057 C 
ATOM     33  H   UNL A   1      45.559  32.994  27.073  1.00  0.00     0.033 H 
ATOM     34  C   UNL A   1      43.520  35.671  26.973  1.00  0.00    -0.050 C 
ATOM     35  H   UNL A   1      45.489  35.281  27.741  1.00  0.00     0.027 H 
ATOM     36  H   UNL A   1      44.225  34.692  28.764  1.00  0.00     0.027 H 
ATOM     37  C   UNL A   1      43.160  34.898  25.709  1.00  0.00    -0.027 C 
ATOM     38  H   UNL A   1      45.086  34.175  25.049  1.00  0.00     0.060 H 
ATOM     39  H   UNL A   1      43.960  36.612  26.716  1.00  0.00     0.027 H 
ATOM     40  H   UNL A   1      42.650  35.868  27.563  1.00  0.00     0.027 H 
ATOM     41  H   UNL A   1      43.176  35.544  24.856  1.00  0.00     0.029 H 
ATOM     42  H   UNL A   1      42.176  34.482  25.759  1.00  0.00     0.029 H 
BRANCH  32  43
ATOM     43  O   UNL A   1      43.810  32.713  24.819  1.00  0.00    -0.393 OA
ATOM     44  H   UNL A   1      43.907  31.903  25.343  1.00  0.00     0.210 HD
ENDBRANCH  32  43
ENDBRANCH  27  30
ENDBRANCH  24  27
ENDBRANCH  11  17
ENDBRANCH   8  11
ENDBRANCH   4   7
ENDBRANCH   1   4
BRANCH   1  45
ATOM     45  C   UNL A   1      45.882  22.786  25.097  1.00  0.00    -0.052 C 
ATOM     46  H   UNL A   1      44.853  23.004  24.904  1.00  0.00     0.027 H 
ATOM     47  H   UNL A   1      46.148  22.872  26.130  1.00  0.00     0.027 H 
BRANCH  45  48
ATOM     48  C   UNL A   1      46.138  21.326  24.709  1.00  0.00    -0.052 C 
ATOM     49  H   UNL A   1      46.573  20.830  25.551  1.00  0.00     0.027 H 
ATOM     50  H   UNL A   1      46.781  21.351  23.854  1.00  0.00     0.027 H 
BRANCH  48  51
ATOM     51  C   UNL A   1      44.892  20.545  24.288  1.00  0.00    -0.036 C 
ATOM     52  H   UNL A   1      45.073  20.123  23.321  1.00  0.00     0.028 H 
ATOM     53  H   UNL A   1      44.079  21.240  24.296  1.00  0.00     0.028 H 
BRANCH  51  54
ATOM     54  C   UNL A   1      44.504  19.413  25.234  1.00  0.00     0.018 C 
ATOM     55  H   UNL A   1      44.789  19.683  26.229  1.00  0.00     0.049 H 
ATOM     56  H   UNL A   1      45.010  18.526  24.913  1.00  0.00     0.049 H 
BRANCH  54  57
ATOM     57  N   UNL A   1      43.075  19.146  25.211  1.00  0.00    -0.352 N 
ATOM     58  C   UNL A   1      42.056  19.828  25.823  1.00  0.00     0.251 C 
ATOM     59  H   UNL A   1      42.800  18.364  24.679  1.00  0.00     0.163 HD
ATOM     60  O   UNL A   1      40.921  19.353  25.849  1.00  0.00    -0.269 OA
BRANCH  58  61
ATOM     61  C   UNL A   1      42.320  21.129  26.472  1.00  0.00     0.039 A 
ATOM     62  C   UNL A   1      42.538  21.162  27.852  1.00  0.00    -0.049 A 
ATOM     63  C   UNL A   1      42.331  22.314  25.730  1.00  0.00    -0.049 A 
ATOM     64  C   UNL A   1      42.815  22.376  28.481  1.00  0.00    -0.053 A 
ATOM     65  H   UNL A   1      42.496  20.290  28.404  1.00  0.00     0.063 H 
ATOM     66  C   UNL A   1      42.672  23.515  26.346  1.00  0.00    -0.053 A 
ATOM     67  H   UNL A   1      42.086  22.298  24.728  1.00  0.00     0.063 H 
ATOM     68  C   UNL A   1      42.909  23.559  27.730  1.00  0.00    -0.014 A 
ATOM     69  H   UNL A   1      42.952  22.406  29.504  1.00  0.00     0.063 H 
ATOM     70  H   UNL A   1      42.752  24.376  25.784  1.00  0.00     0.063 H 
BRANCH  68  71
ATOM     71  C   UNL A   1      43.238  24.853  28.376  1.00  0.00     0.031 A 
ATOM     72  C   UNL A   1      42.161  25.877  28.606  1.00  0.00     0.074 A 
ATOM     73  C   UNL A   1      44.514  25.128  28.706  1.00  0.00     0.049 A 
ATOM     74  N   UNL A   1      42.257  27.083  29.105  1.00  0.00    -0.248 NA
ATOM     75  C   UNL A   1      40.798  25.503  28.198  1.00  0.00    -0.034 C 
ATOM     76  C   UNL A   1      45.654  24.235  28.493  1.00  0.00    -0.036 A 
ATOM     77  N   UNL A   1      45.068  26.243  29.285  1.00  0.00    -0.354 N 
ATOM     78  C   UNL A   1      40.977  27.617  29.055  1.00  0.00     0.074 A 
ATOM     79  C   UNL A   1      40.129  26.623  28.431  1.00  0.00    -0.034 C 
ATOM     80  H   UNL A   1      40.453  24.604  27.826  1.00  0.00     0.065 H 
ATOM     81  C   UNL A   1      46.767  24.827  28.954  1.00  0.00    -0.036 A 
ATOM     82  H   UNL A   1      45.609  23.301  28.056  1.00  0.00     0.065 H 
ATOM     83  C   UNL A   1      46.426  26.151  29.466  1.00  0.00     0.049 A 
ATOM     84  H   UNL A   1      44.541  27.033  29.545  1.00  0.00     0.167 HD
ATOM     85  C   UNL A   1      40.541  28.815  29.509  1.00  0.00     0.037 A 
ATOM     86  H   UNL A   1      39.134  26.768  28.199  1.00  0.00     0.065 H 
ATOM     87  H   UNL A   1      47.711  24.412  28.949  1.00  0.00     0.065 H 
ATOM     88  C   UNL A   1      47.297  27.037  29.985  1.00  0.00     0.037 A 
ATOM     89  C   UNL A   1      41.381  29.790  30.155  1.00  0.00     0.049 A 
ATOM     90  C   UNL A   1      46.787  28.361  30.487  1.00  0.00     0.074 A 
ATOM     91  C   UNL A   1      41.025  31.009  30.705  1.00  0.00    -0.036 A 
ATOM     92  N   UNL A   1      42.750  29.653  30.340  1.00  0.00    -0.354 N 
ATOM     93  N   UNL A   1      45.562  28.828  30.494  1.00  0.00    -0.248 NA
ATOM     94  C   UNL A   1      47.782  29.278  31.059  1.00  0.00    -0.034 C 
ATOM     95  C   UNL A   1      42.184  31.628  31.186  1.00  0.00    -0.036 A 
ATOM     96  H   UNL A   1      40.069  31.395  30.752  1.00  0.00     0.065 H 
ATOM     97  C   UNL A   1      43.256  30.774  30.978  1.00  0.00     0.049 A 
ATOM     98  H   UNL A   1      43.282  28.874  30.059  1.00  0.00     0.167 HD
ATOM     99  C   UNL A   1      45.633  30.076  31.097  1.00  0.00     0.074 A 
ATOM    100  C   UNL A   1      47.020  30.289  31.453  1.00  0.00    -0.034 C 
ATOM    101  H   UNL A   1      48.805  29.166  31.134  1.00  0.00     0.065 H 
ATOM    102  H   UNL A   1      42.233  32.563  31.622  1.00  0.00     0.065 H 
ATOM    103  C   UNL A   1      44.638  30.965  31.334  1.00  0.00     0.037 A 
ATOM    104  H   UNL A   1      47.372  31.122  31.950  1.00  0.00     0.065 H 
BRANCH  85 105
ATOM    105  C   UNL A   1      39.087  29.139  29.325  1.00  0.00     0.064 A 
ATOM    106  C   UNL A   1      38.192  29.141  30.406  1.00  0.00     0.173 A 
ATOM    107  C   UNL A   1      38.588  29.481  28.059  1.00  0.00     0.173 A 
ATOM    108  F   UNL A   1      38.616  28.809  31.634  1.00  0.00    -0.203 F 
ATOM    109  C   UNL A   1      36.845  29.442  30.220  1.00  0.00     0.198 A 
ATOM    110  C   UNL A   1      37.246  29.811  27.883  1.00  0.00     0.198 A 
ATOM    111  F   UNL A   1      39.401  29.502  26.993  1.00  0.00    -0.203 F 
ATOM    112  F   UNL A   1      36.000  29.386  31.258  1.00  0.00    -0.200 F 
ATOM    113  C   UNL A   1      36.375  29.783  28.962  1.00  0.00     0.200 A 
ATOM    114  F   UNL A   1      36.795  30.152  26.668  1.00  0.00    -0.200 F 
ATOM    115  F   UNL A   1      35.079  30.077  28.786  1.00  0.00    -0.200 F 
ENDBRANCH  85 105
BRANCH  88 116
ATOM    116  C   UNL A   1      48.736  26.687  30.090  1.00  0.00     0.064 A 
ATOM    117  C   UNL A   1      49.222  25.971  31.194  1.00  0.00     0.173 A 
ATOM    118  C   UNL A   1      49.655  27.060  29.099  1.00  0.00     0.173 A 
ATOM    119  F   UNL A   1      48.384  25.611  32.178  1.00  0.00    -0.203 F 
ATOM    120  C   UNL A   1      50.574  25.659  31.312  1.00  0.00     0.198 A 
ATOM    121  C   UNL A   1      51.003  26.726  29.204  1.00  0.00     0.198 A 
ATOM    122  F   UNL A   1      49.240  27.743  28.021  1.00  0.00    -0.203 F 
ATOM    123  F   UNL A   1      51.018  25.013  32.398  1.00  0.00    -0.200 F 
ATOM    124  C   UNL A   1      51.462  26.032  30.315  1.00  0.00     0.200 A 
ATOM    125  F   UNL A   1      51.856  27.075  28.233  1.00  0.00    -0.200 F 
ATOM    126  F   UNL A   1      52.763  25.729  30.426  1.00  0.00    -0.200 F 
ENDBRANCH  88 116
BRANCH 103 127
ATOM    127  C   UNL A   1      45.008  32.234  32.045  1.00  0.00     0.064 A 
ATOM    128  C   UNL A   1      45.598  33.311  31.368  1.00  0.00     0.173 A 
ATOM    129  C   UNL A   1      44.736  32.386  33.413  1.00  0.00     0.173 A 
ATOM    130  F   UNL A   1      45.893  33.209  30.063  1.00  0.00    -0.203 F 
ATOM    131  C   UNL A   1      45.928  34.484  32.041  1.00  0.00     0.198 A 
ATOM    132  C   UNL A   1      45.040  33.570  34.077  1.00  0.00     0.198 A 
ATOM    133  F   UNL A   1      44.166  31.387  34.104  1.00  0.00    -0.203 F 
ATOM    134  F   UNL A   1      46.535  35.483  31.386  1.00  0.00    -0.200 F 
ATOM    135  C   UNL A   1      45.642  34.615  33.393  1.00  0.00     0.200 A 
ATOM    136  F   UNL A   1      44.753  33.699  35.379  1.00  0.00    -0.200 F 
ATOM    137  F   UNL A   1      45.955  35.747  34.038  1.00  0.00    -0.200 F 
ENDBRANCH 103 127
ENDBRANCH  68  71
ENDBRANCH  58  61
ENDBRANCH  54  57
ENDBRANCH  51  54
ENDBRANCH  48  51
ENDBRANCH  45  48
ENDBRANCH   1  45
TORSDOF 18
ENDMDL
MODEL 3
REMARK VINA RESULT:     -11.6      4.787     10.360
REMARK SMILES C[C@@H](C(=O)NCCCCCCNC(=O)c1ccc(-c2c3nc(c(-c4c(F)c(F)c(F)c(F)c4F)c4ccc([nH]4)c(-c4c(F)c(F)c(F)c(F)c4F)c4nc(c(-c5c(F)c(F)c(F)c(F)c5F)c5ccc2[nH]5)C=C4)C=C3)cc1)c1ccc(C[C@@H]2CCC[C@@H]2O)cc1F
REMARK SMILES IDX 7 1 6 4 5 7 3 8 4 9 2 11 1 13 78 17 79 18 90 19 80 20 89 22
REMARK SMILES IDX 91 23 81 24 82 27 83 30 84 31 87 32 85 34 86 37 88 43 8 45
REMARK SMILES IDX 9 48 10 51 11 54 12 57 13 58 14 60 15 61 16 62 77 63 17 64
REMARK SMILES IDX 76 66 18 68 19 71 20 72 70 73 21 74 75 75 69 76 71 77 22 78
REMARK SMILES IDX 74 79 68 81 67 83 23 85 55 88 35 89 54 90 36 91 39 92 53 93
REMARK SMILES IDX 72 94 37 95 38 97 52 99 73 100 40 103 24 105 25 106 33 107
REMARK SMILES IDX 26 108 27 109 31 110 34 111 28 112 29 113 32 114 30 115
REMARK SMILES IDX 56 116 57 117 65 118 58 119 59 120 63 121 66 122 60 123
REMARK SMILES IDX 61 124 64 125 62 126 41 127 42 128 50 129 43 130 44 131
REMARK SMILES IDX 48 132 51 133 45 134 46 135 49 136 47 137
REMARK H PARENT 7 2 7 3 6 5 6 6 5 10 2 12 1 14 1 15 1 16 79 21 80 25 89 26
REMARK H PARENT 82 28 82 29 83 33 84 35 84 36 87 38 85 39 85 40 86 41 86 42
REMARK H PARENT 88 44 8 46 8 47 9 49 9 50 10 52 10 53 11 55 11 56 12 59 16 65
REMARK H PARENT 77 67 17 69 76 70 75 80 69 82 71 84 74 86 68 87 36 96 39 98
REMARK H PARENT 72 101 37 102 73 104
REMARK Flexibility Score: inf
ROOT
ATOM      1  C   UNL A   1      34.369  26.196  25.930  1.00  0.00    -0.036 C 
ATOM      2  H   UNL A   1      35.247  26.558  25.437  1.00  0.00     0.028 H 
ATOM      3  H   UNL A   1      34.405  26.339  26.989  1.00  0.00     0.028 H 
ENDROOT
BRANCH   1   4
ATOM      4  C   UNL A   1      34.267  24.689  25.686  1.00  0.00     0.017 C 
ATOM      5  H   UNL A   1      34.926  24.178  26.356  1.00  0.00     0.049 H 
ATOM      6  H   UNL A   1      33.257  24.377  25.856  1.00  0.00     0.049 H 
BRANCH   4   7
ATOM      7  N   UNL A   1      34.632  24.374  24.322  1.00  0.00    -0.356 N 
ATOM      8  C   UNL A   1      34.030  23.546  23.421  1.00  0.00     0.227 C 
ATOM      9  O   UNL A   1      34.644  23.325  22.376  1.00  0.00    -0.274 OA
ATOM     10  H   UNL A   1      35.443  24.825  23.994  1.00  0.00     0.163 HD
BRANCH   8  11
ATOM     11  C   UNL A   1      32.622  23.006  23.703  1.00  0.00     0.063 C 
ATOM     12  H   UNL A   1      32.652  22.551  24.671  1.00  0.00     0.045 H 
BRANCH  11  13
ATOM     13  C   UNL A   1      32.203  21.889  22.738  1.00  0.00    -0.049 C 
ATOM     14  H   UNL A   1      32.394  20.938  23.189  1.00  0.00     0.024 H 
ATOM     15  H   UNL A   1      32.764  21.972  21.830  1.00  0.00     0.024 H 
ATOM     16  H   UNL A   1      31.159  21.978  22.521  1.00  0.00     0.024 H 
ENDBRANCH  11  13
BRANCH  11  17
ATOM     17  C   UNL A   1      31.603  24.135  23.751  1.00  0.00    -0.000 A 
ATOM     18  C   UNL A   1      31.558  25.074  22.709  1.00  0.00    -0.055 A 
ATOM     19  C   UNL A   1      30.674  24.260  24.789  1.00  0.00     0.127 A 
ATOM     20  C   UNL A   1      30.663  26.146  22.755  1.00  0.00    -0.059 A 
ATOM     21  H   UNL A   1      32.192  24.972  21.902  1.00  0.00     0.063 H 
ATOM     22  C   UNL A   1      29.800  25.339  24.851  1.00  0.00    -0.023 A 
ATOM     23  F   UNL A   1      30.627  23.355  25.775  1.00  0.00    -0.207 F 
ATOM     24  C   UNL A   1      29.814  26.320  23.853  1.00  0.00    -0.045 A 
ATOM     25  H   UNL A   1      30.627  26.816  21.971  1.00  0.00     0.063 H 
ATOM     26  H   UNL A   1      29.137  25.417  25.638  1.00  0.00     0.066 H 
BRANCH  24  27
ATOM     27  C   UNL A   1      28.951  27.548  23.998  1.00  0.00    -0.022 C 
ATOM     28  H   UNL A   1      29.261  28.054  24.889  1.00  0.00     0.032 H 
ATOM     29  H   UNL A   1      27.948  27.178  24.007  1.00  0.00     0.032 H 
BRANCH  27  30
ATOM     30  C   UNL A   1      28.983  28.580  22.846  1.00  0.00    -0.011 C 
ATOM     31  C   UNL A   1      30.005  29.709  23.023  1.00  0.00    -0.048 C 
ATOM     32  C   UNL A   1      27.690  29.345  22.540  1.00  0.00     0.057 C 
ATOM     33  H   UNL A   1      29.220  27.900  22.055  1.00  0.00     0.033 H 
ATOM     34  C   UNL A   1      29.231  30.939  23.505  1.00  0.00    -0.050 C 
ATOM     35  H   UNL A   1      30.487  29.919  22.090  1.00  0.00     0.027 H 
ATOM     36  H   UNL A   1      30.763  29.433  23.726  1.00  0.00     0.027 H 
ATOM     37  C   UNL A   1      27.750  30.588  23.417  1.00  0.00    -0.027 C 
ATOM     38  H   UNL A   1      27.627  29.595  21.502  1.00  0.00     0.060 H 
ATOM     39  H   UNL A   1      29.449  31.779  22.879  1.00  0.00     0.027 H 
ATOM     40  H   UNL A   1      29.506  31.197  24.506  1.00  0.00     0.027 H 
ATOM     41  H   UNL A   1      27.200  31.390  22.970  1.00  0.00     0.029 H 
ATOM     42  H   UNL A   1      27.318  30.422  24.381  1.00  0.00     0.029 H 
BRANCH  32  43
ATOM     43  O   UNL A   1      26.523  28.578  22.754  1.00  0.00    -0.393 OA
ATOM     44  H   UNL A   1      26.147  28.318  21.898  1.00  0.00     0.210 HD
ENDBRANCH  32  43
ENDBRANCH  27  30
ENDBRANCH  24  27
ENDBRANCH  11  17
ENDBRANCH   8  11
ENDBRANCH   4   7
ENDBRANCH   1   4
BRANCH   1  45
ATOM     45  C   UNL A   1      33.162  26.991  25.413  1.00  0.00    -0.052 C 
ATOM     46  H   UNL A   1      32.634  26.377  24.713  1.00  0.00     0.027 H 
ATOM     47  H   UNL A   1      33.556  27.886  24.979  1.00  0.00     0.027 H 
BRANCH  45  48
ATOM     48  C   UNL A   1      32.171  27.439  26.492  1.00  0.00    -0.052 C 
ATOM     49  H   UNL A   1      32.610  27.245  27.448  1.00  0.00     0.027 H 
ATOM     50  H   UNL A   1      31.270  26.887  26.320  1.00  0.00     0.027 H 
BRANCH  48  51
ATOM     51  C   UNL A   1      31.786  28.919  26.438  1.00  0.00    -0.036 C 
ATOM     52  H   UNL A   1      31.522  29.232  27.427  1.00  0.00     0.028 H 
ATOM     53  H   UNL A   1      30.975  28.997  25.744  1.00  0.00     0.028 H 
BRANCH  51  54
ATOM     54  C   UNL A   1      32.886  29.841  25.924  1.00  0.00     0.018 C 
ATOM     55  H   UNL A   1      32.922  29.774  24.857  1.00  0.00     0.049 H 
ATOM     56  H   UNL A   1      33.811  29.528  26.364  1.00  0.00     0.049 H 
BRANCH  54  57
ATOM     57  N   UNL A   1      32.659  31.227  26.300  1.00  0.00    -0.352 N 
ATOM     58  C   UNL A   1      33.291  31.981  27.255  1.00  0.00     0.251 C 
ATOM     59  H   UNL A   1      31.951  31.691  25.796  1.00  0.00     0.163 HD
ATOM     60  O   UNL A   1      32.844  33.084  27.568  1.00  0.00    -0.269 OA
BRANCH  58  61
ATOM     61  C   UNL A   1      34.500  31.463  27.927  1.00  0.00     0.039 A 
ATOM     62  C   UNL A   1      35.593  32.316  28.100  1.00  0.00    -0.049 A 
ATOM     63  C   UNL A   1      34.566  30.137  28.366  1.00  0.00    -0.049 A 
ATOM     64  C   UNL A   1      36.735  31.854  28.756  1.00  0.00    -0.053 A 
ATOM     65  H   UNL A   1      35.555  33.284  27.745  1.00  0.00     0.063 H 
ATOM     66  C   UNL A   1      35.679  29.697  29.078  1.00  0.00    -0.053 A 
ATOM     67  H   UNL A   1      33.792  29.485  28.162  1.00  0.00     0.063 H 
ATOM     68  C   UNL A   1      36.778  30.548  29.272  1.00  0.00    -0.014 A 
ATOM     69  H   UNL A   1      37.553  32.475  28.863  1.00  0.00     0.063 H 
ATOM     70  H   UNL A   1      35.696  28.740  29.465  1.00  0.00     0.063 H 
BRANCH  68  71
ATOM     71  C   UNL A   1      37.970  30.052  30.004  1.00  0.00     0.031 A 
ATOM     72  C   UNL A   1      38.237  30.512  31.409  1.00  0.00     0.074 A 
ATOM     73  C   UNL A   1      38.838  29.231  29.384  1.00  0.00     0.049 A 
ATOM     74  N   UNL A   1      39.249  30.236  32.194  1.00  0.00    -0.248 NA
ATOM     75  C   UNL A   1      37.248  31.425  32.004  1.00  0.00    -0.034 C 
ATOM     76  C   UNL A   1      38.712  28.749  28.007  1.00  0.00    -0.036 A 
ATOM     77  N   UNL A   1      40.005  28.662  29.830  1.00  0.00    -0.354 N 
ATOM     78  C   UNL A   1      39.027  30.951  33.363  1.00  0.00     0.074 A 
ATOM     79  C   UNL A   1      37.812  31.713  33.168  1.00  0.00    -0.034 C 
ATOM     80  H   UNL A   1      36.351  31.754  31.616  1.00  0.00     0.065 H 
ATOM     81  C   UNL A   1      39.747  27.941  27.728  1.00  0.00    -0.036 A 
ATOM     82  H   UNL A   1      37.950  28.994  27.355  1.00  0.00     0.065 H 
ATOM     83  C   UNL A   1      40.625  27.872  28.893  1.00  0.00     0.049 A 
ATOM     84  H   UNL A   1      40.364  28.806  30.736  1.00  0.00     0.167 HD
ATOM     85  C   UNL A   1      39.756  30.954  34.503  1.00  0.00     0.037 A 
ATOM     86  H   UNL A   1      37.434  32.393  33.847  1.00  0.00     0.065 H 
ATOM     87  H   UNL A   1      39.897  27.447  26.836  1.00  0.00     0.065 H 
ATOM     88  C   UNL A   1      41.773  27.172  28.966  1.00  0.00     0.037 A 
ATOM     89  C   UNL A   1      40.948  30.172  34.704  1.00  0.00     0.049 A 
ATOM     90  C   UNL A   1      42.562  27.188  30.248  1.00  0.00     0.074 A 
ATOM     91  C   UNL A   1      41.726  30.060  35.844  1.00  0.00    -0.036 A 
ATOM     92  N   UNL A   1      41.535  29.367  33.739  1.00  0.00    -0.354 N 
ATOM     93  N   UNL A   1      42.308  27.816  31.370  1.00  0.00    -0.248 NA
ATOM     94  C   UNL A   1      43.796  26.392  30.273  1.00  0.00    -0.034 C 
ATOM     95  C   UNL A   1      42.805  29.217  35.555  1.00  0.00    -0.036 A 
ATOM     96  H   UNL A   1      41.541  30.517  36.750  1.00  0.00     0.065 H 
ATOM     97  C   UNL A   1      42.675  28.769  34.251  1.00  0.00     0.049 A 
ATOM     98  H   UNL A   1      41.191  29.240  32.824  1.00  0.00     0.167 HD
ATOM     99  C   UNL A   1      43.329  27.468  32.242  1.00  0.00     0.074 A 
ATOM    100  C   UNL A   1      44.202  26.563  31.523  1.00  0.00    -0.034 C 
ATOM    101  H   UNL A   1      44.234  25.843  29.516  1.00  0.00     0.065 H 
ATOM    102  H   UNL A   1      43.569  28.971  36.205  1.00  0.00     0.065 H 
ATOM    103  C   UNL A   1      43.526  27.862  33.524  1.00  0.00     0.037 A 
ATOM    104  H   UNL A   1      45.034  26.110  31.932  1.00  0.00     0.065 H 
BRANCH  85 105
ATOM    105  C   UNL A   1      39.281  31.829  35.627  1.00  0.00     0.064 A 
ATOM    106  C   UNL A   1      39.708  33.160  35.753  1.00  0.00     0.173 A 
ATOM    107  C   UNL A   1      38.365  31.342  36.571  1.00  0.00     0.173 A 
ATOM    108  F   UNL A   1      40.593  33.670  34.884  1.00  0.00    -0.203 F 
ATOM    109  C   UNL A   1      39.261  33.960  36.802  1.00  0.00     0.198 A 
ATOM    110  C   UNL A   1      37.896  32.155  37.601  1.00  0.00     0.198 A 
ATOM    111  F   UNL A   1      37.919  30.079  36.494  1.00  0.00    -0.203 F 
ATOM    112  F   UNL A   1      39.723  35.211  36.931  1.00  0.00    -0.200 F 
ATOM    113  C   UNL A   1      38.351  33.459  37.720  1.00  0.00     0.200 A 
ATOM    114  F   UNL A   1      37.008  31.674  38.481  1.00  0.00    -0.200 F 
ATOM    115  F   UNL A   1      37.918  34.233  38.725  1.00  0.00    -0.200 F 
ENDBRANCH  85 105
BRANCH  88 116
ATOM    116  C   UNL A   1      42.226  26.368  27.803  1.00  0.00     0.064 A 
ATOM    117  C   UNL A   1      41.705  25.087  27.570  1.00  0.00     0.173 A 
ATOM    118  C   UNL A   1      43.188  26.856  26.907  1.00  0.00     0.173 A 
ATOM    119  F   UNL A   1      40.799  24.570  28.412  1.00  0.00    -0.203 F 
ATOM    120  C   UNL A   1      42.143  24.317  26.495  1.00  0.00     0.198 A 
ATOM    121  C   UNL A   1      43.606  26.095  25.816  1.00  0.00     0.198 A 
ATOM    122  F   UNL A   1      43.714  28.076  27.084  1.00  0.00    -0.203 F 
ATOM    123  F   UNL A   1      41.660  23.079  26.319  1.00  0.00    -0.200 F 
ATOM    124  C   UNL A   1      43.089  24.824  25.616  1.00  0.00     0.200 A 
ATOM    125  F   UNL A   1      44.509  26.593  24.963  1.00  0.00    -0.200 F 
ATOM    126  F   UNL A   1      43.507  24.085  24.580  1.00  0.00    -0.200 F 
ENDBRANCH  88 116
BRANCH 103 127
ATOM    127  C   UNL A   1      44.711  27.287  34.243  1.00  0.00     0.064 A 
ATOM    128  C   UNL A   1      44.632  26.072  34.938  1.00  0.00     0.173 A 
ATOM    129  C   UNL A   1      45.950  27.945  34.206  1.00  0.00     0.173 A 
ATOM    130  F   UNL A   1      43.466  25.413  35.016  1.00  0.00    -0.203 F 
ATOM    131  C   UNL A   1      45.744  25.549  35.593  1.00  0.00     0.198 A 
ATOM    132  C   UNL A   1      47.067  27.406  34.838  1.00  0.00     0.198 A 
ATOM    133  F   UNL A   1      46.080  29.108  33.549  1.00  0.00    -0.203 F 
ATOM    134  F   UNL A   1      45.634  24.411  36.292  1.00  0.00    -0.200 F 
ATOM    135  C   UNL A   1      46.961  26.212  35.536  1.00  0.00     0.200 A 
ATOM    136  F   UNL A   1      48.244  28.042  34.772  1.00  0.00    -0.200 F 
ATOM    137  F   UNL A   1      48.032  25.706  36.163  1.00  0.00    -0.200 F 
ENDBRANCH 103 127
ENDBRANCH  68  71
ENDBRANCH  58  61
ENDBRANCH  54  57
ENDBRANCH  51  54
ENDBRANCH  48  51
ENDBRANCH  45  48
ENDBRANCH   1  45
TORSDOF 18
ENDMDL
MODEL 4
REMARK VINA RESULT:     -11.6      5.538     10.022
REMARK SMILES C[C@@H](C(=O)NCCCCCCNC(=O)c1ccc(-c2c3nc(c(-c4c(F)c(F)c(F)c(F)c4F)c4ccc([nH]4)c(-c4c(F)c(F)c(F)c(F)c4F)c4nc(c(-c5c(F)c(F)c(F)c(F)c5F)c5ccc2[nH]5)C=C4)C=C3)cc1)c1ccc(C[C@@H]2CCC[C@@H]2O)cc1F
REMARK SMILES IDX 7 1 6 4 5 7 3 8 4 9 2 11 1 13 78 17 79 18 90 19 80 20 89 22
REMARK SMILES IDX 91 23 81 24 82 27 83 30 84 31 87 32 85 34 86 37 88 43 8 45
REMARK SMILES IDX 9 48 10 51 11 54 12 57 13 58 14 60 15 61 16 62 77 63 17 64
REMARK SMILES IDX 76 66 18 68 19 71 20 72 70 73 21 74 75 75 69 76 71 77 22 78
REMARK SMILES IDX 74 79 68 81 67 83 23 85 55 88 35 89 54 90 36 91 39 92 53 93
REMARK SMILES IDX 72 94 37 95 38 97 52 99 73 100 40 103 24 105 25 106 33 107
REMARK SMILES IDX 26 108 27 109 31 110 34 111 28 112 29 113 32 114 30 115
REMARK SMILES IDX 56 116 57 117 65 118 58 119 59 120 63 121 66 122 60 123
REMARK SMILES IDX 61 124 64 125 62 126 41 127 42 128 50 129 43 130 44 131
REMARK SMILES IDX 48 132 51 133 45 134 46 135 49 136 47 137
REMARK H PARENT 7 2 7 3 6 5 6 6 5 10 2 12 1 14 1 15 1 16 79 21 80 25 89 26
REMARK H PARENT 82 28 82 29 83 33 84 35 84 36 87 38 85 39 85 40 86 41 86 42
REMARK H PARENT 88 44 8 46 8 47 9 49 9 50 10 52 10 53 11 55 11 56 12 59 16 65
REMARK H PARENT 77 67 17 69 76 70 75 80 69 82 71 84 74 86 68 87 36 96 39 98
REMARK H PARENT 72 101 37 102 73 104
REMARK Flexibility Score: inf
ROOT
ATOM      1  C   UNL A   1      32.282  28.637  27.435  1.00  0.00    -0.036 C 
ATOM      2  H   UNL A   1      33.170  28.366  27.968  1.00  0.00     0.028 H 
ATOM      3  H   UNL A   1      31.587  29.175  28.044  1.00  0.00     0.028 H 
ENDROOT
BRANCH   1   4
ATOM      4  C   UNL A   1      31.581  27.355  26.982  1.00  0.00     0.017 C 
ATOM      5  H   UNL A   1      31.103  26.899  27.824  1.00  0.00     0.049 H 
ATOM      6  H   UNL A   1      30.854  27.600  26.237  1.00  0.00     0.049 H 
BRANCH   4   7
ATOM      7  N   UNL A   1      32.538  26.429  26.418  1.00  0.00    -0.356 N 
ATOM      8  C   UNL A   1      32.347  25.373  25.577  1.00  0.00     0.227 C 
ATOM      9  O   UNL A   1      33.318  24.640  25.379  1.00  0.00    -0.274 OA
ATOM     10  H   UNL A   1      33.473  26.585  26.683  1.00  0.00     0.163 HD
BRANCH   8  11
ATOM     11  C   UNL A   1      30.996  25.193  24.872  1.00  0.00     0.063 C 
ATOM     12  H   UNL A   1      30.254  25.117  25.639  1.00  0.00     0.045 H 
BRANCH  11  13
ATOM     13  C   UNL A   1      30.902  23.882  24.081  1.00  0.00    -0.049 C 
ATOM     14  H   UNL A   1      29.877  23.587  23.999  1.00  0.00     0.024 H 
ATOM     15  H   UNL A   1      31.454  23.118  24.588  1.00  0.00     0.024 H 
ATOM     16  H   UNL A   1      31.311  24.026  23.102  1.00  0.00     0.024 H 
ENDBRANCH  11  13
BRANCH  11  17
ATOM     17  C   UNL A   1      30.661  26.406  24.017  1.00  0.00    -0.000 A 
ATOM     18  C   UNL A   1      31.673  27.032  23.272  1.00  0.00    -0.055 A 
ATOM     19  C   UNL A   1      29.361  26.911  23.913  1.00  0.00     0.127 A 
ATOM     20  C   UNL A   1      31.397  28.175  22.517  1.00  0.00    -0.059 A 
ATOM     21  H   UNL A   1      32.629  26.644  23.283  1.00  0.00     0.063 H 
ATOM     22  C   UNL A   1      29.089  28.062  23.184  1.00  0.00    -0.023 A 
ATOM     23  F   UNL A   1      28.344  26.314  24.549  1.00  0.00    -0.207 F 
ATOM     24  C   UNL A   1      30.115  28.733  22.511  1.00  0.00    -0.045 A 
ATOM     25  H   UNL A   1      32.148  28.611  21.959  1.00  0.00     0.063 H 
ATOM     26  H   UNL A   1      28.123  28.425  23.140  1.00  0.00     0.066 H 
BRANCH  24  27
ATOM     27  C   UNL A   1      29.831  30.048  21.830  1.00  0.00    -0.022 C 
ATOM     28  H   UNL A   1      30.126  29.949  20.806  1.00  0.00     0.032 H 
ATOM     29  H   UNL A   1      30.377  30.773  22.395  1.00  0.00     0.032 H 
BRANCH  27  30
ATOM     30  C   UNL A   1      28.369  30.556  21.842  1.00  0.00    -0.011 C 
ATOM     31  C   UNL A   1      27.878  31.132  20.508  1.00  0.00    -0.048 C 
ATOM     32  C   UNL A   1      28.010  31.664  22.838  1.00  0.00     0.057 C 
ATOM     33  H   UNL A   1      27.902  29.633  22.114  1.00  0.00     0.033 H 
ATOM     34  C   UNL A   1      27.938  32.657  20.634  1.00  0.00    -0.050 C 
ATOM     35  H   UNL A   1      26.874  30.816  20.319  1.00  0.00     0.027 H 
ATOM     36  H   UNL A   1      28.487  30.790  19.697  1.00  0.00     0.027 H 
ATOM     37  C   UNL A   1      28.267  32.965  22.090  1.00  0.00    -0.027 C 
ATOM     38  H   UNL A   1      26.990  31.583  23.152  1.00  0.00     0.060 H 
ATOM     39  H   UNL A   1      26.993  33.084  20.371  1.00  0.00     0.027 H 
ATOM     40  H   UNL A   1      28.675  33.068  19.978  1.00  0.00     0.027 H 
ATOM     41  H   UNL A   1      27.633  33.744  22.461  1.00  0.00     0.029 H 
ATOM     42  H   UNL A   1      29.273  33.306  22.211  1.00  0.00     0.029 H 
BRANCH  32  43
ATOM     43  O   UNL A   1      28.725  31.577  24.053  1.00  0.00    -0.393 OA
ATOM     44  H   UNL A   1      28.104  31.429  24.783  1.00  0.00     0.210 HD
ENDBRANCH  32  43
ENDBRANCH  27  30
ENDBRANCH  24  27
ENDBRANCH  11  17
ENDBRANCH   8  11
ENDBRANCH   4   7
ENDBRANCH   1   4
BRANCH   1  45
ATOM     45  C   UNL A   1      32.677  29.568  26.280  1.00  0.00    -0.052 C 
ATOM     46  H   UNL A   1      33.030  28.963  25.471  1.00  0.00     0.027 H 
ATOM     47  H   UNL A   1      33.421  30.230  26.670  1.00  0.00     0.027 H 
BRANCH  45  48
ATOM     48  C   UNL A   1      31.548  30.457  25.750  1.00  0.00    -0.052 C 
ATOM     49  H   UNL A   1      30.637  29.900  25.795  1.00  0.00     0.027 H 
ATOM     50  H   UNL A   1      31.827  30.735  24.755  1.00  0.00     0.027 H 
BRANCH  48  51
ATOM     51  C   UNL A   1      31.344  31.765  26.519  1.00  0.00    -0.036 C 
ATOM     52  H   UNL A   1      30.710  31.564  27.357  1.00  0.00     0.028 H 
ATOM     53  H   UNL A   1      30.916  32.461  25.827  1.00  0.00     0.028 H 
BRANCH  51  54
ATOM     54  C   UNL A   1      32.629  32.403  27.036  1.00  0.00     0.018 C 
ATOM     55  H   UNL A   1      33.371  32.359  26.266  1.00  0.00     0.049 H 
ATOM     56  H   UNL A   1      32.940  31.860  27.905  1.00  0.00     0.049 H 
BRANCH  54  57
ATOM     57  N   UNL A   1      32.435  33.791  27.423  1.00  0.00    -0.352 N 
ATOM     58  C   UNL A   1      33.056  34.511  28.408  1.00  0.00     0.251 C 
ATOM     59  H   UNL A   1      31.760  34.283  26.900  1.00  0.00     0.163 HD
ATOM     60  O   UNL A   1      32.636  35.625  28.720  1.00  0.00    -0.269 OA
BRANCH  58  61
ATOM     61  C   UNL A   1      34.223  33.945  29.115  1.00  0.00     0.039 A 
ATOM     62  C   UNL A   1      34.016  32.938  30.061  1.00  0.00    -0.049 A 
ATOM     63  C   UNL A   1      35.515  34.420  28.865  1.00  0.00    -0.049 A 
ATOM     64  C   UNL A   1      35.107  32.372  30.721  1.00  0.00    -0.053 A 
ATOM     65  H   UNL A   1      33.058  32.614  30.270  1.00  0.00     0.063 H 
ATOM     66  C   UNL A   1      36.608  33.809  29.475  1.00  0.00    -0.053 A 
ATOM     67  H   UNL A   1      35.658  35.220  28.230  1.00  0.00     0.063 H 
ATOM     68  C   UNL A   1      36.414  32.786  30.416  1.00  0.00    -0.014 A 
ATOM     69  H   UNL A   1      34.953  31.646  31.439  1.00  0.00     0.063 H 
ATOM     70  H   UNL A   1      37.565  34.111  29.234  1.00  0.00     0.063 H 
BRANCH  68  71
ATOM     71  C   UNL A   1      37.588  32.170  31.082  1.00  0.00     0.031 A 
ATOM     72  C   UNL A   1      38.382  31.106  30.378  1.00  0.00     0.074 A 
ATOM     73  C   UNL A   1      37.906  32.530  32.340  1.00  0.00     0.049 A 
ATOM     74  N   UNL A   1      39.404  30.411  30.811  1.00  0.00    -0.248 NA
ATOM     75  C   UNL A   1      37.955  30.758  29.013  1.00  0.00    -0.034 C 
ATOM     76  C   UNL A   1      37.186  33.518  33.145  1.00  0.00    -0.036 A 
ATOM     77  N   UNL A   1      38.914  32.099  33.167  1.00  0.00    -0.354 N 
ATOM     78  C   UNL A   1      39.729  29.536  29.783  1.00  0.00     0.074 A 
ATOM     79  C   UNL A   1      38.767  29.752  28.724  1.00  0.00    -0.034 C 
ATOM     80  H   UNL A   1      37.216  31.186  28.434  1.00  0.00     0.065 H 
ATOM     81  C   UNL A   1      37.787  33.634  34.339  1.00  0.00    -0.036 A 
ATOM     82  H   UNL A   1      36.348  34.041  32.842  1.00  0.00     0.065 H 
ATOM     83  C   UNL A   1      38.914  32.708  34.397  1.00  0.00     0.049 A 
ATOM     84  H   UNL A   1      39.574  31.418  32.901  1.00  0.00     0.167 HD
ATOM     85  C   UNL A   1      40.752  28.652  29.717  1.00  0.00     0.037 A 
ATOM     86  H   UNL A   1      38.718  29.194  27.857  1.00  0.00     0.065 H 
ATOM     87  H   UNL A   1      37.500  34.275  35.094  1.00  0.00     0.065 H 
ATOM     88  C   UNL A   1      39.731  32.536  35.453  1.00  0.00     0.037 A 
ATOM     89  C   UNL A   1      41.726  28.461  30.760  1.00  0.00     0.049 A 
ATOM     90  C   UNL A   1      40.864  31.549  35.353  1.00  0.00     0.074 A 
ATOM     91  C   UNL A   1      42.835  27.633  30.766  1.00  0.00    -0.036 A 
ATOM     92  N   UNL A   1      41.706  29.111  31.986  1.00  0.00    -0.354 N 
ATOM     93  N   UNL A   1      41.201  30.775  34.350  1.00  0.00    -0.248 NA
ATOM     94  C   UNL A   1      41.732  31.419  36.531  1.00  0.00    -0.034 C 
ATOM     95  C   UNL A   1      43.463  27.752  32.011  1.00  0.00    -0.036 A 
ATOM     96  H   UNL A   1      43.145  27.032  29.987  1.00  0.00     0.065 H 
ATOM     97  C   UNL A   1      42.773  28.689  32.763  1.00  0.00     0.049 A 
ATOM     98  H   UNL A   1      41.033  29.775  32.262  1.00  0.00     0.167 HD
ATOM     99  C   UNL A   1      42.335  30.090  34.763  1.00  0.00     0.074 A 
ATOM    100  C   UNL A   1      42.636  30.549  36.103  1.00  0.00    -0.034 C 
ATOM    101  H   UNL A   1      41.658  31.882  37.450  1.00  0.00     0.065 H 
ATOM    102  H   UNL A   1      44.300  27.230  32.317  1.00  0.00     0.065 H 
ATOM    103  C   UNL A   1      43.063  29.164  34.091  1.00  0.00     0.037 A 
ATOM    104  H   UNL A   1      43.450  30.238  36.655  1.00  0.00     0.065 H 
BRANCH  85 105
ATOM    105  C   UNL A   1      40.872  27.823  28.471  1.00  0.00     0.064 A 
ATOM    106  C   UNL A   1      40.228  26.583  28.348  1.00  0.00     0.173 A 
ATOM    107  C   UNL A   1      41.616  28.288  27.375  1.00  0.00     0.173 A 
ATOM    108  F   UNL A   1      39.516  26.088  29.371  1.00  0.00    -0.203 F 
ATOM    109  C   UNL A   1      40.350  25.824  27.187  1.00  0.00     0.198 A 
ATOM    110  C   UNL A   1      41.710  27.540  26.204  1.00  0.00     0.198 A 
ATOM    111  F   UNL A   1      42.246  29.470  27.437  1.00  0.00    -0.203 F 
ATOM    112  F   UNL A   1      39.768  24.619  27.113  1.00  0.00    -0.200 F 
ATOM    113  C   UNL A   1      41.085  26.306  26.115  1.00  0.00     0.200 A 
ATOM    114  F   UNL A   1      42.411  28.012  25.164  1.00  0.00    -0.200 F 
ATOM    115  F   UNL A   1      41.196  25.576  24.995  1.00  0.00    -0.200 F 
ENDBRANCH  85 105
BRANCH  88 116
ATOM    116  C   UNL A   1      39.532  33.342  36.684  1.00  0.00     0.064 A 
ATOM    117  C   UNL A   1      38.663  32.905  37.695  1.00  0.00     0.173 A 
ATOM    118  C   UNL A   1      40.197  34.561  36.877  1.00  0.00     0.173 A 
ATOM    119  F   UNL A   1      37.989  31.755  37.545  1.00  0.00    -0.203 F 
ATOM    120  C   UNL A   1      38.452  33.666  38.842  1.00  0.00     0.198 A 
ATOM    121  C   UNL A   1      40.006  35.309  38.036  1.00  0.00     0.198 A 
ATOM    122  F   UNL A   1      41.042  35.021  35.942  1.00  0.00    -0.203 F 
ATOM    123  F   UNL A   1      37.583  33.246  39.772  1.00  0.00    -0.200 F 
ATOM    124  C   UNL A   1      39.127  34.865  39.014  1.00  0.00     0.200 A 
ATOM    125  F   UNL A   1      40.669  36.460  38.206  1.00  0.00    -0.200 F 
ATOM    126  F   UNL A   1      38.928  35.595  40.119  1.00  0.00    -0.200 F 
ENDBRANCH  88 116
BRANCH 103 127
ATOM    127  C   UNL A   1      44.276  28.613  34.781  1.00  0.00     0.064 A 
ATOM    128  C   UNL A   1      45.526  29.244  34.689  1.00  0.00     0.173 A 
ATOM    129  C   UNL A   1      44.179  27.459  35.574  1.00  0.00     0.173 A 
ATOM    130  F   UNL A   1      45.674  30.341  33.930  1.00  0.00    -0.203 F 
ATOM    131  C   UNL A   1      46.639  28.724  35.342  1.00  0.00     0.198 A 
ATOM    132  C   UNL A   1      45.287  26.958  36.249  1.00  0.00     0.198 A 
ATOM    133  F   UNL A   1      43.004  26.823  35.700  1.00  0.00    -0.203 F 
ATOM    134  F   UNL A   1      47.834  29.314  35.201  1.00  0.00    -0.200 F 
ATOM    135  C   UNL A   1      46.517  27.586  36.127  1.00  0.00     0.200 A 
ATOM    136  F   UNL A   1      45.165  25.866  37.016  1.00  0.00    -0.200 F 
ATOM    137  F   UNL A   1      47.589  27.089  36.760  1.00  0.00    -0.200 F 
ENDBRANCH 103 127
ENDBRANCH  68  71
ENDBRANCH  58  61
ENDBRANCH  54  57
ENDBRANCH  51  54
ENDBRANCH  48  51
ENDBRANCH  45  48
ENDBRANCH   1  45
TORSDOF 18
ENDMDL
MODEL 5
REMARK VINA RESULT:     -11.5      4.647     10.756
REMARK SMILES C[C@@H](C(=O)NCCCCCCNC(=O)c1ccc(-c2c3nc(c(-c4c(F)c(F)c(F)c(F)c4F)c4ccc([nH]4)c(-c4c(F)c(F)c(F)c(F)c4F)c4nc(c(-c5c(F)c(F)c(F)c(F)c5F)c5ccc2[nH]5)C=C4)C=C3)cc1)c1ccc(C[C@@H]2CCC[C@@H]2O)cc1F
REMARK SMILES IDX 7 1 6 4 5 7 3 8 4 9 2 11 1 13 78 17 79 18 90 19 80 20 89 22
REMARK SMILES IDX 91 23 81 24 82 27 83 30 84 31 87 32 85 34 86 37 88 43 8 45
REMARK SMILES IDX 9 48 10 51 11 54 12 57 13 58 14 60 15 61 16 62 77 63 17 64
REMARK SMILES IDX 76 66 18 68 19 71 20 72 70 73 21 74 75 75 69 76 71 77 22 78
REMARK SMILES IDX 74 79 68 81 67 83 23 85 55 88 35 89 54 90 36 91 39 92 53 93
REMARK SMILES IDX 72 94 37 95 38 97 52 99 73 100 40 103 24 105 25 106 33 107
REMARK SMILES IDX 26 108 27 109 31 110 34 111 28 112 29 113 32 114 30 115
REMARK SMILES IDX 56 116 57 117 65 118 58 119 59 120 63 121 66 122 60 123
REMARK SMILES IDX 61 124 64 125 62 126 41 127 42 128 50 129 43 130 44 131
REMARK SMILES IDX 48 132 51 133 45 134 46 135 49 136 47 137
REMARK H PARENT 7 2 7 3 6 5 6 6 5 10 2 12 1 14 1 15 1 16 79 21 80 25 89 26
REMARK H PARENT 82 28 82 29 83 33 84 35 84 36 87 38 85 39 85 40 86 41 86 42
REMARK H PARENT 88 44 8 46 8 47 9 49 9 50 10 52 10 53 11 55 11 56 12 59 16 65
REMARK H PARENT 77 67 17 69 76 70 75 80 69 82 71 84 74 86 68 87 36 96 39 98
REMARK H PARENT 72 101 37 102 73 104
REMARK Flexibility Score: inf
ROOT
ATOM      1  C   UNL A   1      46.810  23.592  24.249  1.00  0.00    -0.036 C 
ATOM      2  H   UNL A   1      47.720  23.041  24.368  1.00  0.00     0.028 H 
ATOM      3  H   UNL A   1      46.763  24.109  23.314  1.00  0.00     0.028 H 
ENDROOT
BRANCH   1   4
ATOM      4  C   UNL A   1      46.742  24.654  25.349  1.00  0.00     0.017 C 
ATOM      5  H   UNL A   1      45.812  24.562  25.870  1.00  0.00     0.049 H 
ATOM      6  H   UNL A   1      47.558  24.506  26.026  1.00  0.00     0.049 H 
BRANCH   4   7
ATOM      7  N   UNL A   1      46.840  25.978  24.776  1.00  0.00    -0.356 N 
ATOM      8  C   UNL A   1      45.963  27.022  24.823  1.00  0.00     0.227 C 
ATOM      9  O   UNL A   1      46.217  27.991  24.105  1.00  0.00    -0.274 OA
ATOM     10  H   UNL A   1      47.667  26.153  24.273  1.00  0.00     0.163 HD
BRANCH   8  11
ATOM     11  C   UNL A   1      44.779  26.981  25.797  1.00  0.00     0.063 C 
ATOM     12  H   UNL A   1      45.055  26.323  26.594  1.00  0.00     0.045 H 
BRANCH  11  13
ATOM     13  C   UNL A   1      43.516  26.367  25.179  1.00  0.00    -0.049 C 
ATOM     14  H   UNL A   1      43.069  25.692  25.878  1.00  0.00     0.024 H 
ATOM     15  H   UNL A   1      43.776  25.836  24.287  1.00  0.00     0.024 H 
ATOM     16  H   UNL A   1      42.821  27.145  24.941  1.00  0.00     0.024 H 
ENDBRANCH  11  13
BRANCH  11  17
ATOM     17  C   UNL A   1      44.516  28.354  26.396  1.00  0.00    -0.000 A 
ATOM     18  C   UNL A   1      43.218  28.887  26.370  1.00  0.00    -0.055 A 
ATOM     19  C   UNL A   1      45.522  29.106  27.011  1.00  0.00     0.127 A 
ATOM     20  C   UNL A   1      42.963  30.166  26.872  1.00  0.00    -0.059 A 
ATOM     21  H   UNL A   1      42.445  28.329  25.975  1.00  0.00     0.063 H 
ATOM     22  C   UNL A   1      45.277  30.389  27.488  1.00  0.00    -0.023 A 
ATOM     23  F   UNL A   1      46.765  28.620  27.125  1.00  0.00    -0.207 F 
ATOM     24  C   UNL A   1      44.000  30.951  27.385  1.00  0.00    -0.045 A 
ATOM     25  H   UNL A   1      41.998  30.534  26.864  1.00  0.00     0.063 H 
ATOM     26  H   UNL A   1      46.042  30.930  27.921  1.00  0.00     0.066 H 
BRANCH  24  27
ATOM     27  C   UNL A   1      43.778  32.386  27.789  1.00  0.00    -0.022 C 
ATOM     28  H   UNL A   1      43.979  32.458  28.838  1.00  0.00     0.032 H 
ATOM     29  H   UNL A   1      42.770  32.598  27.502  1.00  0.00     0.032 H 
BRANCH  27  30
ATOM     30  C   UNL A   1      44.628  33.466  27.079  1.00  0.00    -0.011 C 
ATOM     31  C   UNL A   1      44.635  34.835  27.771  1.00  0.00    -0.048 C 
ATOM     32  C   UNL A   1      44.263  33.823  25.634  1.00  0.00     0.057 C 
ATOM     33  H   UNL A   1      45.567  32.956  27.121  1.00  0.00     0.033 H 
ATOM     34  C   UNL A   1      43.662  35.729  26.996  1.00  0.00    -0.050 C 
ATOM     35  H   UNL A   1      45.619  35.254  27.748  1.00  0.00     0.027 H 
ATOM     36  H   UNL A   1      44.340  34.748  28.796  1.00  0.00     0.027 H 
ATOM     37  C   UNL A   1      43.249  34.953  25.751  1.00  0.00    -0.027 C 
ATOM     38  H   UNL A   1      45.128  34.124  25.081  1.00  0.00     0.060 H 
ATOM     39  H   UNL A   1      44.145  36.643  26.717  1.00  0.00     0.027 H 
ATOM     40  H   UNL A   1      42.811  35.979  27.593  1.00  0.00     0.027 H 
ATOM     41  H   UNL A   1      43.286  35.582  24.886  1.00  0.00     0.029 H 
ATOM     42  H   UNL A   1      42.246  34.587  25.820  1.00  0.00     0.029 H 
BRANCH  32  43
ATOM     43  O   UNL A   1      43.778  32.723  24.893  1.00  0.00    -0.393 OA
ATOM     44  H   UNL A   1      43.937  31.905  25.388  1.00  0.00     0.210 HD
ENDBRANCH  32  43
ENDBRANCH  27  30
ENDBRANCH  24  27
ENDBRANCH  11  17
ENDBRANCH   8  11
ENDBRANCH   4   7
ENDBRANCH   1   4
BRANCH   1  45
ATOM     45  C   UNL A   1      45.638  22.601  24.271  1.00  0.00    -0.052 C 
ATOM     46  H   UNL A   1      45.211  22.569  23.290  1.00  0.00     0.027 H 
ATOM     47  H   UNL A   1      44.960  22.956  25.019  1.00  0.00     0.027 H 
BRANCH  45  48
ATOM     48  C   UNL A   1      46.008  21.170  24.674  1.00  0.00    -0.052 C 
ATOM     49  H   UNL A   1      46.091  21.135  25.740  1.00  0.00     0.027 H 
ATOM     50  H   UNL A   1      46.925  20.943  24.170  1.00  0.00     0.027 H 
BRANCH  48  51
ATOM     51  C   UNL A   1      45.004  20.099  24.241  1.00  0.00    -0.036 C 
ATOM     52  H   UNL A   1      45.487  19.453  23.537  1.00  0.00     0.028 H 
ATOM     53  H   UNL A   1      44.166  20.619  23.825  1.00  0.00     0.028 H 
BRANCH  51  54
ATOM     54  C   UNL A   1      44.462  19.242  25.379  1.00  0.00     0.018 C 
ATOM     55  H   UNL A   1      44.660  19.736  26.308  1.00  0.00     0.049 H 
ATOM     56  H   UNL A   1      44.948  18.289  25.335  1.00  0.00     0.049 H 
BRANCH  54  57
ATOM     57  N   UNL A   1      43.029  19.019  25.263  1.00  0.00    -0.352 N 
ATOM     58  C   UNL A   1      41.994  19.740  25.797  1.00  0.00     0.251 C 
ATOM     59  H   UNL A   1      42.767  18.239  24.722  1.00  0.00     0.163 HD
ATOM     60  O   UNL A   1      40.845  19.301  25.751  1.00  0.00    -0.269 OA
BRANCH  58  61
ATOM     61  C   UNL A   1      42.255  21.040  26.448  1.00  0.00     0.039 A 
ATOM     62  C   UNL A   1      42.317  21.096  27.843  1.00  0.00    -0.049 A 
ATOM     63  C   UNL A   1      42.417  22.204  25.690  1.00  0.00    -0.049 A 
ATOM     64  C   UNL A   1      42.588  22.308  28.477  1.00  0.00    -0.053 A 
ATOM     65  H   UNL A   1      42.162  20.241  28.402  1.00  0.00     0.063 H 
ATOM     66  C   UNL A   1      42.753  23.400  26.320  1.00  0.00    -0.053 A 
ATOM     67  H   UNL A   1      42.288  22.178  24.667  1.00  0.00     0.063 H 
ATOM     68  C   UNL A   1      42.833  23.466  27.720  1.00  0.00    -0.014 A 
ATOM     69  H   UNL A   1      42.608  22.356  29.509  1.00  0.00     0.063 H 
ATOM     70  H   UNL A   1      42.945  24.242  25.755  1.00  0.00     0.063 H 
BRANCH  68  71
ATOM     71  C   UNL A   1      43.158  24.756  28.377  1.00  0.00     0.031 A 
ATOM     72  C   UNL A   1      42.084  25.784  28.595  1.00  0.00     0.074 A 
ATOM     73  C   UNL A   1      44.430  25.024  28.727  1.00  0.00     0.049 A 
ATOM     74  N   UNL A   1      42.178  26.988  29.100  1.00  0.00    -0.248 NA
ATOM     75  C   UNL A   1      40.724  25.419  28.164  1.00  0.00    -0.034 C 
ATOM     76  C   UNL A   1      45.570  24.126  28.527  1.00  0.00    -0.036 A 
ATOM     77  N   UNL A   1      44.982  26.134  29.318  1.00  0.00    -0.354 N 
ATOM     78  C   UNL A   1      40.901  27.528  29.032  1.00  0.00     0.074 A 
ATOM     79  C   UNL A   1      40.058  26.540  28.392  1.00  0.00    -0.034 C 
ATOM     80  H   UNL A   1      40.381  24.523  27.785  1.00  0.00     0.065 H 
ATOM     81  C   UNL A   1      46.679  24.710  29.007  1.00  0.00    -0.036 A 
ATOM     82  H   UNL A   1      45.526  23.193  28.086  1.00  0.00     0.065 H 
ATOM     83  C   UNL A   1      46.336  26.034  29.519  1.00  0.00     0.049 A 
ATOM     84  H   UNL A   1      44.455  26.925  29.573  1.00  0.00     0.167 HD
ATOM     85  C   UNL A   1      40.464  28.727  29.484  1.00  0.00     0.037 A 
ATOM     86  H   UNL A   1      39.067  26.691  28.145  1.00  0.00     0.065 H 
ATOM     87  H   UNL A   1      47.621  24.291  29.014  1.00  0.00     0.065 H 
ATOM     88  C   UNL A   1      47.204  26.914  30.054  1.00  0.00     0.037 A 
ATOM     89  C   UNL A   1      41.299  29.695  30.147  1.00  0.00     0.049 A 
ATOM     90  C   UNL A   1      46.692  28.239  30.553  1.00  0.00     0.074 A 
ATOM     91  C   UNL A   1      40.941  30.914  30.695  1.00  0.00    -0.036 A 
ATOM     92  N   UNL A   1      42.664  29.551  30.351  1.00  0.00    -0.354 N 
ATOM     93  N   UNL A   1      45.470  28.711  30.544  1.00  0.00    -0.248 NA
ATOM     94  C   UNL A   1      47.683  29.148  31.143  1.00  0.00    -0.034 C 
ATOM     95  C   UNL A   1      42.096  31.525  31.197  1.00  0.00    -0.036 A 
ATOM     96  H   UNL A   1      39.986  31.304  30.730  1.00  0.00     0.065 H 
ATOM     97  C   UNL A   1      43.166  30.667  31.001  1.00  0.00     0.049 A 
ATOM     98  H   UNL A   1      43.197  28.770  30.075  1.00  0.00     0.167 HD
ATOM     99  C   UNL A   1      45.538  29.956  31.152  1.00  0.00     0.074 A 
ATOM    100  C   UNL A   1      46.921  30.162  31.530  1.00  0.00    -0.034 C 
ATOM    101  H   UNL A   1      48.705  29.031  31.233  1.00  0.00     0.065 H 
ATOM    102  H   UNL A   1      42.143  32.458  31.637  1.00  0.00     0.065 H 
ATOM    103  C   UNL A   1      44.544  30.850  31.379  1.00  0.00     0.037 A 
ATOM    104  H   UNL A   1      47.269  30.991  32.035  1.00  0.00     0.065 H 
BRANCH  85 105
ATOM    105  C   UNL A   1      39.015  29.059  29.280  1.00  0.00     0.064 A 
ATOM    106  C   UNL A   1      38.105  29.068  30.349  1.00  0.00     0.173 A 
ATOM    107  C   UNL A   1      38.535  29.400  28.007  1.00  0.00     0.173 A 
ATOM    108  F   UNL A   1      38.511  28.737  31.583  1.00  0.00    -0.203 F 
ATOM    109  C   UNL A   1      36.763  29.376  30.144  1.00  0.00     0.198 A 
ATOM    110  C   UNL A   1      37.197  29.737  27.812  1.00  0.00     0.198 A 
ATOM    111  F   UNL A   1      39.362  29.413  26.952  1.00  0.00    -0.203 F 
ATOM    112  F   UNL A   1      35.903  29.328  31.171  1.00  0.00    -0.200 F 
ATOM    113  C   UNL A   1      36.312  29.717  28.878  1.00  0.00     0.200 A 
ATOM    114  F   UNL A   1      36.765  30.078  26.590  1.00  0.00    -0.200 F 
ATOM    115  F   UNL A   1      35.019  30.018  28.685  1.00  0.00    -0.200 F 
ENDBRANCH  85 105
BRANCH  88 116
ATOM    116  C   UNL A   1      48.640  26.556  30.179  1.00  0.00     0.064 A 
ATOM    117  C   UNL A   1      49.105  25.834  31.288  1.00  0.00     0.173 A 
ATOM    118  C   UNL A   1      49.574  26.929  29.203  1.00  0.00     0.173 A 
ATOM    119  F   UNL A   1      48.251  25.474  32.258  1.00  0.00    -0.203 F 
ATOM    120  C   UNL A   1      50.454  25.516  31.425  1.00  0.00     0.198 A 
ATOM    121  C   UNL A   1      50.919  26.587  29.327  1.00  0.00     0.198 A 
ATOM    122  F   UNL A   1      49.179  27.617  28.122  1.00  0.00    -0.203 F 
ATOM    123  F   UNL A   1      50.879  24.863  32.515  1.00  0.00    -0.200 F 
ATOM    124  C   UNL A   1      51.359  25.888  30.442  1.00  0.00     0.200 A 
ATOM    125  F   UNL A   1      51.788  26.936  28.370  1.00  0.00    -0.200 F 
ATOM    126  F   UNL A   1      52.656  25.578  30.571  1.00  0.00    -0.200 F 
ENDBRANCH  88 116
BRANCH 103 127
ATOM    127  C   UNL A   1      44.909  32.114  32.099  1.00  0.00     0.064 A 
ATOM    128  C   UNL A   1      44.650  32.284  33.467  1.00  0.00     0.173 A 
ATOM    129  C   UNL A   1      45.559  33.155  31.419  1.00  0.00     0.173 A 
ATOM    130  F   UNL A   1      44.016  31.324  34.158  1.00  0.00    -0.203 F 
ATOM    131  C   UNL A   1      45.003  33.460  34.121  1.00  0.00     0.198 A 
ATOM    132  C   UNL A   1      45.937  34.319  32.082  1.00  0.00     0.198 A 
ATOM    133  F   UNL A   1      45.836  33.039  30.111  1.00  0.00    -0.203 F 
ATOM    134  F   UNL A   1      44.702  33.621  35.417  1.00  0.00    -0.200 F 
ATOM    135  C   UNL A   1      45.652  34.473  33.430  1.00  0.00     0.200 A 
ATOM    136  F   UNL A   1      46.575  35.291  31.416  1.00  0.00    -0.200 F 
ATOM    137  F   UNL A   1      45.997  35.603  34.063  1.00  0.00    -0.200 F 
ENDBRANCH 103 127
ENDBRANCH  68  71
ENDBRANCH  58  61
ENDBRANCH  54  57
ENDBRANCH  51  54
ENDBRANCH  48  51
ENDBRANCH  45  48
ENDBRANCH   1  45
TORSDOF 18
ENDMDL
MODEL 6
REMARK VINA RESULT:     -11.5      5.358      9.486
REMARK SMILES C[C@@H](C(=O)NCCCCCCNC(=O)c1ccc(-c2c3nc(c(-c4c(F)c(F)c(F)c(F)c4F)c4ccc([nH]4)c(-c4c(F)c(F)c(F)c(F)c4F)c4nc(c(-c5c(F)c(F)c(F)c(F)c5F)c5ccc2[nH]5)C=C4)C=C3)cc1)c1ccc(C[C@@H]2CCC[C@@H]2O)cc1F
REMARK SMILES IDX 7 1 6 4 5 7 3 8 4 9 2 11 1 13 78 17 79 18 90 19 80 20 89 22
REMARK SMILES IDX 91 23 81 24 82 27 83 30 84 31 87 32 85 34 86 37 88 43 8 45
REMARK SMILES IDX 9 48 10 51 11 54 12 57 13 58 14 60 15 61 16 62 77 63 17 64
REMARK SMILES IDX 76 66 18 68 19 71 20 72 70 73 21 74 75 75 69 76 71 77 22 78
REMARK SMILES IDX 74 79 68 81 67 83 23 85 55 88 35 89 54 90 36 91 39 92 53 93
REMARK SMILES IDX 72 94 37 95 38 97 52 99 73 100 40 103 24 105 25 106 33 107
REMARK SMILES IDX 26 108 27 109 31 110 34 111 28 112 29 113 32 114 30 115
REMARK SMILES IDX 56 116 57 117 65 118 58 119 59 120 63 121 66 122 60 123
REMARK SMILES IDX 61 124 64 125 62 126 41 127 42 128 50 129 43 130 44 131
REMARK SMILES IDX 48 132 51 133 45 134 46 135 49 136 47 137
REMARK H PARENT 7 2 7 3 6 5 6 6 5 10 2 12 1 14 1 15 1 16 79 21 80 25 89 26
REMARK H PARENT 82 28 82 29 83 33 84 35 84 36 87 38 85 39 85 40 86 41 86 42
REMARK H PARENT 88 44 8 46 8 47 9 49 9 50 10 52 10 53 11 55 11 56 12 59 16 65
REMARK H PARENT 77 67 17 69 76 70 75 80 69 82 71 84 74 86 68 87 36 96 39 98
REMARK H PARENT 72 101 37 102 73 104
REMARK Flexibility Score: inf
ROOT
ATOM      1  C   UNL A   1      31.403  28.652  27.555  1.00  0.00    -0.036 C 
ATOM      2  H   UNL A   1      31.574  28.537  28.605  1.00  0.00     0.028 H 
ATOM      3  H   UNL A   1      30.393  28.923  27.331  1.00  0.00     0.028 H 
ENDROOT
BRANCH   1   4
ATOM      4  C   UNL A   1      31.665  27.307  26.874  1.00  0.00     0.017 C 
ATOM      5  H   UNL A   1      32.711  27.214  26.667  1.00  0.00     0.049 H 
ATOM      6  H   UNL A   1      31.349  26.519  27.526  1.00  0.00     0.049 H 
BRANCH   4   7
ATOM      7  N   UNL A   1      30.924  27.217  25.635  1.00  0.00    -0.356 N 
ATOM      8  C   UNL A   1      31.329  27.440  24.351  1.00  0.00     0.227 C 
ATOM      9  O   UNL A   1      30.449  27.458  23.489  1.00  0.00    -0.274 OA
ATOM     10  H   UNL A   1      29.980  26.957  25.733  1.00  0.00     0.163 HD
BRANCH   8  11
ATOM     11  C   UNL A   1      32.824  27.577  24.036  1.00  0.00     0.063 C 
ATOM     12  H   UNL A   1      33.258  28.150  24.828  1.00  0.00     0.045 H 
BRANCH  11  13
ATOM     13  C   UNL A   1      33.097  28.376  22.755  1.00  0.00    -0.049 C 
ATOM     14  H   UNL A   1      32.338  28.162  22.032  1.00  0.00     0.024 H 
ATOM     15  H   UNL A   1      34.053  28.102  22.360  1.00  0.00     0.024 H 
ATOM     16  H   UNL A   1      33.090  29.422  22.979  1.00  0.00     0.024 H 
ENDBRANCH  11  13
BRANCH  11  17
ATOM     17  C   UNL A   1      33.505  26.216  24.019  1.00  0.00    -0.000 A 
ATOM     18  C   UNL A   1      33.347  25.373  22.908  1.00  0.00    -0.055 A 
ATOM     19  C   UNL A   1      34.321  25.776  25.067  1.00  0.00     0.127 A 
ATOM     20  C   UNL A   1      33.924  24.101  22.892  1.00  0.00    -0.059 A 
ATOM     21  H   UNL A   1      32.799  25.697  22.096  1.00  0.00     0.063 H 
ATOM     22  C   UNL A   1      34.875  24.501  25.065  1.00  0.00    -0.023 A 
ATOM     23  F   UNL A   1      34.561  26.565  26.123  1.00  0.00    -0.207 F 
ATOM     24  C   UNL A   1      34.647  23.631  23.994  1.00  0.00    -0.045 A 
ATOM     25  H   UNL A   1      33.816  23.502  22.058  1.00  0.00     0.063 H 
ATOM     26  H   UNL A   1      35.458  24.194  25.860  1.00  0.00     0.066 H 
BRANCH  24  27
ATOM     27  C   UNL A   1      35.147  22.210  24.062  1.00  0.00    -0.022 C 
ATOM     28  H   UNL A   1      36.027  22.209  24.671  1.00  0.00     0.032 H 
ATOM     29  H   UNL A   1      35.296  21.924  23.042  1.00  0.00     0.032 H 
BRANCH  27  30
ATOM     30  C   UNL A   1      34.185  21.143  24.636  1.00  0.00    -0.011 C 
ATOM     31  C   UNL A   1      32.745  21.230  24.115  1.00  0.00    -0.048 C 
ATOM     32  C   UNL A   1      33.990  21.107  26.156  1.00  0.00     0.057 C 
ATOM     33  H   UNL A   1      34.717  20.279  24.299  1.00  0.00     0.033 H 
ATOM     34  C   UNL A   1      31.919  21.917  25.206  1.00  0.00    -0.050 C 
ATOM     35  H   UNL A   1      32.363  20.249  23.926  1.00  0.00     0.027 H 
ATOM     36  H   UNL A   1      32.702  21.780  23.199  1.00  0.00     0.027 H 
ATOM     37  C   UNL A   1      32.823  22.047  26.427  1.00  0.00    -0.027 C 
ATOM     38  H   UNL A   1      33.784  20.113  26.494  1.00  0.00     0.060 H 
ATOM     39  H   UNL A   1      31.060  21.325  25.445  1.00  0.00     0.027 H 
ATOM     40  H   UNL A   1      31.573  22.876  24.880  1.00  0.00     0.027 H 
ATOM     41  H   UNL A   1      32.301  21.753  27.313  1.00  0.00     0.029 H 
ATOM     42  H   UNL A   1      33.146  23.055  26.582  1.00  0.00     0.029 H 
BRANCH  32  43
ATOM     43  O   UNL A   1      35.153  21.453  26.878  1.00  0.00    -0.393 OA
ATOM     44  H   UNL A   1      35.716  20.669  26.978  1.00  0.00     0.210 HD
ENDBRANCH  32  43
ENDBRANCH  27  30
ENDBRANCH  24  27
ENDBRANCH  11  17
ENDBRANCH   8  11
ENDBRANCH   4   7
ENDBRANCH   1   4
BRANCH   1  45
ATOM     45  C   UNL A   1      32.295  29.790  27.042  1.00  0.00    -0.052 C 
ATOM     46  H   UNL A   1      33.108  29.357  26.497  1.00  0.00     0.027 H 
ATOM     47  H   UNL A   1      32.607  30.340  27.905  1.00  0.00     0.027 H 
BRANCH  45  48
ATOM     48  C   UNL A   1      31.595  30.798  26.124  1.00  0.00    -0.052 C 
ATOM     49  H   UNL A   1      30.631  30.408  25.876  1.00  0.00     0.027 H 
ATOM     50  H   UNL A   1      32.234  30.924  25.274  1.00  0.00     0.027 H 
BRANCH  48  51
ATOM     51  C   UNL A   1      31.403  32.192  26.726  1.00  0.00    -0.036 C 
ATOM     52  H   UNL A   1      30.729  32.109  27.553  1.00  0.00     0.028 H 
ATOM     53  H   UNL A   1      31.027  32.813  25.941  1.00  0.00     0.028 H 
BRANCH  51  54
ATOM     54  C   UNL A   1      32.686  32.850  27.223  1.00  0.00     0.018 C 
ATOM     55  H   UNL A   1      33.408  32.837  26.433  1.00  0.00     0.049 H 
ATOM     56  H   UNL A   1      33.032  32.299  28.073  1.00  0.00     0.049 H 
BRANCH  54  57
ATOM     57  N   UNL A   1      32.470  34.226  27.640  1.00  0.00    -0.352 N 
ATOM     58  C   UNL A   1      33.051  34.921  28.667  1.00  0.00     0.251 C 
ATOM     59  H   UNL A   1      31.813  34.730  27.107  1.00  0.00     0.163 HD
ATOM     60  O   UNL A   1      32.613  36.024  28.994  1.00  0.00    -0.269 OA
BRANCH  58  61
ATOM     61  C   UNL A   1      34.194  34.341  29.402  1.00  0.00     0.039 A 
ATOM     62  C   UNL A   1      33.950  33.635  30.582  1.00  0.00    -0.049 A 
ATOM     63  C   UNL A   1      35.504  34.510  28.942  1.00  0.00    -0.049 A 
ATOM     64  C   UNL A   1      35.013  33.056  31.277  1.00  0.00    -0.053 A 
ATOM     65  H   UNL A   1      32.985  33.541  30.939  1.00  0.00     0.063 H 
ATOM     66  C   UNL A   1      36.556  33.877  29.599  1.00  0.00    -0.053 A 
ATOM     67  H   UNL A   1      35.691  35.102  28.118  1.00  0.00     0.063 H 
ATOM     68  C   UNL A   1      36.322  33.152  30.778  1.00  0.00    -0.014 A 
ATOM     69  H   UNL A   1      34.836  32.556  32.163  1.00  0.00     0.063 H 
ATOM     70  H   UNL A   1      37.513  33.941  29.217  1.00  0.00     0.063 H 
BRANCH  68  71
ATOM     71  C   UNL A   1      37.460  32.513  31.484  1.00  0.00     0.031 A 
ATOM     72  C   UNL A   1      38.193  31.364  30.849  1.00  0.00     0.074 A 
ATOM     73  C   UNL A   1      37.798  32.930  32.719  1.00  0.00     0.049 A 
ATOM     74  N   UNL A   1      39.174  30.641  31.327  1.00  0.00    -0.248 NA
ATOM     75  C   UNL A   1      37.746  30.958  29.507  1.00  0.00    -0.034 C 
ATOM     76  C   UNL A   1      37.135  34.005  33.459  1.00  0.00    -0.036 A 
ATOM     77  N   UNL A   1      38.780  32.495  33.573  1.00  0.00    -0.354 N 
ATOM     78  C   UNL A   1      39.449  29.688  30.355  1.00  0.00     0.074 A 
ATOM     79  C   UNL A   1      38.499  29.892  29.282  1.00  0.00    -0.034 C 
ATOM     80  H   UNL A   1      37.032  31.391  28.900  1.00  0.00     0.065 H 
ATOM     81  C   UNL A   1      37.742  34.161  34.646  1.00  0.00    -0.036 A 
ATOM     82  H   UNL A   1      36.328  34.555  33.122  1.00  0.00     0.065 H 
ATOM     83  C   UNL A   1      38.815  33.177  34.764  1.00  0.00     0.049 A 
ATOM     84  H   UNL A   1      39.400  31.763  33.352  1.00  0.00     0.167 HD
ATOM     85  C   UNL A   1      40.420  28.745  30.347  1.00  0.00     0.037 A 
ATOM     86  H   UNL A   1      38.419  29.286  28.451  1.00  0.00     0.065 H 
ATOM     87  H   UNL A   1      37.491  34.862  35.359  1.00  0.00     0.065 H 
ATOM     88  C   UNL A   1      39.621  33.024  35.831  1.00  0.00     0.037 A 
ATOM     89  C   UNL A   1      41.382  28.564  31.403  1.00  0.00     0.049 A 
ATOM     90  C   UNL A   1      40.696  31.971  35.795  1.00  0.00     0.074 A 
ATOM     91  C   UNL A   1      42.442  27.676  31.463  1.00  0.00    -0.036 A 
ATOM     92  N   UNL A   1      41.399  29.288  32.587  1.00  0.00    -0.354 N 
ATOM     93  N   UNL A   1      40.989  31.119  34.843  1.00  0.00    -0.248 NA
ATOM     94  C   UNL A   1      41.556  31.865  36.982  1.00  0.00    -0.034 C 
ATOM     95  C   UNL A   1      43.077  27.836  32.700  1.00  0.00    -0.036 A 
ATOM     96  H   UNL A   1      42.717  27.012  30.723  1.00  0.00     0.065 H 
ATOM     97  C   UNL A   1      42.440  28.855  33.392  1.00  0.00     0.049 A 
ATOM     98  H   UNL A   1      40.765  30.005  32.820  1.00  0.00     0.167 HD
ATOM     99  C   UNL A   1      42.083  30.398  35.300  1.00  0.00     0.074 A 
ATOM    100  C   UNL A   1      42.410  30.921  36.611  1.00  0.00    -0.034 C 
ATOM    101  H   UNL A   1      41.508  32.387  37.871  1.00  0.00     0.065 H 
ATOM    102  H   UNL A   1      43.883  27.288  33.041  1.00  0.00     0.065 H 
ATOM    103  C   UNL A   1      42.757  29.393  34.689  1.00  0.00     0.037 A 
ATOM    104  H   UNL A   1      43.205  30.598  37.184  1.00  0.00     0.065 H 
BRANCH  85 105
ATOM    105  C   UNL A   1      40.493  27.836  29.155  1.00  0.00     0.064 A 
ATOM    106  C   UNL A   1      39.712  26.673  29.067  1.00  0.00     0.173 A 
ATOM    107  C   UNL A   1      41.331  28.146  28.073  1.00  0.00     0.173 A 
ATOM    108  F   UNL A   1      38.904  26.326  30.080  1.00  0.00    -0.203 F 
ATOM    109  C   UNL A   1      39.791  25.839  27.955  1.00  0.00     0.198 A 
ATOM    110  C   UNL A   1      41.385  27.324  26.949  1.00  0.00     0.198 A 
ATOM    111  F   UNL A   1      42.094  29.249  28.101  1.00  0.00    -0.203 F 
ATOM    112  F   UNL A   1      39.074  24.707  27.918  1.00  0.00    -0.200 F 
ATOM    113  C   UNL A   1      40.622  26.168  26.896  1.00  0.00     0.200 A 
ATOM    114  F   UNL A   1      42.179  27.650  25.920  1.00  0.00    -0.200 F 
ATOM    115  F   UNL A   1      40.693  25.366  25.824  1.00  0.00    -0.200 F 
ENDBRANCH  85 105
BRANCH  88 116
ATOM    116  C   UNL A   1      39.468  33.914  37.010  1.00  0.00     0.064 A 
ATOM    117  C   UNL A   1      38.709  33.512  38.119  1.00  0.00     0.173 A 
ATOM    118  C   UNL A   1      40.068  35.180  37.055  1.00  0.00     0.173 A 
ATOM    119  F   UNL A   1      38.098  32.318  38.113  1.00  0.00    -0.203 F 
ATOM    120  C   UNL A   1      38.541  34.350  39.218  1.00  0.00     0.198 A 
ATOM    121  C   UNL A   1      39.921  36.008  38.166  1.00  0.00     0.198 A 
ATOM    122  F   UNL A   1      40.808  35.610  36.022  1.00  0.00    -0.203 F 
ATOM    123  F   UNL A   1      37.775  33.958  40.246  1.00  0.00    -0.200 F 
ATOM    124  C   UNL A   1      39.151  35.595  39.243  1.00  0.00     0.200 A 
ATOM    125  F   UNL A   1      40.523  37.204  38.193  1.00  0.00    -0.200 F 
ATOM    126  F   UNL A   1      38.992  36.399  40.303  1.00  0.00    -0.200 F 
ENDBRANCH  88 116
BRANCH 103 127
ATOM    127  C   UNL A   1      43.938  28.818  35.416  1.00  0.00     0.064 A 
ATOM    128  C   UNL A   1      43.803  27.743  36.305  1.00  0.00     0.173 A 
ATOM    129  C   UNL A   1      45.225  29.329  35.192  1.00  0.00     0.173 A 
ATOM    130  F   UNL A   1      42.590  27.230  36.565  1.00  0.00    -0.203 F 
ATOM    131  C   UNL A   1      44.910  27.216  36.964  1.00  0.00     0.198 A 
ATOM    132  C   UNL A   1      46.334  28.783  35.830  1.00  0.00     0.198 A 
ATOM    133  F   UNL A   1      45.409  30.354  34.345  1.00  0.00    -0.203 F 
ATOM    134  F   UNL A   1      44.752  26.220  37.846  1.00  0.00    -0.200 F 
ATOM    135  C   UNL A   1      46.175  27.732  36.721  1.00  0.00     0.200 A 
ATOM    136  F   UNL A   1      47.557  29.274  35.585  1.00  0.00    -0.200 F 
ATOM    137  F   UNL A   1      47.241  27.221  37.352  1.00  0.00    -0.200 F 
ENDBRANCH 103 127
ENDBRANCH  68  71
ENDBRANCH  58  61
ENDBRANCH  54  57
ENDBRANCH  51  54
ENDBRANCH  48  51
ENDBRANCH  45  48
ENDBRANCH   1  45
TORSDOF 18
ENDMDL
MODEL 7
REMARK VINA RESULT:     -11.5      5.403     11.143
REMARK SMILES C[C@@H](C(=O)NCCCCCCNC(=O)c1ccc(-c2c3nc(c(-c4c(F)c(F)c(F)c(F)c4F)c4ccc([nH]4)c(-c4c(F)c(F)c(F)c(F)c4F)c4nc(c(-c5c(F)c(F)c(F)c(F)c5F)c5ccc2[nH]5)C=C4)C=C3)cc1)c1ccc(C[C@@H]2CCC[C@@H]2O)cc1F
REMARK SMILES IDX 7 1 6 4 5 7 3 8 4 9 2 11 1 13 78 17 79 18 90 19 80 20 89 22
REMARK SMILES IDX 91 23 81 24 82 27 83 30 84 31 87 32 85 34 86 37 88 43 8 45
REMARK SMILES IDX 9 48 10 51 11 54 12 57 13 58 14 60 15 61 16 62 77 63 17 64
REMARK SMILES IDX 76 66 18 68 19 71 20 72 70 73 21 74 75 75 69 76 71 77 22 78
REMARK SMILES IDX 74 79 68 81 67 83 23 85 55 88 35 89 54 90 36 91 39 92 53 93
REMARK SMILES IDX 72 94 37 95 38 97 52 99 73 100 40 103 24 105 25 106 33 107
REMARK SMILES IDX 26 108 27 109 31 110 34 111 28 112 29 113 32 114 30 115
REMARK SMILES IDX 56 116 57 117 65 118 58 119 59 120 63 121 66 122 60 123
REMARK SMILES IDX 61 124 64 125 62 126 41 127 42 128 50 129 43 130 44 131
REMARK SMILES IDX 48 132 51 133 45 134 46 135 49 136 47 137
REMARK H PARENT 7 2 7 3 6 5 6 6 5 10 2 12 1 14 1 15 1 16 79 21 80 25 89 26
REMARK H PARENT 82 28 82 29 83 33 84 35 84 36 87 38 85 39 85 40 86 41 86 42
REMARK H PARENT 88 44 8 46 8 47 9 49 9 50 10 52 10 53 11 55 11 56 12 59 16 65
REMARK H PARENT 77 67 17 69 76 70 75 80 69 82 71 84 74 86 68 87 36 96 39 98
REMARK H PARENT 72 101 37 102 73 104
REMARK Flexibility Score: inf
ROOT
ATOM      1  C   UNL A   1      38.290  34.006  31.248  1.00  0.00    -0.036 C 
ATOM      2  H   UNL A   1      39.207  33.554  31.564  1.00  0.00     0.028 H 
ATOM      3  H   UNL A   1      38.448  34.890  30.668  1.00  0.00     0.028 H 
ENDROOT
BRANCH   1   4
ATOM      4  C   UNL A   1      37.505  34.424  32.494  1.00  0.00     0.017 C 
ATOM      5  H   UNL A   1      36.861  35.242  32.246  1.00  0.00     0.049 H 
ATOM      6  H   UNL A   1      36.926  33.591  32.836  1.00  0.00     0.049 H 
BRANCH   4   7
ATOM      7  N   UNL A   1      38.410  34.831  33.546  1.00  0.00    -0.356 N 
ATOM      8  C   UNL A   1      38.525  34.381  34.829  1.00  0.00     0.227 C 
ATOM      9  O   UNL A   1      39.271  35.018  35.574  1.00  0.00    -0.274 OA
ATOM     10  H   UNL A   1      39.041  35.545  33.299  1.00  0.00     0.163 HD
BRANCH   8  11
ATOM     11  C   UNL A   1      37.803  33.095  35.253  1.00  0.00     0.063 C 
ATOM     12  H   UNL A   1      36.903  33.040  34.679  1.00  0.00     0.045 H 
BRANCH  11  13
ATOM     13  C   UNL A   1      37.353  33.116  36.720  1.00  0.00    -0.049 C 
ATOM     14  H   UNL A   1      37.866  32.350  37.262  1.00  0.00     0.024 H 
ATOM     15  H   UNL A   1      36.298  32.944  36.772  1.00  0.00     0.024 H 
ATOM     16  H   UNL A   1      37.580  34.070  37.149  1.00  0.00     0.024 H 
ENDBRANCH  11  13
BRANCH  11  17
ATOM     17  C   UNL A   1      38.640  31.867  34.927  1.00  0.00    -0.000 A 
ATOM     18  C   UNL A   1      39.775  31.575  35.699  1.00  0.00    -0.055 A 
ATOM     19  C   UNL A   1      38.302  30.985  33.896  1.00  0.00     0.127 A 
ATOM     20  C   UNL A   1      40.584  30.479  35.388  1.00  0.00    -0.059 A 
ATOM     21  H   UNL A   1      40.015  32.175  36.503  1.00  0.00     0.063 H 
ATOM     22  C   UNL A   1      39.118  29.909  33.568  1.00  0.00    -0.023 A 
ATOM     23  F   UNL A   1      37.193  31.177  33.169  1.00  0.00    -0.207 F 
ATOM     24  C   UNL A   1      40.295  29.668  34.285  1.00  0.00    -0.045 A 
ATOM     25  H   UNL A   1      41.404  30.265  35.978  1.00  0.00     0.063 H 
ATOM     26  H   UNL A   1      38.855  29.284  32.789  1.00  0.00     0.066 H 
BRANCH  24  27
ATOM     27  C   UNL A   1      41.235  28.576  33.840  1.00  0.00    -0.022 C 
ATOM     28  H   UNL A   1      41.777  28.946  32.994  1.00  0.00     0.032 H 
ATOM     29  H   UNL A   1      40.604  27.735  33.647  1.00  0.00     0.032 H 
BRANCH  27  30
ATOM     30  C   UNL A   1      42.272  28.066  34.868  1.00  0.00    -0.011 C 
ATOM     31  C   UNL A   1      43.736  28.273  34.459  1.00  0.00    -0.048 C 
ATOM     32  C   UNL A   1      42.235  26.579  35.238  1.00  0.00     0.057 C 
ATOM     33  H   UNL A   1      41.963  28.672  35.693  1.00  0.00     0.033 H 
ATOM     34  C   UNL A   1      44.248  26.926  33.943  1.00  0.00    -0.050 C 
ATOM     35  H   UNL A   1      44.312  28.588  35.304  1.00  0.00     0.027 H 
ATOM     36  H   UNL A   1      43.820  29.029  33.706  1.00  0.00     0.027 H 
ATOM     37  C   UNL A   1      43.159  25.900  34.236  1.00  0.00    -0.027 C 
ATOM     38  H   UNL A   1      42.562  26.425  36.245  1.00  0.00     0.060 H 
ATOM     39  H   UNL A   1      45.152  26.658  34.449  1.00  0.00     0.027 H 
ATOM     40  H   UNL A   1      44.462  26.971  32.896  1.00  0.00     0.027 H 
ATOM     41  H   UNL A   1      43.583  25.012  34.657  1.00  0.00     0.029 H 
ATOM     42  H   UNL A   1      42.640  25.601  33.349  1.00  0.00     0.029 H 
BRANCH  32  43
ATOM     43  O   UNL A   1      40.932  26.036  35.239  1.00  0.00    -0.393 OA
ATOM     44  H   UNL A   1      40.298  26.719  35.509  1.00  0.00     0.210 HD
ENDBRANCH  32  43
ENDBRANCH  27  30
ENDBRANCH  24  27
ENDBRANCH  11  17
ENDBRANCH   8  11
ENDBRANCH   4   7
ENDBRANCH   1   4
BRANCH   1  45
ATOM     45  C   UNL A   1      37.544  33.010  30.351  1.00  0.00    -0.052 C 
ATOM     46  H   UNL A   1      36.596  32.802  30.802  1.00  0.00     0.027 H 
ATOM     47  H   UNL A   1      38.174  32.149  30.270  1.00  0.00     0.027 H 
BRANCH  45  48
ATOM     48  C   UNL A   1      37.292  33.492  28.919  1.00  0.00    -0.052 C 
ATOM     49  H   UNL A   1      37.868  32.881  28.256  1.00  0.00     0.027 H 
ATOM     50  H   UNL A   1      37.573  34.524  28.895  1.00  0.00     0.027 H 
BRANCH  48  51
ATOM     51  C   UNL A   1      35.831  33.435  28.468  1.00  0.00    -0.036 C 
ATOM     52  H   UNL A   1      35.797  32.986  27.497  1.00  0.00     0.028 H 
ATOM     53  H   UNL A   1      35.470  34.442  28.476  1.00  0.00     0.028 H 
BRANCH  51  54
ATOM     54  C   UNL A   1      34.914  32.639  29.391  1.00  0.00     0.018 C 
ATOM     55  H   UNL A   1      34.201  33.307  29.828  1.00  0.00     0.049 H 
ATOM     56  H   UNL A   1      35.522  32.176  30.140  1.00  0.00     0.049 H 
BRANCH  54  57
ATOM     57  N   UNL A   1      34.200  31.589  28.682  1.00  0.00    -0.352 N 
ATOM     58  C   UNL A   1      34.679  30.417  28.158  1.00  0.00     0.251 C 
ATOM     59  H   UNL A   1      33.234  31.742  28.562  1.00  0.00     0.163 HD
ATOM     60  O   UNL A   1      33.968  29.730  27.426  1.00  0.00    -0.269 OA
BRANCH  58  61
ATOM     61  C   UNL A   1      36.060  29.984  28.454  1.00  0.00     0.039 A 
ATOM     62  C   UNL A   1      37.029  30.088  27.452  1.00  0.00    -0.049 A 
ATOM     63  C   UNL A   1      36.396  29.456  29.704  1.00  0.00    -0.049 A 
ATOM     64  C   UNL A   1      38.345  29.708  27.718  1.00  0.00    -0.053 A 
ATOM     65  H   UNL A   1      36.771  30.445  26.518  1.00  0.00     0.063 H 
ATOM     66  C   UNL A   1      37.721  29.140  29.990  1.00  0.00    -0.053 A 
ATOM     67  H   UNL A   1      35.663  29.301  30.414  1.00  0.00     0.063 H 
ATOM     68  C   UNL A   1      38.707  29.254  28.997  1.00  0.00    -0.014 A 
ATOM     69  H   UNL A   1      39.056  29.760  26.972  1.00  0.00     0.063 H 
ATOM     70  H   UNL A   1      37.980  28.820  30.937  1.00  0.00     0.063 H 
BRANCH  68  71
ATOM     71  C   UNL A   1      40.109  28.880  29.309  1.00  0.00     0.031 A 
ATOM     72  C   UNL A   1      40.977  29.809  30.111  1.00  0.00     0.074 A 
ATOM     73  C   UNL A   1      40.616  27.731  28.824  1.00  0.00     0.049 A 
ATOM     74  N   UNL A   1      42.238  29.687  30.441  1.00  0.00    -0.248 NA
ATOM     75  C   UNL A   1      40.350  31.053  30.585  1.00  0.00    -0.034 C 
ATOM     76  C   UNL A   1      39.888  26.767  27.997  1.00  0.00    -0.036 A 
ATOM     77  N   UNL A   1      41.867  27.181  28.952  1.00  0.00    -0.354 N 
ATOM     78  C   UNL A   1      42.558  30.842  31.143  1.00  0.00     0.074 A 
ATOM     79  C   UNL A   1      41.374  31.675  31.149  1.00  0.00    -0.034 C 
ATOM     80  H   UNL A   1      39.369  31.361  30.499  1.00  0.00     0.065 H 
ATOM     81  C   UNL A   1      40.697  25.735  27.709  1.00  0.00    -0.036 A 
ATOM     82  H   UNL A   1      38.909  26.867  27.683  1.00  0.00     0.065 H 
ATOM     83  C   UNL A   1      42.008  25.978  28.304  1.00  0.00     0.049 A 
ATOM     84  H   UNL A   1      42.595  27.608  29.460  1.00  0.00     0.167 HD
ATOM     85  C   UNL A   1      43.724  31.167  31.748  1.00  0.00     0.037 A 
ATOM     86  H   UNL A   1      41.334  32.629  31.542  1.00  0.00     0.065 H 
ATOM     87  H   UNL A   1      40.434  24.905  27.158  1.00  0.00     0.065 H 
ATOM     88  C   UNL A   1      43.076  25.165  28.201  1.00  0.00     0.037 A 
ATOM     89  C   UNL A   1      44.890  30.323  31.765  1.00  0.00     0.049 A 
ATOM     90  C   UNL A   1      44.360  25.548  28.887  1.00  0.00     0.074 A 
ATOM     91  C   UNL A   1      46.102  30.535  32.401  1.00  0.00    -0.036 A 
ATOM     92  N   UNL A   1      44.990  29.101  31.115  1.00  0.00    -0.354 N 
ATOM     93  N   UNL A   1      44.631  26.611  29.604  1.00  0.00    -0.248 NA
ATOM     94  C   UNL A   1      45.484  24.611  28.754  1.00  0.00    -0.034 C 
ATOM     95  C   UNL A   1      46.947  29.461  32.103  1.00  0.00    -0.036 A 
ATOM     96  H   UNL A   1      46.340  31.346  32.994  1.00  0.00     0.065 H 
ATOM     97  C   UNL A   1      46.247  28.557  31.319  1.00  0.00     0.049 A 
ATOM     98  H   UNL A   1      44.271  28.683  30.586  1.00  0.00     0.167 HD
ATOM     99  C   UNL A   1      45.942  26.458  30.032  1.00  0.00     0.074 A 
ATOM    100  C   UNL A   1      46.409  25.193  29.505  1.00  0.00    -0.034 C 
ATOM    101  H   UNL A   1      45.540  23.732  28.217  1.00  0.00     0.065 H 
ATOM    102  H   UNL A   1      47.926  29.359  32.413  1.00  0.00     0.065 H 
ATOM    103  C   UNL A   1      46.692  27.291  30.795  1.00  0.00     0.037 A 
ATOM    104  H   UNL A   1      47.343  24.795  29.689  1.00  0.00     0.065 H 
BRANCH  85 105
ATOM    105  C   UNL A   1      43.796  32.494  32.447  1.00  0.00     0.064 A 
ATOM    106  C   UNL A   1      43.610  32.606  33.833  1.00  0.00     0.173 A 
ATOM    107  C   UNL A   1      44.083  33.663  31.727  1.00  0.00     0.173 A 
ATOM    108  F   UNL A   1      43.320  31.520  34.565  1.00  0.00    -0.203 F 
ATOM    109  C   UNL A   1      43.677  33.844  34.467  1.00  0.00     0.198 A 
ATOM    110  C   UNL A   1      44.180  34.896  32.370  1.00  0.00     0.198 A 
ATOM    111  F   UNL A   1      44.277  33.612  30.400  1.00  0.00    -0.203 F 
ATOM    112  F   UNL A   1      43.444  33.932  35.784  1.00  0.00    -0.200 F 
ATOM    113  C   UNL A   1      43.968  34.985  33.737  1.00  0.00     0.200 A 
ATOM    114  F   UNL A   1      44.473  35.997  31.665  1.00  0.00    -0.200 F 
ATOM    115  F   UNL A   1      44.038  36.175  34.351  1.00  0.00    -0.200 F 
ENDBRANCH  85 105
BRANCH  88 116
ATOM    116  C   UNL A   1      42.967  23.889  27.448  1.00  0.00     0.064 A 
ATOM    117  C   UNL A   1      43.278  23.834  26.082  1.00  0.00     0.173 A 
ATOM    118  C   UNL A   1      42.548  22.705  28.071  1.00  0.00     0.173 A 
ATOM    119  F   UNL A   1      43.663  24.946  25.439  1.00  0.00    -0.203 F 
ATOM    120  C   UNL A   1      43.156  22.648  25.363  1.00  0.00     0.198 A 
ATOM    121  C   UNL A   1      42.451  21.512  27.358  1.00  0.00     0.198 A 
ATOM    122  F   UNL A   1      42.242  22.704  29.377  1.00  0.00    -0.203 F 
ATOM    123  F   UNL A   1      43.418  22.632  24.049  1.00  0.00    -0.200 F 
ATOM    124  C   UNL A   1      42.747  21.487  26.003  1.00  0.00     0.200 A 
ATOM    125  F   UNL A   1      42.069  20.391  27.981  1.00  0.00    -0.200 F 
ATOM    126  F   UNL A   1      42.633  20.344  25.312  1.00  0.00    -0.200 F 
ENDBRANCH  88 116
BRANCH 103 127
ATOM    127  C   UNL A   1      48.083  26.843  31.134  1.00  0.00     0.064 A 
ATOM    128  C   UNL A   1      48.342  26.017  32.237  1.00  0.00     0.173 A 
ATOM    129  C   UNL A   1      49.166  27.218  30.325  1.00  0.00     0.173 A 
ATOM    130  F   UNL A   1      47.342  25.645  33.052  1.00  0.00    -0.203 F 
ATOM    131  C   UNL A   1      49.638  25.604  32.533  1.00  0.00     0.198 A 
ATOM    132  C   UNL A   1      50.456  26.781  30.606  1.00  0.00     0.198 A 
ATOM    133  F   UNL A   1      48.970  28.003  29.254  1.00  0.00    -0.203 F 
ATOM    134  F   UNL A   1      49.869  24.855  33.620  1.00  0.00    -0.200 F 
ATOM    135  C   UNL A   1      50.692  25.980  31.714  1.00  0.00     0.200 A 
ATOM    136  F   UNL A   1      51.472  27.135  29.807  1.00  0.00    -0.200 F 
ATOM    137  F   UNL A   1      51.939  25.578  31.997  1.00  0.00    -0.200 F 
ENDBRANCH 103 127
ENDBRANCH  68  71
ENDBRANCH  58  61
ENDBRANCH  54  57
ENDBRANCH  51  54
ENDBRANCH  48  51
ENDBRANCH  45  48
ENDBRANCH   1  45
TORSDOF 18
ENDMDL
MODEL 8
REMARK VINA RESULT:     -11.5      5.405     11.185
REMARK SMILES C[C@@H](C(=O)NCCCCCCNC(=O)c1ccc(-c2c3nc(c(-c4c(F)c(F)c(F)c(F)c4F)c4ccc([nH]4)c(-c4c(F)c(F)c(F)c(F)c4F)c4nc(c(-c5c(F)c(F)c(F)c(F)c5F)c5ccc2[nH]5)C=C4)C=C3)cc1)c1ccc(C[C@@H]2CCC[C@@H]2O)cc1F
REMARK SMILES IDX 7 1 6 4 5 7 3 8 4 9 2 11 1 13 78 17 79 18 90 19 80 20 89 22
REMARK SMILES IDX 91 23 81 24 82 27 83 30 84 31 87 32 85 34 86 37 88 43 8 45
REMARK SMILES IDX 9 48 10 51 11 54 12 57 13 58 14 60 15 61 16 62 77 63 17 64
REMARK SMILES IDX 76 66 18 68 19 71 20 72 70 73 21 74 75 75 69 76 71 77 22 78
REMARK SMILES IDX 74 79 68 81 67 83 23 85 55 88 35 89 54 90 36 91 39 92 53 93
REMARK SMILES IDX 72 94 37 95 38 97 52 99 73 100 40 103 24 105 25 106 33 107
REMARK SMILES IDX 26 108 27 109 31 110 34 111 28 112 29 113 32 114 30 115
REMARK SMILES IDX 56 116 57 117 65 118 58 119 59 120 63 121 66 122 60 123
REMARK SMILES IDX 61 124 64 125 62 126 41 127 42 128 50 129 43 130 44 131
REMARK SMILES IDX 48 132 51 133 45 134 46 135 49 136 47 137
REMARK H PARENT 7 2 7 3 6 5 6 6 5 10 2 12 1 14 1 15 1 16 79 21 80 25 89 26
REMARK H PARENT 82 28 82 29 83 33 84 35 84 36 87 38 85 39 85 40 86 41 86 42
REMARK H PARENT 88 44 8 46 8 47 9 49 9 50 10 52 10 53 11 55 11 56 12 59 16 65
REMARK H PARENT 77 67 17 69 76 70 75 80 69 82 71 84 74 86 68 87 36 96 39 98
REMARK H PARENT 72 101 37 102 73 104
REMARK Flexibility Score: inf
ROOT
ATOM      1  C   UNL A   1      32.389  28.730  27.410  1.00  0.00    -0.036 C 
ATOM      2  H   UNL A   1      33.317  28.487  27.883  1.00  0.00     0.028 H 
ATOM      3  H   UNL A   1      31.728  29.268  28.056  1.00  0.00     0.028 H 
ENDROOT
BRANCH   1   4
ATOM      4  C   UNL A   1      31.682  27.425  27.036  1.00  0.00     0.017 C 
ATOM      5  H   UNL A   1      31.265  26.985  27.917  1.00  0.00     0.049 H 
ATOM      6  H   UNL A   1      30.907  27.639  26.330  1.00  0.00     0.049 H 
BRANCH   4   7
ATOM      7  N   UNL A   1      32.619  26.499  26.438  1.00  0.00    -0.356 N 
ATOM      8  C   UNL A   1      32.399  25.446  25.599  1.00  0.00     0.227 C 
ATOM      9  O   UNL A   1      33.361  24.712  25.369  1.00  0.00    -0.274 OA
ATOM     10  H   UNL A   1      33.562  26.651  26.675  1.00  0.00     0.163 HD
BRANCH   8  11
ATOM     11  C   UNL A   1      31.026  25.273  24.936  1.00  0.00     0.063 C 
ATOM     12  H   UNL A   1      30.304  25.231  25.724  1.00  0.00     0.045 H 
BRANCH  11  13
ATOM     13  C   UNL A   1      30.888  23.946  24.180  1.00  0.00    -0.049 C 
ATOM     14  H   UNL A   1      31.015  24.117  23.132  1.00  0.00     0.024 H 
ATOM     15  H   UNL A   1      29.917  23.532  24.360  1.00  0.00     0.024 H 
ATOM     16  H   UNL A   1      31.636  23.261  24.523  1.00  0.00     0.024 H 
ENDBRANCH  11  13
BRANCH  11  17
ATOM     17  C   UNL A   1      30.689  26.471  24.060  1.00  0.00    -0.000 A 
ATOM     18  C   UNL A   1      31.713  27.136  23.367  1.00  0.00    -0.055 A 
ATOM     19  C   UNL A   1      29.377  26.924  23.886  1.00  0.00     0.127 A 
ATOM     20  C   UNL A   1      31.433  28.265  22.595  1.00  0.00    -0.059 A 
ATOM     21  H   UNL A   1      32.682  26.787  23.431  1.00  0.00     0.063 H 
ATOM     22  C   UNL A   1      29.098  28.062  23.139  1.00  0.00    -0.023 A 
ATOM     23  F   UNL A   1      28.352  26.287  24.469  1.00  0.00    -0.207 F 
ATOM     24  C   UNL A   1      30.131  28.773  22.518  1.00  0.00    -0.045 A 
ATOM     25  H   UNL A   1      32.194  28.730  22.075  1.00  0.00     0.063 H 
ATOM     26  H   UNL A   1      28.123  28.386  23.042  1.00  0.00     0.066 H 
BRANCH  24  27
ATOM     27  C   UNL A   1      29.831  30.074  21.818  1.00  0.00    -0.022 C 
ATOM     28  H   UNL A   1      30.153  29.973  20.802  1.00  0.00     0.032 H 
ATOM     29  H   UNL A   1      30.347  30.816  22.389  1.00  0.00     0.032 H 
BRANCH  27  30
ATOM     30  C   UNL A   1      28.358  30.546  21.792  1.00  0.00    -0.011 C 
ATOM     31  C   UNL A   1      27.895  31.129  20.452  1.00  0.00    -0.048 C 
ATOM     32  C   UNL A   1      27.942  31.631  22.792  1.00  0.00     0.057 C 
ATOM     33  H   UNL A   1      27.906  29.608  22.037  1.00  0.00     0.033 H 
ATOM     34  C   UNL A   1      27.913  32.653  20.600  1.00  0.00    -0.050 C 
ATOM     35  H   UNL A   1      26.904  30.792  20.227  1.00  0.00     0.027 H 
ATOM     36  H   UNL A   1      28.536  30.814  19.655  1.00  0.00     0.027 H 
ATOM     37  C   UNL A   1      28.190  32.949  22.070  1.00  0.00    -0.027 C 
ATOM     38  H   UNL A   1      26.915  31.522  23.073  1.00  0.00     0.060 H 
ATOM     39  H   UNL A   1      26.966  33.062  20.314  1.00  0.00     0.027 H 
ATOM     40  H   UNL A   1      28.660  33.091  19.973  1.00  0.00     0.027 H 
ATOM     41  H   UNL A   1      27.527  33.707  22.432  1.00  0.00     0.029 H 
ATOM     42  H   UNL A   1      29.184  33.312  22.227  1.00  0.00     0.029 H 
BRANCH  32  43
ATOM     43  O   UNL A   1      28.621  31.544  24.027  1.00  0.00    -0.393 OA
ATOM     44  H   UNL A   1      27.982  31.371  24.735  1.00  0.00     0.210 HD
ENDBRANCH  32  43
ENDBRANCH  27  30
ENDBRANCH  24  27
ENDBRANCH  11  17
ENDBRANCH   8  11
ENDBRANCH   4   7
ENDBRANCH   1   4
BRANCH   1  45
ATOM     45  C   UNL A   1      32.681  29.642  26.211  1.00  0.00    -0.052 C 
ATOM     46  H   UNL A   1      33.030  29.030  25.405  1.00  0.00     0.027 H 
ATOM     47  H   UNL A   1      33.404  30.356  26.546  1.00  0.00     0.027 H 
BRANCH  45  48
ATOM     48  C   UNL A   1      31.483  30.453  25.706  1.00  0.00    -0.052 C 
ATOM     49  H   UNL A   1      30.594  29.895  25.912  1.00  0.00     0.027 H 
ATOM     50  H   UNL A   1      31.649  30.616  24.662  1.00  0.00     0.027 H 
BRANCH  48  51
ATOM     51  C   UNL A   1      31.331  31.838  26.338  1.00  0.00    -0.036 C 
ATOM     52  H   UNL A   1      30.522  31.800  27.037  1.00  0.00     0.028 H 
ATOM     53  H   UNL A   1      31.157  32.522  25.534  1.00  0.00     0.028 H 
BRANCH  51  54
ATOM     54  C   UNL A   1      32.571  32.339  27.073  1.00  0.00     0.018 C 
ATOM     55  H   UNL A   1      33.421  32.221  26.434  1.00  0.00     0.049 H 
ATOM     56  H   UNL A   1      32.677  31.764  27.970  1.00  0.00     0.049 H 
BRANCH  54  57
ATOM     57  N   UNL A   1      32.456  33.738  27.450  1.00  0.00    -0.352 N 
ATOM     58  C   UNL A   1      33.147  34.438  28.404  1.00  0.00     0.251 C 
ATOM     59  H   UNL A   1      31.786  34.257  26.947  1.00  0.00     0.163 HD
ATOM     60  O   UNL A   1      32.791  35.573  28.719  1.00  0.00    -0.269 OA
BRANCH  58  61
ATOM     61  C   UNL A   1      34.312  33.824  29.074  1.00  0.00     0.039 A 
ATOM     62  C   UNL A   1      34.094  32.810  30.011  1.00  0.00    -0.049 A 
ATOM     63  C   UNL A   1      35.612  34.259  28.798  1.00  0.00    -0.049 A 
ATOM     64  C   UNL A   1      35.182  32.199  30.636  1.00  0.00    -0.053 A 
ATOM     65  H   UNL A   1      33.132  32.514  30.239  1.00  0.00     0.063 H 
ATOM     66  C   UNL A   1      36.699  33.605  29.372  1.00  0.00    -0.053 A 
ATOM     67  H   UNL A   1      35.766  35.064  28.171  1.00  0.00     0.063 H 
ATOM     68  C   UNL A   1      36.494  32.575  30.304  1.00  0.00    -0.014 A 
ATOM     69  H   UNL A   1      35.022  31.468  31.348  1.00  0.00     0.063 H 
ATOM     70  H   UNL A   1      37.659  33.879  29.112  1.00  0.00     0.063 H 
BRANCH  68  71
ATOM     71  C   UNL A   1      37.663  31.911  30.933  1.00  0.00     0.031 A 
ATOM     72  C   UNL A   1      38.103  32.308  32.314  1.00  0.00     0.074 A 
ATOM     73  C   UNL A   1      38.360  30.992  30.239  1.00  0.00     0.049 A 
ATOM     74  N   UNL A   1      39.128  31.885  33.011  1.00  0.00    -0.248 NA
ATOM     75  C   UNL A   1      37.297  33.335  32.994  1.00  0.00    -0.034 C 
ATOM     76  C   UNL A   1      38.059  30.554  28.874  1.00  0.00    -0.036 A 
ATOM     77  N   UNL A   1      39.472  30.264  30.584  1.00  0.00    -0.354 N 
ATOM     78  C   UNL A   1      39.100  32.604  34.198  1.00  0.00     0.074 A 
ATOM     79  C   UNL A   1      37.987  33.525  34.109  1.00  0.00    -0.034 C 
ATOM     80  H   UNL A   1      36.424  33.788  32.683  1.00  0.00     0.065 H 
ATOM     81  C   UNL A   1      38.949  29.619  28.506  1.00  0.00    -0.036 A 
ATOM     82  H   UNL A   1      37.287  30.910  28.289  1.00  0.00     0.065 H 
ATOM     83  C   UNL A   1      39.901  29.414  29.595  1.00  0.00     0.049 A 
ATOM     84  H   UNL A   1      39.918  30.344  31.458  1.00  0.00     0.167 HD
ATOM     85  C   UNL A   1      39.912  32.490  35.275  1.00  0.00     0.037 A 
ATOM     86  H   UNL A   1      37.761  34.238  34.821  1.00  0.00     0.065 H 
ATOM     87  H   UNL A   1      38.959  29.125  27.602  1.00  0.00     0.065 H 
ATOM     88  C   UNL A   1      40.946  28.566  29.569  1.00  0.00     0.037 A 
ATOM     89  C   UNL A   1      41.000  31.552  35.373  1.00  0.00     0.049 A 
ATOM     90  C   UNL A   1      41.832  28.454  30.781  1.00  0.00     0.074 A 
ATOM     91  C   UNL A   1      41.845  31.317  36.444  1.00  0.00    -0.036 A 
ATOM     92  N   UNL A   1      41.393  30.692  34.358  1.00  0.00    -0.354 N 
ATOM     93  N   UNL A   1      41.756  29.092  31.924  1.00  0.00    -0.248 NA
ATOM     94  C   UNL A   1      42.945  27.499  30.700  1.00  0.00    -0.034 C 
ATOM     95  C   UNL A   1      42.774  30.342  36.063  1.00  0.00    -0.036 A 
ATOM     96  H   UNL A   1      41.797  31.780  37.365  1.00  0.00     0.065 H 
ATOM     97  C   UNL A   1      42.480  29.938  34.770  1.00  0.00     0.049 A 
ATOM     98  H   UNL A   1      40.963  30.627  33.474  1.00  0.00     0.167 HD
ATOM     99  C   UNL A   1      42.788  28.595  32.707  1.00  0.00     0.074 A 
ATOM    100  C   UNL A   1      43.469  27.593  31.914  1.00  0.00    -0.034 C 
ATOM    101  H   UNL A   1      43.242  26.909  29.907  1.00  0.00     0.065 H 
ATOM    102  H   UNL A   1      43.548  29.986  36.645  1.00  0.00     0.065 H 
ATOM    103  C   UNL A   1      43.139  28.937  33.971  1.00  0.00     0.037 A 
ATOM    104  H   UNL A   1      44.263  27.026  32.250  1.00  0.00     0.065 H 
BRANCH  85 105
ATOM    105  C   UNL A   1      39.652  33.402  36.439  1.00  0.00     0.064 A 
ATOM    106  C   UNL A   1      40.267  34.660  36.539  1.00  0.00     0.173 A 
ATOM    107  C   UNL A   1      38.755  33.027  37.451  1.00  0.00     0.173 A 
ATOM    108  F   UNL A   1      41.141  35.059  35.605  1.00  0.00    -0.203 F 
ATOM    109  C   UNL A   1      40.017  35.494  37.625  1.00  0.00     0.198 A 
ATOM    110  C   UNL A   1      38.485  33.879  38.520  1.00  0.00     0.198 A 
ATOM    111  F   UNL A   1      38.135  31.839  37.401  1.00  0.00    -0.203 F 
ATOM    112  F   UNL A   1      40.656  36.668  37.725  1.00  0.00    -0.200 F 
ATOM    113  C   UNL A   1      39.123  35.106  38.611  1.00  0.00     0.200 A 
ATOM    114  F   UNL A   1      37.611  33.507  39.466  1.00  0.00    -0.200 F 
ATOM    115  F   UNL A   1      38.880  35.914  39.653  1.00  0.00    -0.200 F 
ENDBRANCH  85 105
BRANCH  88 116
ATOM    116  C   UNL A   1      41.192  27.727  28.368  1.00  0.00     0.064 A 
ATOM    117  C   UNL A   1      42.058  28.163  27.354  1.00  0.00     0.173 A 
ATOM    118  C   UNL A   1      40.569  26.482  28.205  1.00  0.00     0.173 A 
ATOM    119  F   UNL A   1      42.660  29.357  27.457  1.00  0.00    -0.203 F 
ATOM    120  C   UNL A   1      42.275  27.394  26.214  1.00  0.00     0.198 A 
ATOM    121  C   UNL A   1      40.807  25.701  27.076  1.00  0.00     0.198 A 
ATOM    122  F   UNL A   1      39.736  26.019  29.148  1.00  0.00    -0.203 F 
ATOM    123  F   UNL A   1      43.073  27.853  25.241  1.00  0.00    -0.200 F 
ATOM    124  C   UNL A   1      41.654  26.161  26.078  1.00  0.00     0.200 A 
ATOM    125  F   UNL A   1      40.216  24.505  26.954  1.00  0.00    -0.200 F 
ATOM    126  F   UNL A   1      41.866  25.419  24.983  1.00  0.00    -0.200 F 
ENDBRANCH  88 116
BRANCH 103 127
ATOM    127  C   UNL A   1      44.290  28.197  34.587  1.00  0.00     0.064 A 
ATOM    128  C   UNL A   1      44.101  27.007  35.303  1.00  0.00     0.173 A 
ATOM    129  C   UNL A   1      45.602  28.668  34.428  1.00  0.00     0.173 A 
ATOM    130  F   UNL A   1      42.863  26.524  35.497  1.00  0.00    -0.203 F 
ATOM    131  C   UNL A   1      45.181  26.328  35.861  1.00  0.00     0.198 A 
ATOM    132  C   UNL A   1      46.683  27.972  34.962  1.00  0.00     0.198 A 
ATOM    133  F   UNL A   1      45.837  29.799  33.745  1.00  0.00    -0.203 F 
ATOM    134  F   UNL A   1      44.973  25.219  36.583  1.00  0.00    -0.200 F 
ATOM    135  C   UNL A   1      46.470  26.808  35.684  1.00  0.00     0.200 A 
ATOM    136  F   UNL A   1      47.929  28.430  34.780  1.00  0.00    -0.200 F 
ATOM    137  F   UNL A   1      47.510  26.151  36.217  1.00  0.00    -0.200 F 
ENDBRANCH 103 127
ENDBRANCH  68  71
ENDBRANCH  58  61
ENDBRANCH  54  57
ENDBRANCH  51  54
ENDBRANCH  48  51
ENDBRANCH  45  48
ENDBRANCH   1  45
TORSDOF 18
ENDMDL
MODEL 9
REMARK VINA RESULT:     -11.5      5.896     11.241
REMARK SMILES C[C@@H](C(=O)NCCCCCCNC(=O)c1ccc(-c2c3nc(c(-c4c(F)c(F)c(F)c(F)c4F)c4ccc([nH]4)c(-c4c(F)c(F)c(F)c(F)c4F)c4nc(c(-c5c(F)c(F)c(F)c(F)c5F)c5ccc2[nH]5)C=C4)C=C3)cc1)c1ccc(C[C@@H]2CCC[C@@H]2O)cc1F
REMARK SMILES IDX 7 1 6 4 5 7 3 8 4 9 2 11 1 13 78 17 79 18 90 19 80 20 89 22
REMARK SMILES IDX 91 23 81 24 82 27 83 30 84 31 87 32 85 34 86 37 88 43 8 45
REMARK SMILES IDX 9 48 10 51 11 54 12 57 13 58 14 60 15 61 16 62 77 63 17 64
REMARK SMILES IDX 76 66 18 68 19 71 20 72 70 73 21 74 75 75 69 76 71 77 22 78
REMARK SMILES IDX 74 79 68 81 67 83 23 85 55 88 35 89 54 90 36 91 39 92 53 93
REMARK SMILES IDX 72 94 37 95 38 97 52 99 73 100 40 103 24 105 25 106 33 107
REMARK SMILES IDX 26 108 27 109 31 110 34 111 28 112 29 113 32 114 30 115
REMARK SMILES IDX 56 116 57 117 65 118 58 119 59 120 63 121 66 122 60 123
REMARK SMILES IDX 61 124 64 125 62 126 41 127 42 128 50 129 43 130 44 131
REMARK SMILES IDX 48 132 51 133 45 134 46 135 49 136 47 137
REMARK H PARENT 7 2 7 3 6 5 6 6 5 10 2 12 1 14 1 15 1 16 79 21 80 25 89 26
REMARK H PARENT 82 28 82 29 83 33 84 35 84 36 87 38 85 39 85 40 86 41 86 42
REMARK H PARENT 88 44 8 46 8 47 9 49 9 50 10 52 10 53 11 55 11 56 12 59 16 65
REMARK H PARENT 77 67 17 69 76 70 75 80 69 82 71 84 74 86 68 87 36 96 39 98
REMARK H PARENT 72 101 37 102 73 104
REMARK Flexibility Score: inf
ROOT
ATOM      1  C   UNL A   1      33.558  31.696  27.604  1.00  0.00    -0.036 C 
ATOM      2  H   UNL A   1      32.534  31.790  27.898  1.00  0.00     0.028 H 
ATOM      3  H   UNL A   1      33.801  32.310  26.762  1.00  0.00     0.028 H 
ENDROOT
BRANCH   1   4
ATOM      4  C   UNL A   1      33.808  30.246  27.184  1.00  0.00     0.017 C 
ATOM      5  H   UNL A   1      33.726  30.168  26.120  1.00  0.00     0.049 H 
ATOM      6  H   UNL A   1      34.790  29.957  27.498  1.00  0.00     0.049 H 
BRANCH   4   7
ATOM      7  N   UNL A   1      32.840  29.368  27.804  1.00  0.00    -0.356 N 
ATOM      8  C   UNL A   1      31.974  28.478  27.239  1.00  0.00     0.227 C 
ATOM      9  O   UNL A   1      31.133  27.975  27.986  1.00  0.00    -0.274 OA
ATOM     10  H   UNL A   1      32.798  29.423  28.785  1.00  0.00     0.163 HD
BRANCH   8  11
ATOM     11  C   UNL A   1      32.129  28.095  25.762  1.00  0.00     0.063 C 
ATOM     12  H   UNL A   1      33.100  28.423  25.456  1.00  0.00     0.045 H 
BRANCH  11  13
ATOM     13  C   UNL A   1      31.141  28.828  24.845  1.00  0.00    -0.049 C 
ATOM     14  H   UNL A   1      31.316  28.540  23.829  1.00  0.00     0.024 H 
ATOM     15  H   UNL A   1      31.278  29.885  24.944  1.00  0.00     0.024 H 
ATOM     16  H   UNL A   1      30.139  28.572  25.121  1.00  0.00     0.024 H 
ENDBRANCH  11  13
BRANCH  11  17
ATOM     17  C   UNL A   1      32.069  26.585  25.580  1.00  0.00    -0.000 A 
ATOM     18  C   UNL A   1      30.862  25.979  25.201  1.00  0.00    -0.055 A 
ATOM     19  C   UNL A   1      33.191  25.768  25.746  1.00  0.00     0.127 A 
ATOM     20  C   UNL A   1      30.772  24.590  25.075  1.00  0.00    -0.059 A 
ATOM     21  H   UNL A   1      30.033  26.564  25.015  1.00  0.00     0.063 H 
ATOM     22  C   UNL A   1      33.100  24.385  25.646  1.00  0.00    -0.023 A 
ATOM     23  F   UNL A   1      34.385  26.299  26.042  1.00  0.00    -0.207 F 
ATOM     24  C   UNL A   1      31.875  23.776  25.350  1.00  0.00    -0.045 A 
ATOM     25  H   UNL A   1      29.882  24.161  24.775  1.00  0.00     0.063 H 
ATOM     26  H   UNL A   1      33.940  23.803  25.791  1.00  0.00     0.066 H 
BRANCH  24  27
ATOM     27  C   UNL A   1      31.761  22.272  25.370  1.00  0.00    -0.022 C 
ATOM     28  H   UNL A   1      30.891  22.010  24.804  1.00  0.00     0.032 H 
ATOM     29  H   UNL A   1      31.727  22.015  26.407  1.00  0.00     0.032 H 
BRANCH  27  30
ATOM     30  C   UNL A   1      32.948  21.460  24.799  1.00  0.00    -0.011 C 
ATOM     31  C   UNL A   1      32.650  20.727  23.485  1.00  0.00    -0.048 C 
ATOM     32  C   UNL A   1      33.538  20.351  25.676  1.00  0.00     0.057 C 
ATOM     33  H   UNL A   1      33.636  22.272  24.695  1.00  0.00     0.033 H 
ATOM     34  C   UNL A   1      32.399  19.259  23.843  1.00  0.00    -0.050 C 
ATOM     35  H   UNL A   1      33.486  20.807  22.822  1.00  0.00     0.027 H 
ATOM     36  H   UNL A   1      31.800  21.152  22.993  1.00  0.00     0.027 H 
ATOM     37  C   UNL A   1      32.743  19.102  25.320  1.00  0.00    -0.027 C 
ATOM     38  H   UNL A   1      34.583  20.223  25.484  1.00  0.00     0.060 H 
ATOM     39  H   UNL A   1      33.022  18.624  23.249  1.00  0.00     0.027 H 
ATOM     40  H   UNL A   1      31.382  18.987  23.655  1.00  0.00     0.027 H 
ATOM     41  H   UNL A   1      33.334  18.223  25.475  1.00  0.00     0.029 H 
ATOM     42  H   UNL A   1      31.869  18.994  25.927  1.00  0.00     0.029 H 
BRANCH  32  43
ATOM     43  O   UNL A   1      33.502  20.650  27.055  1.00  0.00    -0.393 OA
ATOM     44  H   UNL A   1      33.612  19.833  27.566  1.00  0.00     0.210 HD
ENDBRANCH  32  43
ENDBRANCH  27  30
ENDBRANCH  24  27
ENDBRANCH  11  17
ENDBRANCH   8  11
ENDBRANCH   4   7
ENDBRANCH   1   4
BRANCH   1  45
ATOM     45  C   UNL A   1      34.441  32.165  28.769  1.00  0.00    -0.052 C 
ATOM     46  H   UNL A   1      35.420  31.757  28.629  1.00  0.00     0.027 H 
ATOM     47  H   UNL A   1      33.963  31.825  29.663  1.00  0.00     0.027 H 
BRANCH  45  48
ATOM     48  C   UNL A   1      34.576  33.685  28.907  1.00  0.00    -0.052 C 
ATOM     49  H   UNL A   1      35.161  34.043  28.086  1.00  0.00     0.027 H 
ATOM     50  H   UNL A   1      35.032  33.860  29.860  1.00  0.00     0.027 H 
BRANCH  48  51
ATOM     51  C   UNL A   1      33.252  34.451  28.918  1.00  0.00    -0.036 C 
ATOM     52  H   UNL A   1      32.570  33.931  29.557  1.00  0.00     0.028 H 
ATOM     53  H   UNL A   1      32.920  34.498  27.901  1.00  0.00     0.028 H 
BRANCH  51  54
ATOM     54  C   UNL A   1      33.357  35.892  29.406  1.00  0.00     0.018 C 
ATOM     55  H   UNL A   1      33.063  36.547  28.613  1.00  0.00     0.049 H 
ATOM     56  H   UNL A   1      34.372  36.067  29.698  1.00  0.00     0.049 H 
BRANCH  54  57
ATOM     57  N   UNL A   1      32.510  36.142  30.561  1.00  0.00    -0.352 N 
ATOM     58  C   UNL A   1      32.636  35.679  31.844  1.00  0.00     0.251 C 
ATOM     59  H   UNL A   1      31.736  36.729  30.397  1.00  0.00     0.163 HD
ATOM     60  O   UNL A   1      31.723  35.841  32.653  1.00  0.00    -0.269 OA
BRANCH  58  61
ATOM     61  C   UNL A   1      33.862  34.965  32.257  1.00  0.00     0.039 A 
ATOM     62  C   UNL A   1      33.756  33.643  32.697  1.00  0.00    -0.049 A 
ATOM     63  C   UNL A   1      35.107  35.601  32.234  1.00  0.00    -0.049 A 
ATOM     64  C   UNL A   1      34.905  32.942  33.066  1.00  0.00    -0.053 A 
ATOM     65  H   UNL A   1      32.832  33.186  32.747  1.00  0.00     0.063 H 
ATOM     66  C   UNL A   1      36.259  34.881  32.539  1.00  0.00    -0.053 A 
ATOM     67  H   UNL A   1      35.172  36.602  31.990  1.00  0.00     0.063 H 
ATOM     68  C   UNL A   1      36.168  33.547  32.968  1.00  0.00    -0.014 A 
ATOM     69  H   UNL A   1      34.826  31.973  33.416  1.00  0.00     0.063 H 
ATOM     70  H   UNL A   1      37.184  35.331  32.451  1.00  0.00     0.063 H 
BRANCH  68  71
ATOM     71  C   UNL A   1      37.404  32.806  33.322  1.00  0.00     0.031 A 
ATOM     72  C   UNL A   1      38.120  33.105  34.610  1.00  0.00     0.074 A 
ATOM     73  C   UNL A   1      37.909  31.902  32.462  1.00  0.00     0.049 A 
ATOM     74  N   UNL A   1      39.238  32.605  35.072  1.00  0.00    -0.248 NA
ATOM     75  C   UNL A   1      37.510  34.120  35.483  1.00  0.00    -0.034 C 
ATOM     76  C   UNL A   1      37.330  31.556  31.162  1.00  0.00    -0.036 A 
ATOM     77  N   UNL A   1      39.030  31.115  32.547  1.00  0.00    -0.354 N 
ATOM     78  C   UNL A   1      39.474  33.255  36.275  1.00  0.00     0.074 A 
ATOM     79  C   UNL A   1      38.410  34.220  36.450  1.00  0.00    -0.034 C 
ATOM     80  H   UNL A   1      36.616  34.623  35.371  1.00  0.00     0.065 H 
ATOM     81  C   UNL A   1      38.087  30.611  30.582  1.00  0.00    -0.036 A 
ATOM     82  H   UNL A   1      36.478  31.973  30.757  1.00  0.00     0.065 H 
ATOM     83  C   UNL A   1      39.220  30.308  31.453  1.00  0.00     0.049 A 
ATOM     84  H   UNL A   1      39.640  31.127  33.320  1.00  0.00     0.167 HD
ATOM     85  C   UNL A   1      40.472  33.049  37.166  1.00  0.00     0.037 A 
ATOM     86  H   UNL A   1      38.359  34.899  37.227  1.00  0.00     0.065 H 
ATOM     87  H   UNL A   1      37.898  30.170  29.670  1.00  0.00     0.065 H 
ATOM     88  C   UNL A   1      40.199  29.424  31.182  1.00  0.00     0.037 A 
ATOM     89  C   UNL A   1      41.512  32.067  37.004  1.00  0.00     0.049 A 
ATOM     90  C   UNL A   1      41.295  29.210  32.191  1.00  0.00     0.074 A 
ATOM     91  C   UNL A   1      42.536  31.739  37.876  1.00  0.00    -0.036 A 
ATOM     92  N   UNL A   1      41.661  31.252  35.890  1.00  0.00    -0.354 N 
ATOM     93  N   UNL A   1      41.471  29.783  33.357  1.00  0.00    -0.248 NA
ATOM     94  C   UNL A   1      42.325  28.220  31.847  1.00  0.00    -0.034 C 
ATOM     95  C   UNL A   1      43.326  30.754  37.274  1.00  0.00    -0.036 A 
ATOM     96  H   UNL A   1      42.688  32.150  38.810  1.00  0.00     0.065 H 
ATOM     97  C   UNL A   1      42.770  30.435  36.045  1.00  0.00     0.049 A 
ATOM     98  H   UNL A   1      41.066  31.255  35.105  1.00  0.00     0.167 HD
ATOM     99  C   UNL A   1      42.610  29.204  33.898  1.00  0.00     0.074 A 
ATOM    100  C   UNL A   1      43.077  28.225  32.939  1.00  0.00    -0.034 C 
ATOM    101  H   UNL A   1      42.434  27.666  30.983  1.00  0.00     0.065 H 
ATOM    102  H   UNL A   1      44.180  30.336  37.676  1.00  0.00     0.065 H 
ATOM    103  C   UNL A   1      43.214  29.459  35.084  1.00  0.00     0.037 A 
ATOM    104  H   UNL A   1      43.893  27.610  33.085  1.00  0.00     0.065 H 
BRANCH  85 105
ATOM    105  C   UNL A   1      40.485  33.901  38.402  1.00  0.00     0.064 A 
ATOM    106  C   UNL A   1      39.774  33.535  39.555  1.00  0.00     0.173 A 
ATOM    107  C   UNL A   1      41.241  35.083  38.444  1.00  0.00     0.173 A 
ATOM    108  F   UNL A   1      39.027  32.421  39.562  1.00  0.00    -0.203 F 
ATOM    109  C   UNL A   1      39.795  34.337  40.694  1.00  0.00     0.198 A 
ATOM    110  C   UNL A   1      41.283  35.866  39.596  1.00  0.00     0.198 A 
ATOM    111  F   UNL A   1      41.945  35.476  37.372  1.00  0.00    -0.203 F 
ATOM    112  F   UNL A   1      39.066  33.993  41.765  1.00  0.00    -0.200 F 
ATOM    113  C   UNL A   1      40.553  35.496  40.715  1.00  0.00     0.200 A 
ATOM    114  F   UNL A   1      42.026  36.981  39.619  1.00  0.00    -0.200 F 
ATOM    115  F   UNL A   1      40.575  36.264  41.814  1.00  0.00    -0.200 F 
ENDBRANCH  85 105
BRANCH  88 116
ATOM    116  C   UNL A   1      40.168  28.648  29.916  1.00  0.00     0.064 A 
ATOM    117  C   UNL A   1      39.550  27.390  29.860  1.00  0.00     0.173 A 
ATOM    118  C   UNL A   1      40.755  29.139  28.742  1.00  0.00     0.173 A 
ATOM    119  F   UNL A   1      38.993  26.869  30.964  1.00  0.00    -0.203 F 
ATOM    120  C   UNL A   1      39.537  26.646  28.683  1.00  0.00     0.198 A 
ATOM    121  C   UNL A   1      40.719  28.406  27.558  1.00  0.00     0.198 A 
ATOM    122  F   UNL A   1      41.355  30.339  28.742  1.00  0.00    -0.203 F 
ATOM    123  F   UNL A   1      38.978  25.428  28.669  1.00  0.00    -0.200 F 
ATOM    124  C   UNL A   1      40.117  27.156  27.532  1.00  0.00     0.200 A 
ATOM    125  F   UNL A   1      41.269  28.907  26.444  1.00  0.00    -0.200 F 
ATOM    126  F   UNL A   1      40.102  26.442  26.399  1.00  0.00    -0.200 F 
ENDBRANCH  88 116
BRANCH 103 127
ATOM    127  C   UNL A   1      44.425  28.642  35.427  1.00  0.00     0.064 A 
ATOM    128  C   UNL A   1      45.720  29.073  35.103  1.00  0.00     0.173 A 
ATOM    129  C   UNL A   1      44.289  27.429  36.118  1.00  0.00     0.173 A 
ATOM    130  F   UNL A   1      45.901  30.218  34.428  1.00  0.00    -0.203 F 
ATOM    131  C   UNL A   1      46.833  28.307  35.436  1.00  0.00     0.198 A 
ATOM    132  C   UNL A   1      45.405  26.678  36.475  1.00  0.00     0.198 A 
ATOM    133  F   UNL A   1      43.073  26.976  36.457  1.00  0.00    -0.203 F 
ATOM    134  F   UNL A   1      48.058  28.713  35.074  1.00  0.00    -0.200 F 
ATOM    135  C   UNL A   1      46.675  27.114  36.127  1.00  0.00     0.200 A 
ATOM    136  F   UNL A   1      45.252  25.533  37.153  1.00  0.00    -0.200 F 
ATOM    137  F   UNL A   1      47.748  26.379  36.451  1.00  0.00    -0.200 F 
ENDBRANCH 103 127
ENDBRANCH  68  71
ENDBRANCH  58  61
ENDBRANCH  54  57
ENDBRANCH  51  54
ENDBRANCH  48  51
ENDBRANCH  45  48
ENDBRANCH   1  45
TORSDOF 18
ENDMDL
MODEL 10
REMARK VINA RESULT:     -11.4      4.174      9.363
REMARK SMILES C[C@@H](C(=O)NCCCCCCNC(=O)c1ccc(-c2c3nc(c(-c4c(F)c(F)c(F)c(F)c4F)c4ccc([nH]4)c(-c4c(F)c(F)c(F)c(F)c4F)c4nc(c(-c5c(F)c(F)c(F)c(F)c5F)c5ccc2[nH]5)C=C4)C=C3)cc1)c1ccc(C[C@@H]2CCC[C@@H]2O)cc1F
REMARK SMILES IDX 7 1 6 4 5 7 3 8 4 9 2 11 1 13 78 17 79 18 90 19 80 20 89 22
REMARK SMILES IDX 91 23 81 24 82 27 83 30 84 31 87 32 85 34 86 37 88 43 8 45
REMARK SMILES IDX 9 48 10 51 11 54 12 57 13 58 14 60 15 61 16 62 77 63 17 64
REMARK SMILES IDX 76 66 18 68 19 71 20 72 70 73 21 74 75 75 69 76 71 77 22 78
REMARK SMILES IDX 74 79 68 81 67 83 23 85 55 88 35 89 54 90 36 91 39 92 53 93
REMARK SMILES IDX 72 94 37 95 38 97 52 99 73 100 40 103 24 105 25 106 33 107
REMARK SMILES IDX 26 108 27 109 31 110 34 111 28 112 29 113 32 114 30 115
REMARK SMILES IDX 56 116 57 117 65 118 58 119 59 120 63 121 66 122 60 123
REMARK SMILES IDX 61 124 64 125 62 126 41 127 42 128 50 129 43 130 44 131
REMARK SMILES IDX 48 132 51 133 45 134 46 135 49 136 47 137
REMARK H PARENT 7 2 7 3 6 5 6 6 5 10 2 12 1 14 1 15 1 16 79 21 80 25 89 26
REMARK H PARENT 82 28 82 29 83 33 84 35 84 36 87 38 85 39 85 40 86 41 86 42
REMARK H PARENT 88 44 8 46 8 47 9 49 9 50 10 52 10 53 11 55 11 56 12 59 16 65
REMARK H PARENT 77 67 17 69 76 70 75 80 69 82 71 84 74 86 68 87 36 96 39 98
REMARK H PARENT 72 101 37 102 73 104
REMARK Flexibility Score: inf
ROOT
ATOM      1  C   UNL A   1      32.396  23.932  26.397  1.00  0.00    -0.036 C 
ATOM      2  H   UNL A   1      32.539  23.643  27.417  1.00  0.00     0.028 H 
ATOM      3  H   UNL A   1      31.362  23.971  26.123  1.00  0.00     0.028 H 
ENDROOT
BRANCH   1   4
ATOM      4  C   UNL A   1      33.055  22.881  25.501  1.00  0.00     0.017 C 
ATOM      5  H   UNL A   1      33.475  22.110  26.113  1.00  0.00     0.049 H 
ATOM      6  H   UNL A   1      32.315  22.468  24.847  1.00  0.00     0.049 H 
BRANCH   4   7
ATOM      7  N   UNL A   1      34.102  23.483  24.705  1.00  0.00    -0.356 N 
ATOM      8  C   UNL A   1      34.167  23.700  23.360  1.00  0.00     0.227 C 
ATOM      9  O   UNL A   1      35.250  24.080  22.913  1.00  0.00    -0.274 OA
ATOM     10  H   UNL A   1      34.891  23.780  25.212  1.00  0.00     0.163 HD
BRANCH   8  11
ATOM     11  C   UNL A   1      32.907  23.543  22.499  1.00  0.00     0.063 C 
ATOM     12  H   UNL A   1      32.418  22.649  22.825  1.00  0.00     0.045 H 
BRANCH  11  13
ATOM     13  C   UNL A   1      33.218  23.321  21.014  1.00  0.00    -0.049 C 
ATOM     14  H   UNL A   1      32.945  22.325  20.737  1.00  0.00     0.024 H 
ATOM     15  H   UNL A   1      34.265  23.465  20.843  1.00  0.00     0.024 H 
ATOM     16  H   UNL A   1      32.661  24.020  20.424  1.00  0.00     0.024 H 
ENDBRANCH  11  13
BRANCH  11  17
ATOM     17  C   UNL A   1      31.948  24.704  22.719  1.00  0.00    -0.000 A 
ATOM     18  C   UNL A   1      32.309  25.992  22.295  1.00  0.00    -0.055 A 
ATOM     19  C   UNL A   1      30.689  24.534  23.303  1.00  0.00     0.127 A 
ATOM     20  C   UNL A   1      31.465  27.081  22.528  1.00  0.00    -0.059 A 
ATOM     21  H   UNL A   1      33.207  26.137  21.808  1.00  0.00     0.063 H 
ATOM     22  C   UNL A   1      29.858  25.618  23.559  1.00  0.00    -0.023 A 
ATOM     23  F   UNL A   1      30.264  23.316  23.666  1.00  0.00    -0.207 F 
ATOM     24  C   UNL A   1      30.256  26.913  23.212  1.00  0.00    -0.045 A 
ATOM     25  H   UNL A   1      31.736  28.019  22.192  1.00  0.00     0.063 H 
ATOM     26  H   UNL A   1      28.941  25.467  24.009  1.00  0.00     0.066 H 
BRANCH  24  27
ATOM     27  C   UNL A   1      29.404  28.092  23.609  1.00  0.00    -0.022 C 
ATOM     28  H   UNL A   1      29.980  28.690  24.286  1.00  0.00     0.032 H 
ATOM     29  H   UNL A   1      28.517  27.661  24.022  1.00  0.00     0.032 H 
BRANCH  27  30
ATOM     30  C   UNL A   1      28.904  29.023  22.480  1.00  0.00    -0.011 C 
ATOM     31  C   UNL A   1      29.711  30.316  22.310  1.00  0.00    -0.048 C 
ATOM     32  C   UNL A   1      27.463  29.536  22.567  1.00  0.00     0.057 C 
ATOM     33  H   UNL A   1      29.016  28.333  21.670  1.00  0.00     0.033 H 
ATOM     34  C   UNL A   1      28.905  31.434  22.977  1.00  0.00    -0.050 C 
ATOM     35  H   UNL A   1      29.848  30.530  21.270  1.00  0.00     0.027 H 
ATOM     36  H   UNL A   1      30.680  30.224  22.754  1.00  0.00     0.027 H 
ATOM     37  C   UNL A   1      27.554  30.836  23.354  1.00  0.00    -0.027 C 
ATOM     38  H   UNL A   1      27.050  29.692  21.592  1.00  0.00     0.060 H 
ATOM     39  H   UNL A   1      28.770  32.248  22.296  1.00  0.00     0.027 H 
ATOM     40  H   UNL A   1      29.412  31.810  23.840  1.00  0.00     0.027 H 
ATOM     41  H   UNL A   1      26.760  31.499  23.078  1.00  0.00     0.029 H 
ATOM     42  H   UNL A   1      27.465  30.675  24.408  1.00  0.00     0.029 H 
BRANCH  32  43
ATOM     43  O   UNL A   1      26.572  28.605  23.144  1.00  0.00    -0.393 OA
ATOM     44  H   UNL A   1      25.726  29.041  23.331  1.00  0.00     0.210 HD
ENDBRANCH  32  43
ENDBRANCH  27  30
ENDBRANCH  24  27
ENDBRANCH  11  17
ENDBRANCH   8  11
ENDBRANCH   4   7
ENDBRANCH   1   4
BRANCH   1  45
ATOM     45  C   UNL A   1      32.961  25.347  26.211  1.00  0.00    -0.052 C 
ATOM     46  H   UNL A   1      33.283  25.446  25.195  1.00  0.00     0.027 H 
ATOM     47  H   UNL A   1      33.755  25.448  26.920  1.00  0.00     0.027 H 
BRANCH  45  48
ATOM     48  C   UNL A   1      31.976  26.482  26.508  1.00  0.00    -0.052 C 
ATOM     49  H   UNL A   1      31.806  26.507  27.564  1.00  0.00     0.027 H 
ATOM     50  H   UNL A   1      31.093  26.269  25.942  1.00  0.00     0.027 H 
BRANCH  48  51
ATOM     51  C   UNL A   1      32.443  27.871  26.068  1.00  0.00    -0.036 C 
ATOM     52  H   UNL A   1      31.628  28.553  26.193  1.00  0.00     0.028 H 
ATOM     53  H   UNL A   1      32.759  27.778  25.050  1.00  0.00     0.028 H 
BRANCH  51  54
ATOM     54  C   UNL A   1      33.638  28.413  26.845  1.00  0.00     0.018 C 
ATOM     55  H   UNL A   1      34.528  28.229  26.281  1.00  0.00     0.049 H 
ATOM     56  H   UNL A   1      33.670  27.914  27.792  1.00  0.00     0.049 H 
BRANCH  54  57
ATOM     57  N   UNL A   1      33.528  29.841  27.096  1.00  0.00    -0.352 N 
ATOM     58  C   UNL A   1      34.373  30.667  27.789  1.00  0.00     0.251 C 
ATOM     59  H   UNL A   1      32.732  30.276  26.712  1.00  0.00     0.163 HD
ATOM     60  O   UNL A   1      34.029  31.816  28.062  1.00  0.00    -0.269 OA
BRANCH  58  61
ATOM     61  C   UNL A   1      35.694  30.174  28.231  1.00  0.00     0.039 A 
ATOM     62  C   UNL A   1      36.760  30.201  27.328  1.00  0.00    -0.049 A 
ATOM     63  C   UNL A   1      35.877  29.665  29.520  1.00  0.00    -0.049 A 
ATOM     64  C   UNL A   1      38.022  29.765  27.733  1.00  0.00    -0.053 A 
ATOM     65  H   UNL A   1      36.615  30.544  26.365  1.00  0.00     0.063 H 
ATOM     66  C   UNL A   1      37.150  29.292  29.944  1.00  0.00    -0.053 A 
ATOM     67  H   UNL A   1      35.071  29.567  30.157  1.00  0.00     0.063 H 
ATOM     68  C   UNL A   1      38.233  29.329  29.051  1.00  0.00    -0.014 A 
ATOM     69  H   UNL A   1      38.805  29.760  27.060  1.00  0.00     0.063 H 
ATOM     70  H   UNL A   1      37.297  28.986  30.919  1.00  0.00     0.063 H 
BRANCH  68  71
ATOM     71  C   UNL A   1      39.576  28.895  29.510  1.00  0.00     0.031 A 
ATOM     72  C   UNL A   1      40.345  29.734  30.491  1.00  0.00     0.074 A 
ATOM     73  C   UNL A   1      40.124  27.776  29.002  1.00  0.00     0.049 A 
ATOM     74  N   UNL A   1      41.550  29.554  30.970  1.00  0.00    -0.248 NA
ATOM     75  C   UNL A   1      39.681  30.953  30.981  1.00  0.00    -0.034 C 
ATOM     76  C   UNL A   1      39.496  26.901  28.010  1.00  0.00    -0.036 A 
ATOM     77  N   UNL A   1      41.340  27.185  29.244  1.00  0.00    -0.354 N 
ATOM     78  C   UNL A   1      41.794  30.640  31.800  1.00  0.00     0.074 A 
ATOM     79  C   UNL A   1      40.632  31.500  31.722  1.00  0.00    -0.034 C 
ATOM     80  H   UNL A   1      38.724  31.291  30.795  1.00  0.00     0.065 H 
ATOM     81  C   UNL A   1      40.319  25.874  27.745  1.00  0.00    -0.036 A 
ATOM     82  H   UNL A   1      38.568  27.050  27.582  1.00  0.00     0.065 H 
ATOM     83  C   UNL A   1      41.545  26.035  28.523  1.00  0.00     0.049 A 
ATOM     84  H   UNL A   1      42.000  27.551  29.875  1.00  0.00     0.167 HD
ATOM     85  C   UNL A   1      42.876  30.885  32.576  1.00  0.00     0.037 A 
ATOM     86  H   UNL A   1      40.556  32.420  32.184  1.00  0.00     0.065 H 
ATOM     87  H   UNL A   1      40.118  25.097  27.098  1.00  0.00     0.065 H 
ATOM     88  C   UNL A   1      42.604  25.204  28.492  1.00  0.00     0.037 A 
ATOM     89  C   UNL A   1      44.016  30.013  32.674  1.00  0.00     0.049 A 
ATOM     90  C   UNL A   1      43.793  25.497  29.367  1.00  0.00     0.074 A 
ATOM     91  C   UNL A   1      45.137  30.142  33.476  1.00  0.00    -0.036 A 
ATOM     92  N   UNL A   1      44.181  28.844  31.943  1.00  0.00    -0.354 N 
ATOM     93  N   UNL A   1      43.984  26.493  30.199  1.00  0.00    -0.248 NA
ATOM     94  C   UNL A   1      44.911  24.546  29.303  1.00  0.00    -0.034 C 
ATOM     95  C   UNL A   1      45.997  29.073  33.202  1.00  0.00    -0.036 A 
ATOM     96  H   UNL A   1      45.308  30.896  34.159  1.00  0.00     0.065 H 
ATOM     97  C   UNL A   1      45.393  28.253  32.262  1.00  0.00     0.049 A 
ATOM     98  H   UNL A   1      43.532  28.489  31.294  1.00  0.00     0.167 HD
ATOM     99  C   UNL A   1      45.226  26.273  30.778  1.00  0.00     0.074 A 
ATOM    100  C   UNL A   1      45.738  25.042  30.213  1.00  0.00    -0.034 C 
ATOM    101  H   UNL A   1      45.023  23.711  28.707  1.00  0.00     0.065 H 
ATOM    102  H   UNL A   1      46.926  28.921  33.627  1.00  0.00     0.065 H 
ATOM    103  C   UNL A   1      45.882  27.022  31.697  1.00  0.00     0.037 A 
ATOM    104  H   UNL A   1      46.634  24.606  30.483  1.00  0.00     0.065 H 
BRANCH  85 105
ATOM    105  C   UNL A   1      42.876  32.150  33.385  1.00  0.00     0.064 A 
ATOM    106  C   UNL A   1      42.357  32.189  34.688  1.00  0.00     0.173 A 
ATOM    107  C   UNL A   1      43.428  33.330  32.863  1.00  0.00     0.173 A 
ATOM    108  F   UNL A   1      41.806  31.092  35.229  1.00  0.00    -0.203 F 
ATOM    109  C   UNL A   1      42.362  33.370  35.426  1.00  0.00     0.198 A 
ATOM    110  C   UNL A   1      43.458  34.501  33.616  1.00  0.00     0.198 A 
ATOM    111  F   UNL A   1      43.943  33.346  31.625  1.00  0.00    -0.203 F 
ATOM    112  F   UNL A   1      41.813  33.395  36.649  1.00  0.00    -0.200 F 
ATOM    113  C   UNL A   1      42.918  34.522  34.893  1.00  0.00     0.200 A 
ATOM    114  F   UNL A   1      44.007  35.611  33.104  1.00  0.00    -0.200 F 
ATOM    115  F   UNL A   1      42.926  35.656  35.607  1.00  0.00    -0.200 F 
ENDBRANCH  85 105
BRANCH  88 116
ATOM    116  C   UNL A   1      42.575  23.996  27.628  1.00  0.00     0.064 A 
ATOM    117  C   UNL A   1      42.158  22.759  28.140  1.00  0.00     0.173 A 
ATOM    118  C   UNL A   1      42.964  24.049  26.283  1.00  0.00     0.173 A 
ATOM    119  F   UNL A   1      41.797  22.655  29.428  1.00  0.00    -0.203 F 
ATOM    120  C   UNL A   1      42.150  21.617  27.343  1.00  0.00     0.198 A 
ATOM    121  C   UNL A   1      42.931  22.912  25.479  1.00  0.00     0.198 A 
ATOM    122  F   UNL A   1      43.367  25.210  25.745  1.00  0.00    -0.203 F 
ATOM    123  F   UNL A   1      41.789  20.438  27.869  1.00  0.00    -0.200 F 
ATOM    124  C   UNL A   1      42.531  21.695  26.012  1.00  0.00     0.200 A 
ATOM    125  F   UNL A   1      43.287  22.993  24.190  1.00  0.00    -0.200 F 
ATOM    126  F   UNL A   1      42.520  20.597  25.245  1.00  0.00    -0.200 F 
ENDBRANCH  88 116
BRANCH 103 127
ATOM    127  C   UNL A   1      47.210  26.513  32.176  1.00  0.00     0.064 A 
ATOM    128  C   UNL A   1      48.413  26.918  31.579  1.00  0.00     0.173 A 
ATOM    129  C   UNL A   1      47.280  25.634  33.268  1.00  0.00     0.173 A 
ATOM    130  F   UNL A   1      48.397  27.744  30.522  1.00  0.00    -0.203 F 
ATOM    131  C   UNL A   1      49.636  26.441  32.041  1.00  0.00     0.198 A 
ATOM    132  C   UNL A   1      48.506  25.182  33.746  1.00  0.00     0.198 A 
ATOM    133  F   UNL A   1      46.159  25.222  33.877  1.00  0.00    -0.203 F 
ATOM    134  F   UNL A   1      50.770  26.803  31.426  1.00  0.00    -0.200 F 
ATOM    135  C   UNL A   1      49.682  25.580  33.128  1.00  0.00     0.200 A 
ATOM    136  F   UNL A   1      48.550  24.359  34.803  1.00  0.00    -0.200 F 
ATOM    137  F   UNL A   1      50.861  25.126  33.575  1.00  0.00    -0.200 F 
ENDBRANCH 103 127
ENDBRANCH  68  71
ENDBRANCH  58  61
ENDBRANCH  54  57
ENDBRANCH  51  54
ENDBRANCH  48  51
ENDBRANCH  45  48
ENDBRANCH   1  45
TORSDOF 18
ENDMDL
