MODEL 1
REMARK VINA RESULT:     -12.3      0.000      0.000
REMARK SMILES Cc1c(C)c2c(c(C)c1O)CC[C@@](C)(C(=O)NCCCCCCNC(=O)c1ccc(-c3c4nc(c(-c5c(F)c(F)c(F)c(F)c5F)c5ccc([nH]5)c(-c5c(F)c(F)c(F)c(F)c5F)c5nc(c(-c6c(F)c(F)c(F)c(F)c6F)c6ccc3[nH]6)C=C5)C=C4)cc1)O2
REMARK SMILES IDX 21 1 20 4 19 7 18 10 17 13 15 14 16 15 13 17 2 18 3 19 9 20
REMARK SMILES IDX 5 21 7 22 6 23 90 24 11 25 12 26 1 31 4 35 10 39 8 41 14 45
REMARK SMILES IDX 22 49 23 52 24 55 25 56 26 58 27 59 28 60 89 61 29 62 88 64
REMARK SMILES IDX 30 66 31 69 32 70 82 71 33 72 87 73 81 74 83 75 34 76 86 77
REMARK SMILES IDX 80 79 79 81 35 83 67 86 47 87 66 88 48 89 51 90 65 91 84 92
REMARK SMILES IDX 49 93 50 95 64 97 85 98 52 101 36 103 37 104 45 105 38 106
REMARK SMILES IDX 39 107 43 108 46 109 40 110 41 111 44 112 42 113 68 114
REMARK SMILES IDX 69 115 77 116 70 117 71 118 75 119 78 120 72 121 73 122
REMARK SMILES IDX 76 123 74 124 53 125 54 126 62 127 55 128 56 129 60 130
REMARK SMILES IDX 63 131 57 132 58 133 61 134 59 135
REMARK H PARENT 21 2 21 3 20 5 20 6 19 8 19 9 18 11 18 12 17 16 11 27 11 28
REMARK H PARENT 12 29 12 30 1 32 1 33 1 34 4 36 4 37 4 38 10 40 8 42 8 43 8 44
REMARK H PARENT 14 46 14 47 14 48 22 50 22 51 23 53 23 54 24 57 28 63 89 65
REMARK H PARENT 29 67 88 68 87 78 81 80 83 82 86 84 80 85 48 94 51 96 84 99
REMARK H PARENT 49 100 85 102
REMARK Flexibility Score: inf
ROOT
ATOM      1  C   UNL A   1      31.422  30.709  26.395  1.00  0.00    -0.052 C 
ATOM      2  H   UNL A   1      31.192  30.296  27.355  1.00  0.00     0.027 H 
ATOM      3  H   UNL A   1      30.695  30.473  25.646  1.00  0.00     0.027 H 
ENDROOT
BRANCH   1   4
ATOM      4  C   UNL A   1      32.744  30.096  25.919  1.00  0.00    -0.052 C 
ATOM      5  H   UNL A   1      33.443  30.891  25.764  1.00  0.00     0.027 H 
ATOM      6  H   UNL A   1      33.050  29.408  26.679  1.00  0.00     0.027 H 
BRANCH   4   7
ATOM      7  C   UNL A   1      32.644  29.290  24.622  1.00  0.00    -0.036 C 
ATOM      8  H   UNL A   1      31.673  28.843  24.575  1.00  0.00     0.028 H 
ATOM      9  H   UNL A   1      32.817  29.972  23.815  1.00  0.00     0.028 H 
BRANCH   7  10
ATOM     10  C   UNL A   1      33.692  28.185  24.506  1.00  0.00     0.017 C 
ATOM     11  H   UNL A   1      34.661  28.607  24.664  1.00  0.00     0.049 H 
ATOM     12  H   UNL A   1      33.477  27.440  25.244  1.00  0.00     0.049 H 
BRANCH  10  13
ATOM     13  N   UNL A   1      33.655  27.556  23.198  1.00  0.00    -0.353 N 
ATOM     14  C   UNL A   1      33.534  26.242  22.829  1.00  0.00     0.263 C 
ATOM     15  O   UNL A   1      33.574  26.003  21.619  1.00  0.00    -0.270 OA
ATOM     16  H   UNL A   1      33.733  28.184  22.443  1.00  0.00     0.163 HD
BRANCH  14  17
ATOM     17  C   UNL A   1      33.329  25.133  23.898  1.00  0.00     0.184 C 
ATOM     18  C   UNL A   1      32.735  20.383  24.344  1.00  0.00    -0.002 A 
ATOM     19  C   UNL A   1      32.761  21.543  23.531  1.00  0.00    -0.002 A 
ATOM     20  C   UNL A   1      33.164  20.480  25.682  1.00  0.00     0.122 A 
ATOM     21  C   UNL A   1      33.270  22.743  24.061  1.00  0.00     0.127 A 
ATOM     22  C   UNL A   1      33.688  21.668  26.210  1.00  0.00    -0.002 A 
ATOM     23  C   UNL A   1      33.774  22.799  25.375  1.00  0.00     0.001 A 
ATOM     24  O   UNL A   1      33.237  23.850  23.237  1.00  0.00    -0.477 OA
ATOM     25  C   UNL A   1      34.358  24.079  25.907  1.00  0.00    -0.019 C 
ATOM     26  C   UNL A   1      34.574  25.070  24.788  1.00  0.00     0.000 C 
ATOM     27  H   UNL A   1      35.297  23.869  26.377  1.00  0.00     0.032 H 
ATOM     28  H   UNL A   1      33.676  24.501  26.615  1.00  0.00     0.032 H 
ATOM     29  H   UNL A   1      35.414  24.763  24.199  1.00  0.00     0.032 H 
ATOM     30  H   UNL A   1      34.757  26.037  25.205  1.00  0.00     0.032 H 
BRANCH  18  31
ATOM     31  C   UNL A   1      32.197  19.085  23.795  1.00  0.00    -0.036 C 
ATOM     32  H   UNL A   1      32.734  18.823  22.908  1.00  0.00     0.028 H 
ATOM     33  H   UNL A   1      31.160  19.198  23.564  1.00  0.00     0.028 H 
ATOM     34  H   UNL A   1      32.318  18.312  24.526  1.00  0.00     0.028 H 
ENDBRANCH  18  31
BRANCH  19  35
ATOM     35  C   UNL A   1      32.247  21.499  22.112  1.00  0.00    -0.036 C 
ATOM     36  H   UNL A   1      32.851  20.832  21.534  1.00  0.00     0.028 H 
ATOM     37  H   UNL A   1      32.290  22.480  21.685  1.00  0.00     0.028 H 
ATOM     38  H   UNL A   1      31.233  21.154  22.110  1.00  0.00     0.028 H 
ENDBRANCH  19  35
BRANCH  20  39
ATOM     39  O   UNL A   1      33.084  19.412  26.539  1.00  0.00    -0.507 OA
ATOM     40  H   UNL A   1      32.522  19.454  27.287  1.00  0.00     0.293 HD
ENDBRANCH  20  39
BRANCH  22  41
ATOM     41  C   UNL A   1      34.141  21.754  27.647  1.00  0.00    -0.036 C 
ATOM     42  H   UNL A   1      33.536  22.465  28.170  1.00  0.00     0.028 H 
ATOM     43  H   UNL A   1      35.165  22.064  27.680  1.00  0.00     0.028 H 
ATOM     44  H   UNL A   1      34.044  20.795  28.109  1.00  0.00     0.028 H 
ENDBRANCH  22  41
BRANCH  17  45
ATOM     45  C   UNL A   1      31.957  25.386  24.561  1.00  0.00    -0.016 C 
ATOM     46  H   UNL A   1      31.260  24.643  24.234  1.00  0.00     0.028 H 
ATOM     47  H   UNL A   1      31.600  26.356  24.284  1.00  0.00     0.028 H 
ATOM     48  H   UNL A   1      32.060  25.335  25.625  1.00  0.00     0.028 H 
ENDBRANCH  17  45
ENDBRANCH  14  17
ENDBRANCH  10  13
ENDBRANCH   7  10
ENDBRANCH   4   7
ENDBRANCH   1   4
BRANCH   1  49
ATOM     49  C   UNL A   1      31.429  32.234  26.522  1.00  0.00    -0.036 C 
ATOM     50  H   UNL A   1      30.549  32.530  27.053  1.00  0.00     0.028 H 
ATOM     51  H   UNL A   1      31.462  32.625  25.526  1.00  0.00     0.028 H 
BRANCH  49  52
ATOM     52  C   UNL A   1      32.641  32.795  27.253  1.00  0.00     0.018 C 
ATOM     53  H   UNL A   1      33.496  32.721  26.613  1.00  0.00     0.049 H 
ATOM     54  H   UNL A   1      32.781  32.227  28.149  1.00  0.00     0.049 H 
BRANCH  52  55
ATOM     55  N   UNL A   1      32.452  34.187  27.627  1.00  0.00    -0.352 N 
ATOM     56  C   UNL A   1      33.044  34.902  28.635  1.00  0.00     0.251 C 
ATOM     57  H   UNL A   1      31.808  34.689  27.075  1.00  0.00     0.163 HD
ATOM     58  O   UNL A   1      32.615  36.009  28.950  1.00  0.00    -0.269 OA
BRANCH  56  59
ATOM     59  C   UNL A   1      34.194  34.324  29.358  1.00  0.00     0.039 A 
ATOM     60  C   UNL A   1      33.960  33.566  30.505  1.00  0.00    -0.049 A 
ATOM     61  C   UNL A   1      35.499  34.531  28.897  1.00  0.00    -0.049 A 
ATOM     62  C   UNL A   1      35.034  32.969  31.166  1.00  0.00    -0.053 A 
ATOM     63  H   UNL A   1      33.000  33.446  30.863  1.00  0.00     0.063 H 
ATOM     64  C   UNL A   1      36.558  33.872  29.509  1.00  0.00    -0.053 A 
ATOM     65  H   UNL A   1      35.673  35.172  28.108  1.00  0.00     0.063 H 
ATOM     66  C   UNL A   1      36.337  33.094  30.655  1.00  0.00    -0.014 A 
ATOM     67  H   UNL A   1      34.872  32.433  32.032  1.00  0.00     0.063 H 
ATOM     68  H   UNL A   1      37.509  33.954  29.118  1.00  0.00     0.063 H 
BRANCH  66  69
ATOM     69  C   UNL A   1      37.485  32.435  31.323  1.00  0.00     0.031 A 
ATOM     70  C   UNL A   1      38.217  31.320  30.635  1.00  0.00     0.074 A 
ATOM     71  C   UNL A   1      37.840  32.815  32.565  1.00  0.00     0.049 A 
ATOM     72  N   UNL A   1      39.225  30.604  31.064  1.00  0.00    -0.248 NA
ATOM     73  C   UNL A   1      37.737  30.941  29.297  1.00  0.00    -0.034 C 
ATOM     74  C   UNL A   1      37.181  33.861  33.346  1.00  0.00    -0.036 A 
ATOM     75  N   UNL A   1      38.844  32.366  33.386  1.00  0.00    -0.354 N 
ATOM     76  C   UNL A   1      39.496  29.694  30.051  1.00  0.00     0.074 A 
ATOM     77  C   UNL A   1      38.504  29.899  29.019  1.00  0.00    -0.034 C 
ATOM     78  H   UNL A   1      36.995  31.374  28.725  1.00  0.00     0.065 H 
ATOM     79  C   UNL A   1      37.819  34.000  34.519  1.00  0.00    -0.036 A 
ATOM     80  H   UNL A   1      36.357  34.404  33.045  1.00  0.00     0.065 H 
ATOM     81  C   UNL A   1      38.906  33.027  34.588  1.00  0.00     0.049 A 
ATOM     82  H   UNL A   1      39.460  31.640  33.137  1.00  0.00     0.167 HD
ATOM     83  C   UNL A   1      40.503  28.791  29.976  1.00  0.00     0.037 A 
ATOM     84  H   UNL A   1      38.408  29.310  28.176  1.00  0.00     0.065 H 
ATOM     85  H   UNL A   1      37.579  34.684  35.253  1.00  0.00     0.065 H 
ATOM     86  C   UNL A   1      39.746  32.867  35.628  1.00  0.00     0.037 A 
ATOM     87  C   UNL A   1      41.492  28.602  31.004  1.00  0.00     0.049 A 
ATOM     88  C   UNL A   1      40.835  31.832  35.540  1.00  0.00     0.074 A 
ATOM     89  C   UNL A   1      42.580  27.747  31.004  1.00  0.00    -0.036 A 
ATOM     90  N   UNL A   1      41.511  29.275  32.217  1.00  0.00    -0.354 N 
ATOM     91  N   UNL A   1      41.123  31.020  34.553  1.00  0.00    -0.248 NA
ATOM     92  C   UNL A   1      41.715  31.694  36.709  1.00  0.00    -0.034 C 
ATOM     93  C   UNL A   1      43.221  27.858  32.241  1.00  0.00    -0.036 A 
ATOM     94  H   UNL A   1      42.868  27.133  30.226  1.00  0.00     0.065 H 
ATOM     95  C   UNL A   1      42.571  28.828  32.989  1.00  0.00     0.049 A 
ATOM     96  H   UNL A   1      40.866  29.966  32.490  1.00  0.00     0.167 HD
ATOM     97  C   UNL A   1      42.226  30.287  34.969  1.00  0.00     0.074 A 
ATOM     98  C   UNL A   1      42.566  30.765  36.294  1.00  0.00    -0.034 C 
ATOM     99  H   UNL A   1      41.680  32.189  37.613  1.00  0.00     0.065 H 
ATOM    100  H   UNL A   1      44.040  27.310  32.547  1.00  0.00     0.065 H 
ATOM    101  C   UNL A   1      42.895  29.308  34.311  1.00  0.00     0.037 A 
ATOM    102  H   UNL A   1      43.369  30.424  36.846  1.00  0.00     0.065 H 
BRANCH  83 103
ATOM    103  C   UNL A   1      40.581  27.941  28.740  1.00  0.00     0.064 A 
ATOM    104  C   UNL A   1      39.899  26.718  28.644  1.00  0.00     0.173 A 
ATOM    105  C   UNL A   1      41.321  28.366  27.627  1.00  0.00     0.173 A 
ATOM    106  F   UNL A   1      39.186  26.258  29.684  1.00  0.00    -0.203 F 
ATOM    107  C   UNL A   1      39.982  25.938  27.493  1.00  0.00     0.198 A 
ATOM    108  C   UNL A   1      41.373  27.601  26.465  1.00  0.00     0.198 A 
ATOM    109  F   UNL A   1      41.989  29.529  27.662  1.00  0.00    -0.203 F 
ATOM    110  F   UNL A   1      39.368  24.747  27.447  1.00  0.00    -0.200 F 
ATOM    111  C   UNL A   1      40.712  26.384  26.402  1.00  0.00     0.200 A 
ATOM    112  F   UNL A   1      42.066  28.040  25.405  1.00  0.00    -0.200 F 
ATOM    113  F   UNL A   1      40.784  25.636  25.293  1.00  0.00    -0.200 F 
ENDBRANCH  83 103
BRANCH  86 114
ATOM    114  C   UNL A   1      39.607  33.749  36.817  1.00  0.00     0.064 A 
ATOM    115  C   UNL A   1      40.195  35.020  36.837  1.00  0.00     0.173 A 
ATOM    116  C   UNL A   1      38.836  33.367  37.924  1.00  0.00     0.173 A 
ATOM    117  F   UNL A   1      40.957  35.423  35.808  1.00  0.00    -0.203 F 
ATOM    118  C   UNL A   1      40.013  35.880  37.918  1.00  0.00     0.198 A 
ATOM    119  C   UNL A   1      38.633  34.238  38.993  1.00  0.00     0.198 A 
ATOM    120  F   UNL A   1      38.248  32.162  37.951  1.00  0.00    -0.203 F 
ATOM    121  F   UNL A   1      40.600  37.084  37.920  1.00  0.00    -0.200 F 
ATOM    122  C   UNL A   1      39.222  35.493  38.990  1.00  0.00     0.200 A 
ATOM    123  F   UNL A   1      37.853  33.866  40.018  1.00  0.00    -0.200 F 
ATOM    124  F   UNL A   1      39.027  36.330  40.018  1.00  0.00    -0.200 F 
ENDBRANCH  86 114
BRANCH 101 125
ATOM    125  C   UNL A   1      44.069  28.678  35.004  1.00  0.00     0.064 A 
ATOM    126  C   UNL A   1      45.357  29.226  34.908  1.00  0.00     0.173 A 
ATOM    127  C   UNL A   1      43.889  27.566  35.843  1.00  0.00     0.173 A 
ATOM    128  F   UNL A   1      45.584  30.281  34.112  1.00  0.00    -0.203 F 
ATOM    129  C   UNL A   1      46.423  28.676  35.617  1.00  0.00     0.198 A 
ATOM    130  C   UNL A   1      44.950  27.041  36.574  1.00  0.00     0.198 A 
ATOM    131  F   UNL A   1      42.675  27.010  35.976  1.00  0.00    -0.203 F 
ATOM    132  F   UNL A   1      47.651  29.196  35.484  1.00  0.00    -0.200 F 
ATOM    133  C   UNL A   1      46.216  27.593  36.458  1.00  0.00     0.200 A 
ATOM    134  F   UNL A   1      44.744  26.006  37.401  1.00  0.00    -0.200 F 
ATOM    135  F   UNL A   1      47.239  27.081  37.156  1.00  0.00    -0.200 F 
ENDBRANCH 101 125
ENDBRANCH  66  69
ENDBRANCH  56  59
ENDBRANCH  52  55
ENDBRANCH  49  52
ENDBRANCH   1  49
TORSDOF 18
ENDMDL
MODEL 2
REMARK VINA RESULT:     -12.3      0.151      1.591
REMARK SMILES Cc1c(C)c2c(c(C)c1O)CC[C@@](C)(C(=O)NCCCCCCNC(=O)c1ccc(-c3c4nc(c(-c5c(F)c(F)c(F)c(F)c5F)c5ccc([nH]5)c(-c5c(F)c(F)c(F)c(F)c5F)c5nc(c(-c6c(F)c(F)c(F)c(F)c6F)c6ccc3[nH]6)C=C5)C=C4)cc1)O2
REMARK SMILES IDX 21 1 20 4 19 7 18 10 17 13 15 14 16 15 13 17 2 18 3 19 9 20
REMARK SMILES IDX 5 21 7 22 6 23 90 24 11 25 12 26 1 31 4 35 10 39 8 41 14 45
REMARK SMILES IDX 22 49 23 52 24 55 25 56 26 58 27 59 28 60 89 61 29 62 88 64
REMARK SMILES IDX 30 66 31 69 32 70 82 71 33 72 87 73 81 74 83 75 34 76 86 77
REMARK SMILES IDX 80 79 79 81 35 83 67 86 47 87 66 88 48 89 51 90 65 91 84 92
REMARK SMILES IDX 49 93 50 95 64 97 85 98 52 101 36 103 37 104 45 105 38 106
REMARK SMILES IDX 39 107 43 108 46 109 40 110 41 111 44 112 42 113 68 114
REMARK SMILES IDX 69 115 77 116 70 117 71 118 75 119 78 120 72 121 73 122
REMARK SMILES IDX 76 123 74 124 53 125 54 126 62 127 55 128 56 129 60 130
REMARK SMILES IDX 63 131 57 132 58 133 61 134 59 135
REMARK H PARENT 21 2 21 3 20 5 20 6 19 8 19 9 18 11 18 12 17 16 11 27 11 28
REMARK H PARENT 12 29 12 30 1 32 1 33 1 34 4 36 4 37 4 38 10 40 8 42 8 43 8 44
REMARK H PARENT 14 46 14 47 14 48 22 50 22 51 23 53 23 54 24 57 28 63 89 65
REMARK H PARENT 29 67 88 68 87 78 81 80 83 82 86 84 80 85 48 94 51 96 84 99
REMARK H PARENT 49 100 85 102
REMARK Flexibility Score: inf
ROOT
ATOM      1  C   UNL A   1      31.405  30.680  26.341  1.00  0.00    -0.052 C 
ATOM      2  H   UNL A   1      31.165  30.233  27.284  1.00  0.00     0.027 H 
ATOM      3  H   UNL A   1      30.693  30.459  25.574  1.00  0.00     0.027 H 
ENDROOT
BRANCH   1   4
ATOM      4  C   UNL A   1      32.742  30.099  25.867  1.00  0.00    -0.052 C 
ATOM      5  H   UNL A   1      33.427  30.910  25.727  1.00  0.00     0.027 H 
ATOM      6  H   UNL A   1      33.056  29.407  26.621  1.00  0.00     0.027 H 
BRANCH   4   7
ATOM      7  C   UNL A   1      32.668  29.308  24.559  1.00  0.00    -0.036 C 
ATOM      8  H   UNL A   1      31.680  28.908  24.462  1.00  0.00     0.028 H 
ATOM      9  H   UNL A   1      32.912  29.987  23.768  1.00  0.00     0.028 H 
BRANCH   7  10
ATOM     10  C   UNL A   1      33.666  28.155  24.484  1.00  0.00     0.017 C 
ATOM     11  H   UNL A   1      34.648  28.533  24.673  1.00  0.00     0.049 H 
ATOM     12  H   UNL A   1      33.392  27.425  25.217  1.00  0.00     0.049 H 
BRANCH  10  13
ATOM     13  N   UNL A   1      33.645  27.521  23.178  1.00  0.00    -0.353 N 
ATOM     14  C   UNL A   1      33.537  26.204  22.814  1.00  0.00     0.263 C 
ATOM     15  O   UNL A   1      33.588  25.962  21.604  1.00  0.00    -0.270 OA
ATOM     16  H   UNL A   1      33.723  28.147  22.421  1.00  0.00     0.163 HD
BRANCH  14  17
ATOM     17  C   UNL A   1      33.331  25.098  23.884  1.00  0.00     0.184 C 
ATOM     18  C   UNL A   1      32.738  20.349  24.340  1.00  0.00    -0.002 A 
ATOM     19  C   UNL A   1      32.764  21.507  23.525  1.00  0.00    -0.002 A 
ATOM     20  C   UNL A   1      33.167  20.449  25.679  1.00  0.00     0.122 A 
ATOM     21  C   UNL A   1      33.273  22.708  24.052  1.00  0.00     0.127 A 
ATOM     22  C   UNL A   1      33.691  21.639  26.204  1.00  0.00    -0.002 A 
ATOM     23  C   UNL A   1      33.777  22.767  25.367  1.00  0.00     0.001 A 
ATOM     24  O   UNL A   1      33.240  23.813  23.226  1.00  0.00    -0.477 OA
ATOM     25  C   UNL A   1      34.361  24.049  25.896  1.00  0.00    -0.019 C 
ATOM     26  C   UNL A   1      34.576  25.037  24.774  1.00  0.00     0.000 C 
ATOM     27  H   UNL A   1      35.299  23.840  26.366  1.00  0.00     0.032 H 
ATOM     28  H   UNL A   1      33.678  24.472  26.602  1.00  0.00     0.032 H 
ATOM     29  H   UNL A   1      35.417  24.730  24.187  1.00  0.00     0.032 H 
ATOM     30  H   UNL A   1      34.759  26.005  25.189  1.00  0.00     0.032 H 
BRANCH  18  31
ATOM     31  C   UNL A   1      32.201  19.049  23.795  1.00  0.00    -0.036 C 
ATOM     32  H   UNL A   1      31.692  19.233  22.872  1.00  0.00     0.028 H 
ATOM     33  H   UNL A   1      31.519  18.622  24.499  1.00  0.00     0.028 H 
ATOM     34  H   UNL A   1      33.012  18.371  23.626  1.00  0.00     0.028 H 
ENDBRANCH  18  31
BRANCH  19  35
ATOM     35  C   UNL A   1      32.250  21.460  22.106  1.00  0.00    -0.036 C 
ATOM     36  H   UNL A   1      32.754  22.198  21.519  1.00  0.00     0.028 H 
ATOM     37  H   UNL A   1      31.198  21.656  22.100  1.00  0.00     0.028 H 
ATOM     38  H   UNL A   1      32.434  20.489  21.692  1.00  0.00     0.028 H 
ENDBRANCH  19  35
BRANCH  20  39
ATOM     39  O   UNL A   1      33.087  19.383  26.538  1.00  0.00    -0.507 OA
ATOM     40  H   UNL A   1      32.571  19.447  27.317  1.00  0.00     0.293 HD
ENDBRANCH  20  39
BRANCH  22  41
ATOM     41  C   UNL A   1      34.143  21.727  27.641  1.00  0.00    -0.036 C 
ATOM     42  H   UNL A   1      35.156  21.391  27.718  1.00  0.00     0.028 H 
ATOM     43  H   UNL A   1      33.516  21.111  28.251  1.00  0.00     0.028 H 
ATOM     44  H   UNL A   1      34.078  22.741  27.974  1.00  0.00     0.028 H 
ENDBRANCH  22  41
BRANCH  17  45
ATOM     45  C   UNL A   1      31.959  25.352  24.547  1.00  0.00    -0.016 C 
ATOM     46  H   UNL A   1      32.067  26.081  25.322  1.00  0.00     0.028 H 
ATOM     47  H   UNL A   1      31.590  24.439  24.965  1.00  0.00     0.028 H 
ATOM     48  H   UNL A   1      31.270  25.712  23.812  1.00  0.00     0.028 H 
ENDBRANCH  17  45
ENDBRANCH  14  17
ENDBRANCH  10  13
ENDBRANCH   7  10
ENDBRANCH   4   7
ENDBRANCH   1   4
BRANCH   1  49
ATOM     49  C   UNL A   1      31.390  32.200  26.517  1.00  0.00    -0.036 C 
ATOM     50  H   UNL A   1      30.514  32.464  27.072  1.00  0.00     0.028 H 
ATOM     51  H   UNL A   1      31.402  32.623  25.535  1.00  0.00     0.028 H 
BRANCH  49  52
ATOM     52  C   UNL A   1      32.605  32.757  27.248  1.00  0.00     0.018 C 
ATOM     53  H   UNL A   1      33.460  32.673  26.611  1.00  0.00     0.049 H 
ATOM     54  H   UNL A   1      32.738  32.193  28.148  1.00  0.00     0.049 H 
BRANCH  52  55
ATOM     55  N   UNL A   1      32.425  34.152  27.613  1.00  0.00    -0.352 N 
ATOM     56  C   UNL A   1      33.029  34.872  28.610  1.00  0.00     0.251 C 
ATOM     57  H   UNL A   1      31.777  34.652  27.064  1.00  0.00     0.163 HD
ATOM     58  O   UNL A   1      32.608  35.983  28.921  1.00  0.00    -0.269 OA
BRANCH  56  59
ATOM     59  C   UNL A   1      34.183  34.295  29.327  1.00  0.00     0.039 A 
ATOM     60  C   UNL A   1      33.954  33.510  30.457  1.00  0.00    -0.049 A 
ATOM     61  C   UNL A   1      35.487  34.529  28.877  1.00  0.00    -0.049 A 
ATOM     62  C   UNL A   1      35.034  32.914  31.111  1.00  0.00    -0.053 A 
ATOM     63  H   UNL A   1      32.994  33.370  30.808  1.00  0.00     0.063 H 
ATOM     64  C   UNL A   1      36.553  33.871  29.480  1.00  0.00    -0.053 A 
ATOM     65  H   UNL A   1      35.656  35.188  28.102  1.00  0.00     0.063 H 
ATOM     66  C   UNL A   1      36.337  33.067  30.609  1.00  0.00    -0.014 A 
ATOM     67  H   UNL A   1      34.874  32.359  31.965  1.00  0.00     0.063 H 
ATOM     68  H   UNL A   1      37.504  33.974  29.095  1.00  0.00     0.063 H 
BRANCH  66  69
ATOM     69  C   UNL A   1      37.491  32.410  31.269  1.00  0.00     0.031 A 
ATOM     70  C   UNL A   1      38.225  31.302  30.572  1.00  0.00     0.074 A 
ATOM     71  C   UNL A   1      37.849  32.785  32.511  1.00  0.00     0.049 A 
ATOM     72  N   UNL A   1      39.238  30.588  30.993  1.00  0.00    -0.248 NA
ATOM     73  C   UNL A   1      37.742  30.928  29.234  1.00  0.00    -0.034 C 
ATOM     74  C   UNL A   1      37.188  33.824  33.300  1.00  0.00    -0.036 A 
ATOM     75  N   UNL A   1      38.858  32.337  33.326  1.00  0.00    -0.354 N 
ATOM     76  C   UNL A   1      39.509  29.685  29.974  1.00  0.00     0.074 A 
ATOM     77  C   UNL A   1      38.512  29.891  28.947  1.00  0.00    -0.034 C 
ATOM     78  H   UNL A   1      36.995  31.361  28.667  1.00  0.00     0.065 H 
ATOM     79  C   UNL A   1      37.830  33.959  34.471  1.00  0.00    -0.036 A 
ATOM     80  H   UNL A   1      36.361  34.365  33.005  1.00  0.00     0.065 H 
ATOM     81  C   UNL A   1      38.922  32.991  34.530  1.00  0.00     0.049 A 
ATOM     82  H   UNL A   1      39.477  31.615  33.070  1.00  0.00     0.167 HD
ATOM     83  C   UNL A   1      40.520  28.787  29.890  1.00  0.00     0.037 A 
ATOM     84  H   UNL A   1      38.415  29.306  28.101  1.00  0.00     0.065 H 
ATOM     85  H   UNL A   1      37.591  34.638  35.210  1.00  0.00     0.065 H 
ATOM     86  C   UNL A   1      39.767  32.829  35.567  1.00  0.00     0.037 A 
ATOM     87  C   UNL A   1      41.514  28.597  30.913  1.00  0.00     0.049 A 
ATOM     88  C   UNL A   1      40.860  31.800  35.469  1.00  0.00     0.074 A 
ATOM     89  C   UNL A   1      42.606  27.747  30.904  1.00  0.00    -0.036 A 
ATOM     90  N   UNL A   1      41.535  29.264  32.129  1.00  0.00    -0.354 N 
ATOM     91  N   UNL A   1      41.149  30.994  34.476  1.00  0.00    -0.248 NA
ATOM     92  C   UNL A   1      41.746  31.660  36.633  1.00  0.00    -0.034 C 
ATOM     93  C   UNL A   1      43.252  27.855  32.139  1.00  0.00    -0.036 A 
ATOM     94  H   UNL A   1      42.894  27.139  30.121  1.00  0.00     0.065 H 
ATOM     95  C   UNL A   1      42.600  28.818  32.895  1.00  0.00     0.049 A 
ATOM     96  H   UNL A   1      40.887  29.951  32.408  1.00  0.00     0.167 HD
ATOM     97  C   UNL A   1      42.257  30.265  34.884  1.00  0.00     0.074 A 
ATOM     98  C   UNL A   1      42.600  30.737  36.210  1.00  0.00    -0.034 C 
ATOM     99  H   UNL A   1      41.713  32.150  37.540  1.00  0.00     0.065 H 
ATOM    100  H   UNL A   1      44.074  27.309  32.438  1.00  0.00     0.065 H 
ATOM    101  C   UNL A   1      42.927  29.292  34.218  1.00  0.00     0.037 A 
ATOM    102  H   UNL A   1      43.407  30.397  36.757  1.00  0.00     0.065 H 
BRANCH  83 103
ATOM    103  C   UNL A   1      40.597  27.944  28.649  1.00  0.00     0.064 A 
ATOM    104  C   UNL A   1      41.343  28.348  27.531  1.00  0.00     0.173 A 
ATOM    105  C   UNL A   1      39.943  26.704  28.586  1.00  0.00     0.173 A 
ATOM    106  F   UNL A   1      41.978  29.530  27.533  1.00  0.00    -0.203 F 
ATOM    107  C   UNL A   1      41.404  27.558  26.385  1.00  0.00     0.198 A 
ATOM    108  C   UNL A   1      40.035  25.901  27.453  1.00  0.00     0.198 A 
ATOM    109  F   UNL A   1      39.219  26.267  29.628  1.00  0.00    -0.203 F 
ATOM    110  F   UNL A   1      42.076  27.992  25.310  1.00  0.00    -0.200 F 
ATOM    111  C   UNL A   1      40.757  26.333  26.350  1.00  0.00     0.200 A 
ATOM    112  F   UNL A   1      39.423  24.710  27.426  1.00  0.00    -0.200 F 
ATOM    113  F   UNL A   1      40.824  25.570  25.251  1.00  0.00    -0.200 F 
ENDBRANCH  83 103
BRANCH  86 114
ATOM    114  C   UNL A   1      39.630  33.704  36.761  1.00  0.00     0.064 A 
ATOM    115  C   UNL A   1      40.247  34.961  36.802  1.00  0.00     0.173 A 
ATOM    116  C   UNL A   1      38.830  33.332  37.851  1.00  0.00     0.173 A 
ATOM    117  F   UNL A   1      41.036  35.353  35.790  1.00  0.00    -0.203 F 
ATOM    118  C   UNL A   1      40.067  35.816  37.888  1.00  0.00     0.198 A 
ATOM    119  C   UNL A   1      38.629  34.199  38.924  1.00  0.00     0.198 A 
ATOM    120  F   UNL A   1      38.213  32.142  37.857  1.00  0.00    -0.203 F 
ATOM    121  F   UNL A   1      40.683  37.005  37.910  1.00  0.00    -0.200 F 
ATOM    122  C   UNL A   1      39.249  35.439  38.942  1.00  0.00     0.200 A 
ATOM    123  F   UNL A   1      37.823  33.837  39.932  1.00  0.00    -0.200 F 
ATOM    124  F   UNL A   1      39.056  36.272  39.974  1.00  0.00    -0.200 F 
ENDBRANCH  86 114
BRANCH 101 125
ATOM    125  C   UNL A   1      44.107  28.664  34.903  1.00  0.00     0.064 A 
ATOM    126  C   UNL A   1      43.976  27.492  35.662  1.00  0.00     0.173 A 
ATOM    127  C   UNL A   1      45.397  29.192  34.727  1.00  0.00     0.173 A 
ATOM    128  F   UNL A   1      42.765  26.955  35.870  1.00  0.00    -0.203 F 
ATOM    129  C   UNL A   1      45.091  26.879  36.229  1.00  0.00     0.198 A 
ATOM    130  C   UNL A   1      46.511  28.558  35.268  1.00  0.00     0.198 A 
ATOM    131  F   UNL A   1      45.578  30.307  34.002  1.00  0.00    -0.203 F 
ATOM    132  F   UNL A   1      44.938  25.778  36.978  1.00  0.00    -0.200 F 
ATOM    133  C   UNL A   1      46.357  27.405  36.021  1.00  0.00     0.200 A 
ATOM    134  F   UNL A   1      47.736  29.057  35.049  1.00  0.00    -0.200 F 
ATOM    135  F   UNL A   1      47.430  26.800  36.549  1.00  0.00    -0.200 F 
ENDBRANCH 101 125
ENDBRANCH  66  69
ENDBRANCH  56  59
ENDBRANCH  52  55
ENDBRANCH  49  52
ENDBRANCH   1  49
TORSDOF 18
ENDMDL
MODEL 3
REMARK VINA RESULT:     -12.2      0.251      1.147
REMARK SMILES Cc1c(C)c2c(c(C)c1O)CC[C@@](C)(C(=O)NCCCCCCNC(=O)c1ccc(-c3c4nc(c(-c5c(F)c(F)c(F)c(F)c5F)c5ccc([nH]5)c(-c5c(F)c(F)c(F)c(F)c5F)c5nc(c(-c6c(F)c(F)c(F)c(F)c6F)c6ccc3[nH]6)C=C5)C=C4)cc1)O2
REMARK SMILES IDX 21 1 20 4 19 7 18 10 17 13 15 14 16 15 13 17 2 18 3 19 9 20
REMARK SMILES IDX 5 21 7 22 6 23 90 24 11 25 12 26 1 31 4 35 10 39 8 41 14 45
REMARK SMILES IDX 22 49 23 52 24 55 25 56 26 58 27 59 28 60 89 61 29 62 88 64
REMARK SMILES IDX 30 66 31 69 32 70 82 71 33 72 87 73 81 74 83 75 34 76 86 77
REMARK SMILES IDX 80 79 79 81 35 83 67 86 47 87 66 88 48 89 51 90 65 91 84 92
REMARK SMILES IDX 49 93 50 95 64 97 85 98 52 101 36 103 37 104 45 105 38 106
REMARK SMILES IDX 39 107 43 108 46 109 40 110 41 111 44 112 42 113 68 114
REMARK SMILES IDX 69 115 77 116 70 117 71 118 75 119 78 120 72 121 73 122
REMARK SMILES IDX 76 123 74 124 53 125 54 126 62 127 55 128 56 129 60 130
REMARK SMILES IDX 63 131 57 132 58 133 61 134 59 135
REMARK H PARENT 21 2 21 3 20 5 20 6 19 8 19 9 18 11 18 12 17 16 11 27 11 28
REMARK H PARENT 12 29 12 30 1 32 1 33 1 34 4 36 4 37 4 38 10 40 8 42 8 43 8 44
REMARK H PARENT 14 46 14 47 14 48 22 50 22 51 23 53 23 54 24 57 28 63 89 65
REMARK H PARENT 29 67 88 68 87 78 81 80 83 82 86 84 80 85 48 94 51 96 84 99
REMARK H PARENT 49 100 85 102
REMARK Flexibility Score: inf
ROOT
ATOM      1  C   UNL A   1      31.407  30.717  26.379  1.00  0.00    -0.052 C 
ATOM      2  H   UNL A   1      31.218  30.308  27.350  1.00  0.00     0.027 H 
ATOM      3  H   UNL A   1      30.653  30.471  25.661  1.00  0.00     0.027 H 
ENDROOT
BRANCH   1   4
ATOM      4  C   UNL A   1      32.714  30.112  25.854  1.00  0.00    -0.052 C 
ATOM      5  H   UNL A   1      33.381  30.914  25.617  1.00  0.00     0.027 H 
ATOM      6  H   UNL A   1      33.083  29.471  26.628  1.00  0.00     0.027 H 
BRANCH   4   7
ATOM      7  C   UNL A   1      32.558  29.238  24.608  1.00  0.00    -0.036 C 
ATOM      8  H   UNL A   1      31.620  28.727  24.668  1.00  0.00     0.028 H 
ATOM      9  H   UNL A   1      32.615  29.888  23.760  1.00  0.00     0.028 H 
BRANCH   7  10
ATOM     10  C   UNL A   1      33.664  28.197  24.449  1.00  0.00     0.017 C 
ATOM     11  H   UNL A   1      34.613  28.678  24.560  1.00  0.00     0.049 H 
ATOM     12  H   UNL A   1      33.530  27.445  25.198  1.00  0.00     0.049 H 
BRANCH  10  13
ATOM     13  N   UNL A   1      33.607  27.559  23.145  1.00  0.00    -0.353 N 
ATOM     14  C   UNL A   1      33.474  26.242  22.789  1.00  0.00     0.263 C 
ATOM     15  O   UNL A   1      33.496  25.995  21.580  1.00  0.00    -0.270 OA
ATOM     16  H   UNL A   1      33.678  28.180  22.385  1.00  0.00     0.163 HD
BRANCH  14  17
ATOM     17  C   UNL A   1      33.276  25.143  23.868  1.00  0.00     0.184 C 
ATOM     18  C   UNL A   1      32.744  20.390  24.363  1.00  0.00    -0.002 A 
ATOM     19  C   UNL A   1      32.759  21.541  23.538  1.00  0.00    -0.002 A 
ATOM     20  C   UNL A   1      33.163  20.508  25.703  1.00  0.00     0.122 A 
ATOM     21  C   UNL A   1      33.249  22.754  24.057  1.00  0.00     0.127 A 
ATOM     22  C   UNL A   1      33.668  21.709  26.221  1.00  0.00    -0.002 A 
ATOM     23  C   UNL A   1      33.744  22.831  25.374  1.00  0.00     0.001 A 
ATOM     24  O   UNL A   1      33.206  23.851  23.221  1.00  0.00    -0.477 OA
ATOM     25  C   UNL A   1      34.307  24.125  25.895  1.00  0.00    -0.019 C 
ATOM     26  C   UNL A   1      34.516  25.106  24.766  1.00  0.00     0.000 C 
ATOM     27  H   UNL A   1      35.245  23.933  26.373  1.00  0.00     0.032 H 
ATOM     28  H   UNL A   1      33.615  24.546  26.594  1.00  0.00     0.032 H 
ATOM     29  H   UNL A   1      35.364  24.805  24.187  1.00  0.00     0.032 H 
ATOM     30  H   UNL A   1      34.684  26.081  25.174  1.00  0.00     0.032 H 
BRANCH  18  31
ATOM     31  C   UNL A   1      32.227  19.079  23.826  1.00  0.00    -0.036 C 
ATOM     32  H   UNL A   1      32.740  18.271  24.305  1.00  0.00     0.028 H 
ATOM     33  H   UNL A   1      32.398  19.033  22.771  1.00  0.00     0.028 H 
ATOM     34  H   UNL A   1      31.177  19.002  24.022  1.00  0.00     0.028 H 
ENDBRANCH  18  31
BRANCH  19  35
ATOM     35  C   UNL A   1      32.255  21.475  22.116  1.00  0.00    -0.036 C 
ATOM     36  H   UNL A   1      32.833  20.764  21.565  1.00  0.00     0.028 H 
ATOM     37  H   UNL A   1      32.345  22.439  21.659  1.00  0.00     0.028 H 
ATOM     38  H   UNL A   1      31.227  21.175  22.116  1.00  0.00     0.028 H 
ENDBRANCH  19  35
BRANCH  20  39
ATOM     39  O   UNL A   1      33.092  19.448  26.571  1.00  0.00    -0.507 OA
ATOM     40  H   UNL A   1      33.383  19.548  27.455  1.00  0.00     0.293 HD
ENDBRANCH  20  39
BRANCH  22  41
ATOM     41  C   UNL A   1      34.110  21.817  27.660  1.00  0.00    -0.036 C 
ATOM     42  H   UNL A   1      35.021  21.271  27.795  1.00  0.00     0.028 H 
ATOM     43  H   UNL A   1      33.352  21.409  28.297  1.00  0.00     0.028 H 
ATOM     44  H   UNL A   1      34.270  22.844  27.908  1.00  0.00     0.028 H 
ENDBRANCH  22  41
BRANCH  17  45
ATOM     45  C   UNL A   1      31.897  25.384  24.520  1.00  0.00    -0.016 C 
ATOM     46  H   UNL A   1      31.714  24.632  25.258  1.00  0.00     0.028 H 
ATOM     47  H   UNL A   1      31.135  25.339  23.770  1.00  0.00     0.028 H 
ATOM     48  H   UNL A   1      31.885  26.349  24.982  1.00  0.00     0.028 H 
ENDBRANCH  17  45
ENDBRANCH  14  17
ENDBRANCH  10  13
ENDBRANCH   7  10
ENDBRANCH   4   7
ENDBRANCH   1   4
BRANCH   1  49
ATOM     49  C   UNL A   1      31.407  32.243  26.497  1.00  0.00    -0.036 C 
ATOM     50  H   UNL A   1      30.510  32.540  27.000  1.00  0.00     0.028 H 
ATOM     51  H   UNL A   1      31.470  32.628  25.501  1.00  0.00     0.028 H 
BRANCH  49  52
ATOM     52  C   UNL A   1      32.595  32.811  27.262  1.00  0.00     0.018 C 
ATOM     53  H   UNL A   1      33.471  32.725  26.653  1.00  0.00     0.049 H 
ATOM     54  H   UNL A   1      32.702  32.255  28.171  1.00  0.00     0.049 H 
BRANCH  52  55
ATOM     55  N   UNL A   1      32.398  34.209  27.609  1.00  0.00    -0.352 N 
ATOM     56  C   UNL A   1      32.975  34.942  28.612  1.00  0.00     0.251 C 
ATOM     57  H   UNL A   1      31.759  34.699  27.041  1.00  0.00     0.163 HD
ATOM     58  O   UNL A   1      32.540  36.054  28.902  1.00  0.00    -0.269 OA
BRANCH  56  59
ATOM     59  C   UNL A   1      34.118  34.380  29.359  1.00  0.00     0.039 A 
ATOM     60  C   UNL A   1      33.879  33.719  30.564  1.00  0.00    -0.049 A 
ATOM     61  C   UNL A   1      35.421  34.506  28.864  1.00  0.00    -0.049 A 
ATOM     62  C   UNL A   1      34.944  33.136  31.251  1.00  0.00    -0.053 A 
ATOM     63  H   UNL A   1      32.922  33.661  30.945  1.00  0.00     0.063 H 
ATOM     64  C   UNL A   1      36.468  33.857  29.507  1.00  0.00    -0.053 A 
ATOM     65  H   UNL A   1      35.602  35.079  28.025  1.00  0.00     0.063 H 
ATOM     66  C   UNL A   1      36.241  33.176  30.712  1.00  0.00    -0.014 A 
ATOM     67  H   UNL A   1      34.779  32.673  32.158  1.00  0.00     0.063 H 
ATOM     68  H   UNL A   1      37.414  33.876  29.096  1.00  0.00     0.063 H 
BRANCH  66  69
ATOM     69  C   UNL A   1      37.377  32.529  31.411  1.00  0.00     0.031 A 
ATOM     70  C   UNL A   1      38.106  31.387  30.764  1.00  0.00     0.074 A 
ATOM     71  C   UNL A   1      37.725  32.945  32.643  1.00  0.00     0.049 A 
ATOM     72  N   UNL A   1      39.105  30.677  31.224  1.00  0.00    -0.248 NA
ATOM     73  C   UNL A   1      37.635  30.971  29.434  1.00  0.00    -0.034 C 
ATOM     74  C   UNL A   1      37.068  34.020  33.385  1.00  0.00    -0.036 A 
ATOM     75  N   UNL A   1      38.718  32.514  33.487  1.00  0.00    -0.354 N 
ATOM     76  C   UNL A   1      39.377  29.734  30.243  1.00  0.00     0.074 A 
ATOM     77  C   UNL A   1      38.396  29.914  29.195  1.00  0.00    -0.034 C 
ATOM     78  H   UNL A   1      36.902  31.392  28.842  1.00  0.00     0.065 H 
ATOM     79  C   UNL A   1      37.696  34.190  34.559  1.00  0.00    -0.036 A 
ATOM     80  H   UNL A   1      36.251  34.560  33.060  1.00  0.00     0.065 H 
ATOM     81  C   UNL A   1      38.775  33.211  34.668  1.00  0.00     0.049 A 
ATOM     82  H   UNL A   1      39.330  31.775  33.266  1.00  0.00     0.167 HD
ATOM     83  C   UNL A   1      40.376  28.821  30.205  1.00  0.00     0.037 A 
ATOM     84  H   UNL A   1      38.302  29.301  28.371  1.00  0.00     0.065 H 
ATOM     85  H   UNL A   1      37.456  34.898  35.270  1.00  0.00     0.065 H 
ATOM     86  C   UNL A   1      39.605  33.076  35.721  1.00  0.00     0.037 A 
ATOM     87  C   UNL A   1      41.356  28.656  31.246  1.00  0.00     0.049 A 
ATOM     88  C   UNL A   1      40.686  32.031  35.674  1.00  0.00     0.074 A 
ATOM     89  C   UNL A   1      42.436  27.793  31.283  1.00  0.00    -0.036 A 
ATOM     90  N   UNL A   1      41.369  29.366  32.438  1.00  0.00    -0.354 N 
ATOM     91  N   UNL A   1      40.976  31.186  34.715  1.00  0.00    -0.248 NA
ATOM     92  C   UNL A   1      41.555  31.922  36.854  1.00  0.00    -0.034 C 
ATOM     93  C   UNL A   1      43.068  27.938  32.522  1.00  0.00    -0.036 A 
ATOM     94  H   UNL A   1      42.726  27.153  30.526  1.00  0.00     0.065 H 
ATOM     95  C   UNL A   1      42.419  28.936  33.233  1.00  0.00     0.049 A 
ATOM     96  H   UNL A   1      40.728  30.071  32.684  1.00  0.00     0.167 HD
ATOM     97  C   UNL A   1      42.069  30.458  35.164  1.00  0.00     0.074 A 
ATOM     98  C   UNL A   1      42.402  30.974  36.476  1.00  0.00    -0.034 C 
ATOM     99  H   UNL A   1      41.516  32.446  37.742  1.00  0.00     0.065 H 
ATOM    100  H   UNL A   1      43.879  27.393  32.851  1.00  0.00     0.065 H 
ATOM    101  C   UNL A   1      42.735  29.453  34.542  1.00  0.00     0.037 A 
ATOM    102  H   UNL A   1      43.197  30.644  37.046  1.00  0.00     0.065 H 
BRANCH  83 103
ATOM    103  C   UNL A   1      40.458  27.932  28.996  1.00  0.00     0.064 A 
ATOM    104  C   UNL A   1      39.744  26.726  28.920  1.00  0.00     0.173 A 
ATOM    105  C   UNL A   1      41.236  28.303  27.889  1.00  0.00     0.173 A 
ATOM    106  F   UNL A   1      38.995  26.318  29.956  1.00  0.00    -0.203 F 
ATOM    107  C   UNL A   1      39.831  25.910  27.795  1.00  0.00     0.198 A 
ATOM    108  C   UNL A   1      41.292  27.502  26.751  1.00  0.00     0.198 A 
ATOM    109  F   UNL A   1      41.936  29.447  27.906  1.00  0.00    -0.203 F 
ATOM    110  F   UNL A   1      39.184  24.736  27.770  1.00  0.00    -0.200 F 
ATOM    111  C   UNL A   1      40.598  26.302  26.709  1.00  0.00     0.200 A 
ATOM    112  F   UNL A   1      42.021  27.889  25.696  1.00  0.00    -0.200 F 
ATOM    113  F   UNL A   1      40.674  25.520  25.624  1.00  0.00    -0.200 F 
ENDBRANCH  83 103
BRANCH  86 114
ATOM    114  C   UNL A   1      39.463  33.996  36.880  1.00  0.00     0.064 A 
ATOM    115  C   UNL A   1      38.735  33.612  38.013  1.00  0.00     0.173 A 
ATOM    116  C   UNL A   1      40.102  35.244  36.905  1.00  0.00     0.173 A 
ATOM    117  F   UNL A   1      38.091  32.435  38.029  1.00  0.00    -0.203 F 
ATOM    118  C   UNL A   1      38.654  34.439  39.131  1.00  0.00     0.198 A 
ATOM    119  C   UNL A   1      40.043  36.060  38.034  1.00  0.00     0.198 A 
ATOM    120  F   UNL A   1      40.816  35.655  35.847  1.00  0.00    -0.203 F 
ATOM    121  F   UNL A   1      37.937  34.056  40.196  1.00  0.00    -0.200 F 
ATOM    122  C   UNL A   1      39.318  35.657  39.145  1.00  0.00     0.200 A 
ATOM    123  F   UNL A   1      40.701  37.227  38.049  1.00  0.00    -0.200 F 
ATOM    124  F   UNL A   1      39.261  36.441  40.230  1.00  0.00    -0.200 F 
ENDBRANCH  86 114
BRANCH 101 125
ATOM    125  C   UNL A   1      43.898  28.836  35.265  1.00  0.00     0.064 A 
ATOM    126  C   UNL A   1      45.204  29.323  35.104  1.00  0.00     0.173 A 
ATOM    127  C   UNL A   1      43.693  27.804  36.195  1.00  0.00     0.173 A 
ATOM    128  F   UNL A   1      45.455  30.300  34.220  1.00  0.00    -0.203 F 
ATOM    129  C   UNL A   1      46.262  28.791  35.837  1.00  0.00     0.198 A 
ATOM    130  C   UNL A   1      44.747  27.298  36.949  1.00  0.00     0.198 A 
ATOM    131  F   UNL A   1      42.462  27.308  36.393  1.00  0.00    -0.203 F 
ATOM    132  F   UNL A   1      47.506  29.250  35.642  1.00  0.00    -0.200 F 
ATOM    133  C   UNL A   1      46.031  27.789  36.767  1.00  0.00     0.200 A 
ATOM    134  F   UNL A   1      44.518  26.342  37.861  1.00  0.00    -0.200 F 
ATOM    135  F   UNL A   1      47.047  27.295  37.488  1.00  0.00    -0.200 F 
ENDBRANCH 101 125
ENDBRANCH  66  69
ENDBRANCH  56  59
ENDBRANCH  52  55
ENDBRANCH  49  52
ENDBRANCH   1  49
TORSDOF 18
ENDMDL
MODEL 4
REMARK VINA RESULT:     -12.2      5.437     11.026
REMARK SMILES Cc1c(C)c2c(c(C)c1O)CC[C@@](C)(C(=O)NCCCCCCNC(=O)c1ccc(-c3c4nc(c(-c5c(F)c(F)c(F)c(F)c5F)c5ccc([nH]5)c(-c5c(F)c(F)c(F)c(F)c5F)c5nc(c(-c6c(F)c(F)c(F)c(F)c6F)c6ccc3[nH]6)C=C5)C=C4)cc1)O2
REMARK SMILES IDX 21 1 20 4 19 7 18 10 17 13 15 14 16 15 13 17 2 18 3 19 9 20
REMARK SMILES IDX 5 21 7 22 6 23 90 24 11 25 12 26 1 31 4 35 10 39 8 41 14 45
REMARK SMILES IDX 22 49 23 52 24 55 25 56 26 58 27 59 28 60 89 61 29 62 88 64
REMARK SMILES IDX 30 66 31 69 32 70 82 71 33 72 87 73 81 74 83 75 34 76 86 77
REMARK SMILES IDX 80 79 79 81 35 83 67 86 47 87 66 88 48 89 51 90 65 91 84 92
REMARK SMILES IDX 49 93 50 95 64 97 85 98 52 101 36 103 37 104 45 105 38 106
REMARK SMILES IDX 39 107 43 108 46 109 40 110 41 111 44 112 42 113 68 114
REMARK SMILES IDX 69 115 77 116 70 117 71 118 75 119 78 120 72 121 73 122
REMARK SMILES IDX 76 123 74 124 53 125 54 126 62 127 55 128 56 129 60 130
REMARK SMILES IDX 63 131 57 132 58 133 61 134 59 135
REMARK H PARENT 21 2 21 3 20 5 20 6 19 8 19 9 18 11 18 12 17 16 11 27 11 28
REMARK H PARENT 12 29 12 30 1 32 1 33 1 34 4 36 4 37 4 38 10 40 8 42 8 43 8 44
REMARK H PARENT 14 46 14 47 14 48 22 50 22 51 23 53 23 54 24 57 28 63 89 65
REMARK H PARENT 29 67 88 68 87 78 81 80 83 82 86 84 80 85 48 94 51 96 84 99
REMARK H PARENT 49 100 85 102
REMARK Flexibility Score: inf
ROOT
ATOM      1  C   UNL A   1      36.871  20.691  24.639  1.00  0.00    -0.052 C 
ATOM      2  H   UNL A   1      37.236  21.280  23.823  1.00  0.00     0.027 H 
ATOM      3  H   UNL A   1      35.978  20.150  24.406  1.00  0.00     0.027 H 
ENDROOT
BRANCH   1   4
ATOM      4  C   UNL A   1      36.513  21.639  25.788  1.00  0.00    -0.052 C 
ATOM      5  H   UNL A   1      37.002  21.290  26.673  1.00  0.00     0.027 H 
ATOM      6  H   UNL A   1      36.832  22.615  25.487  1.00  0.00     0.027 H 
BRANCH   4   7
ATOM      7  C   UNL A   1      35.015  21.747  26.084  1.00  0.00    -0.036 C 
ATOM      8  H   UNL A   1      34.481  21.663  25.160  1.00  0.00     0.028 H 
ATOM      9  H   UNL A   1      34.773  20.961  26.768  1.00  0.00     0.028 H 
BRANCH   7  10
ATOM     10  C   UNL A   1      34.617  23.061  26.753  1.00  0.00     0.017 C 
ATOM     11  H   UNL A   1      35.203  23.192  27.637  1.00  0.00     0.049 H 
ATOM     12  H   UNL A   1      34.791  23.858  26.060  1.00  0.00     0.049 H 
BRANCH  10  13
ATOM     13  N   UNL A   1      33.210  23.067  27.112  1.00  0.00    -0.353 N 
ATOM     14  C   UNL A   1      32.165  23.831  26.662  1.00  0.00     0.263 C 
ATOM     15  O   UNL A   1      31.068  23.631  27.191  1.00  0.00    -0.270 OA
ATOM     16  H   UNL A   1      32.963  22.407  27.801  1.00  0.00     0.163 HD
BRANCH  14  17
ATOM     17  C   UNL A   1      32.372  24.868  25.523  1.00  0.00     0.184 C 
ATOM     18  C   UNL A   1      30.045  28.268  23.045  1.00  0.00    -0.002 A 
ATOM     19  C   UNL A   1      30.017  27.163  23.931  1.00  0.00    -0.002 A 
ATOM     20  C   UNL A   1      31.289  28.833  22.701  1.00  0.00     0.122 A 
ATOM     21  C   UNL A   1      31.222  26.700  24.491  1.00  0.00     0.127 A 
ATOM     22  C   UNL A   1      32.491  28.388  23.270  1.00  0.00    -0.002 A 
ATOM     23  C   UNL A   1      32.447  27.333  24.203  1.00  0.00     0.001 A 
ATOM     24  O   UNL A   1      31.140  25.598  25.318  1.00  0.00    -0.477 OA
ATOM     25  C   UNL A   1      33.717  26.853  24.849  1.00  0.00    -0.019 C 
ATOM     26  C   UNL A   1      33.411  25.897  25.978  1.00  0.00     0.000 C 
ATOM     27  H   UNL A   1      34.255  27.694  25.237  1.00  0.00     0.032 H 
ATOM     28  H   UNL A   1      34.306  26.344  24.116  1.00  0.00     0.032 H 
ATOM     29  H   UNL A   1      33.025  26.446  26.812  1.00  0.00     0.032 H 
ATOM     30  H   UNL A   1      34.308  25.390  26.262  1.00  0.00     0.032 H 
BRANCH  18  31
ATOM     31  C   UNL A   1      28.766  28.784  22.435  1.00  0.00    -0.036 C 
ATOM     32  H   UNL A   1      28.675  28.418  21.434  1.00  0.00     0.028 H 
ATOM     33  H   UNL A   1      28.782  29.852  22.424  1.00  0.00     0.028 H 
ATOM     34  H   UNL A   1      27.932  28.444  23.016  1.00  0.00     0.028 H 
ENDBRANCH  18  31
BRANCH  19  35
ATOM     35  C   UNL A   1      28.712  26.484  24.272  1.00  0.00    -0.036 C 
ATOM     36  H   UNL A   1      28.154  26.313  23.376  1.00  0.00     0.028 H 
ATOM     37  H   UNL A   1      28.147  27.108  24.932  1.00  0.00     0.028 H 
ATOM     38  H   UNL A   1      28.912  25.547  24.751  1.00  0.00     0.028 H 
ENDBRANCH  19  35
BRANCH  20  39
ATOM     39  O   UNL A   1      31.385  29.850  21.786  1.00  0.00    -0.507 OA
ATOM     40  H   UNL A   1      30.819  29.862  21.040  1.00  0.00     0.293 HD
ENDBRANCH  20  39
BRANCH  22  41
ATOM     41  C   UNL A   1      33.814  29.005  22.889  1.00  0.00    -0.036 C 
ATOM     42  H   UNL A   1      33.726  30.071  22.897  1.00  0.00     0.028 H 
ATOM     43  H   UNL A   1      34.090  28.677  21.908  1.00  0.00     0.028 H 
ATOM     44  H   UNL A   1      34.563  28.703  23.589  1.00  0.00     0.028 H 
ENDBRANCH  22  41
BRANCH  17  45
ATOM     45  C   UNL A   1      32.635  24.074  24.225  1.00  0.00    -0.016 C 
ATOM     46  H   UNL A   1      32.858  24.754  23.430  1.00  0.00     0.028 H 
ATOM     47  H   UNL A   1      31.765  23.504  23.973  1.00  0.00     0.028 H 
ATOM     48  H   UNL A   1      33.463  23.413  24.372  1.00  0.00     0.028 H 
ENDBRANCH  17  45
ENDBRANCH  14  17
ENDBRANCH  10  13
ENDBRANCH   7  10
ENDBRANCH   4   7
ENDBRANCH   1   4
BRANCH   1  49
ATOM     49  C   UNL A   1      37.932  19.641  24.978  1.00  0.00    -0.036 C 
ATOM     50  H   UNL A   1      38.279  19.207  24.064  1.00  0.00     0.028 H 
ATOM     51  H   UNL A   1      37.463  18.928  25.623  1.00  0.00     0.028 H 
BRANCH  49  52
ATOM     52  C   UNL A   1      39.135  20.190  25.734  1.00  0.00     0.018 C 
ATOM     53  H   UNL A   1      38.812  20.538  26.693  1.00  0.00     0.049 H 
ATOM     54  H   UNL A   1      39.555  20.988  25.157  1.00  0.00     0.049 H 
BRANCH  52  55
ATOM     55  N   UNL A   1      40.164  19.180  25.922  1.00  0.00    -0.352 N 
ATOM     56  C   UNL A   1      41.510  19.340  26.117  1.00  0.00     0.251 C 
ATOM     57  H   UNL A   1      39.847  18.247  25.908  1.00  0.00     0.163 HD
ATOM     58  O   UNL A   1      42.271  18.379  26.045  1.00  0.00    -0.269 OA
BRANCH  56  59
ATOM     59  C   UNL A   1      42.049  20.686  26.399  1.00  0.00     0.039 A 
ATOM     60  C   UNL A   1      42.287  21.556  25.334  1.00  0.00    -0.049 A 
ATOM     61  C   UNL A   1      42.315  21.084  27.713  1.00  0.00    -0.049 A 
ATOM     62  C   UNL A   1      42.744  22.848  25.591  1.00  0.00    -0.053 A 
ATOM     63  H   UNL A   1      42.126  21.246  24.363  1.00  0.00     0.063 H 
ATOM     64  C   UNL A   1      42.693  22.396  27.973  1.00  0.00    -0.053 A 
ATOM     65  H   UNL A   1      42.230  20.406  28.486  1.00  0.00     0.063 H 
ATOM     66  C   UNL A   1      42.922  23.286  26.914  1.00  0.00    -0.014 A 
ATOM     67  H   UNL A   1      42.952  23.486  24.807  1.00  0.00     0.063 H 
ATOM     68  H   UNL A   1      42.804  22.715  28.948  1.00  0.00     0.063 H 
BRANCH  66  69
ATOM     69  C   UNL A   1      43.371  24.669  27.206  1.00  0.00     0.031 A 
ATOM     70  C   UNL A   1      42.406  25.669  27.775  1.00  0.00     0.074 A 
ATOM     71  C   UNL A   1      44.636  25.033  26.921  1.00  0.00     0.049 A 
ATOM     72  N   UNL A   1      42.600  26.928  28.073  1.00  0.00    -0.248 NA
ATOM     73  C   UNL A   1      41.034  25.198  28.018  1.00  0.00    -0.034 C 
ATOM     74  C   UNL A   1      45.650  24.158  26.334  1.00  0.00    -0.036 A 
ATOM     75  N   UNL A   1      45.282  26.231  27.088  1.00  0.00    -0.354 N 
ATOM     76  C   UNL A   1      41.378  27.396  28.535  1.00  0.00     0.074 A 
ATOM     77  C   UNL A   1      40.432  26.309  28.413  1.00  0.00    -0.034 C 
ATOM     78  H   UNL A   1      40.642  24.249  27.909  1.00  0.00     0.065 H 
ATOM     79  C   UNL A   1      46.802  24.838  26.223  1.00  0.00    -0.036 A 
ATOM     80  H   UNL A   1      45.504  23.178  26.049  1.00  0.00     0.065 H 
ATOM     81  C   UNL A   1      46.596  26.205  26.694  1.00  0.00     0.049 A 
ATOM     82  H   UNL A   1      44.844  27.033  27.456  1.00  0.00     0.167 HD
ATOM     83  C   UNL A   1      41.081  28.615  29.047  1.00  0.00     0.037 A 
ATOM     84  H   UNL A   1      39.422  26.390  28.607  1.00  0.00     0.065 H 
ATOM     85  H   UNL A   1      47.691  24.456  25.862  1.00  0.00     0.065 H 
ATOM     86  C   UNL A   1      47.531  27.175  26.711  1.00  0.00     0.037 A 
ATOM     87  C   UNL A   1      42.032  29.687  29.177  1.00  0.00     0.049 A 
ATOM     88  C   UNL A   1      47.170  28.533  27.250  1.00  0.00     0.074 A 
ATOM     89  C   UNL A   1      41.844  30.943  29.725  1.00  0.00    -0.036 A 
ATOM     90  N   UNL A   1      43.350  29.631  28.747  1.00  0.00    -0.354 N 
ATOM     91  N   UNL A   1      46.029  28.948  27.744  1.00  0.00    -0.248 NA
ATOM     92  C   UNL A   1      48.226  29.555  27.235  1.00  0.00    -0.034 C 
ATOM     93  C   UNL A   1      43.029  31.667  29.572  1.00  0.00    -0.036 A 
ATOM     94  H   UNL A   1      40.977  31.285  30.170  1.00  0.00     0.065 H 
ATOM     95  C   UNL A   1      43.977  30.843  28.985  1.00  0.00     0.049 A 
ATOM     96  H   UNL A   1      43.777  28.846  28.332  1.00  0.00     0.167 HD
ATOM     97  C   UNL A   1      46.232  30.270  28.116  1.00  0.00     0.074 A 
ATOM     98  C   UNL A   1      47.612  30.582  27.806  1.00  0.00    -0.034 C 
ATOM     99  H   UNL A   1      49.191  29.490  26.875  1.00  0.00     0.065 H 
ATOM    100  H   UNL A   1      43.174  32.650  29.849  1.00  0.00     0.065 H 
ATOM    101  C   UNL A   1      45.351  31.144  28.665  1.00  0.00     0.037 A 
ATOM    102  H   UNL A   1      48.060  31.491  28.004  1.00  0.00     0.065 H 
BRANCH  83 103
ATOM    103  C   UNL A   1      39.669  28.849  29.505  1.00  0.00     0.064 A 
ATOM    104  C   UNL A   1      39.267  28.568  30.820  1.00  0.00     0.173 A 
ATOM    105  C   UNL A   1      38.715  29.388  28.630  1.00  0.00     0.173 A 
ATOM    106  F   UNL A   1      40.136  28.039  31.695  1.00  0.00    -0.203 F 
ATOM    107  C   UNL A   1      37.954  28.787  31.231  1.00  0.00     0.198 A 
ATOM    108  C   UNL A   1      37.413  29.638  29.054  1.00  0.00     0.198 A 
ATOM    109  F   UNL A   1      39.046  29.679  27.363  1.00  0.00    -0.203 F 
ATOM    110  F   UNL A   1      37.581  28.457  32.476  1.00  0.00    -0.200 F 
ATOM    111  C   UNL A   1      37.031  29.329  30.351  1.00  0.00     0.200 A 
ATOM    112  F   UNL A   1      36.525  30.178  28.208  1.00  0.00    -0.200 F 
ATOM    113  F   UNL A   1      35.771  29.547  30.751  1.00  0.00    -0.200 F 
ENDBRANCH  83 103
BRANCH  86 114
ATOM    114  C   UNL A   1      48.908  26.866  26.244  1.00  0.00     0.064 A 
ATOM    115  C   UNL A   1      49.852  26.311  27.117  1.00  0.00     0.173 A 
ATOM    116  C   UNL A   1      49.287  27.058  24.907  1.00  0.00     0.173 A 
ATOM    117  F   UNL A   1      49.542  26.125  28.409  1.00  0.00    -0.203 F 
ATOM    118  C   UNL A   1      51.123  25.954  26.670  1.00  0.00     0.198 A 
ATOM    119  C   UNL A   1      50.549  26.676  24.456  1.00  0.00     0.198 A 
ATOM    120  F   UNL A   1      48.417  27.580  24.031  1.00  0.00    -0.203 F 
ATOM    121  F   UNL A   1      52.013  25.441  27.530  1.00  0.00    -0.200 F 
ATOM    122  C   UNL A   1      51.466  26.126  25.338  1.00  0.00     0.200 A 
ATOM    123  F   UNL A   1      50.868  26.828  23.163  1.00  0.00    -0.200 F 
ATOM    124  F   UNL A   1      52.679  25.760  24.903  1.00  0.00    -0.200 F 
ENDBRANCH  86 114
BRANCH 101 125
ATOM    125  C   UNL A   1      45.844  32.528  28.973  1.00  0.00     0.064 A 
ATOM    126  C   UNL A   1      46.485  32.825  30.185  1.00  0.00     0.173 A 
ATOM    127  C   UNL A   1      45.752  33.548  28.012  1.00  0.00     0.173 A 
ATOM    128  F   UNL A   1      46.588  31.890  31.141  1.00  0.00    -0.203 F 
ATOM    129  C   UNL A   1      47.004  34.096  30.427  1.00  0.00     0.198 A 
ATOM    130  C   UNL A   1      46.301  34.805  28.245  1.00  0.00     0.198 A 
ATOM    131  F   UNL A   1      45.156  33.313  26.832  1.00  0.00    -0.203 F 
ATOM    132  F   UNL A   1      47.583  34.366  31.606  1.00  0.00    -0.200 F 
ATOM    133  C   UNL A   1      46.923  35.079  29.454  1.00  0.00     0.200 A 
ATOM    134  F   UNL A   1      46.239  35.749  27.295  1.00  0.00    -0.200 F 
ATOM    135  F   UNL A   1      47.444  36.293  29.680  1.00  0.00    -0.200 F 
ENDBRANCH 101 125
ENDBRANCH  66  69
ENDBRANCH  56  59
ENDBRANCH  52  55
ENDBRANCH  49  52
ENDBRANCH   1  49
TORSDOF 18
ENDMDL
MODEL 5
REMARK VINA RESULT:     -12.2      5.421     11.020
REMARK SMILES Cc1c(C)c2c(c(C)c1O)CC[C@@](C)(C(=O)NCCCCCCNC(=O)c1ccc(-c3c4nc(c(-c5c(F)c(F)c(F)c(F)c5F)c5ccc([nH]5)c(-c5c(F)c(F)c(F)c(F)c5F)c5nc(c(-c6c(F)c(F)c(F)c(F)c6F)c6ccc3[nH]6)C=C5)C=C4)cc1)O2
REMARK SMILES IDX 21 1 20 4 19 7 18 10 17 13 15 14 16 15 13 17 2 18 3 19 9 20
REMARK SMILES IDX 5 21 7 22 6 23 90 24 11 25 12 26 1 31 4 35 10 39 8 41 14 45
REMARK SMILES IDX 22 49 23 52 24 55 25 56 26 58 27 59 28 60 89 61 29 62 88 64
REMARK SMILES IDX 30 66 31 69 32 70 82 71 33 72 87 73 81 74 83 75 34 76 86 77
REMARK SMILES IDX 80 79 79 81 35 83 67 86 47 87 66 88 48 89 51 90 65 91 84 92
REMARK SMILES IDX 49 93 50 95 64 97 85 98 52 101 36 103 37 104 45 105 38 106
REMARK SMILES IDX 39 107 43 108 46 109 40 110 41 111 44 112 42 113 68 114
REMARK SMILES IDX 69 115 77 116 70 117 71 118 75 119 78 120 72 121 73 122
REMARK SMILES IDX 76 123 74 124 53 125 54 126 62 127 55 128 56 129 60 130
REMARK SMILES IDX 63 131 57 132 58 133 61 134 59 135
REMARK H PARENT 21 2 21 3 20 5 20 6 19 8 19 9 18 11 18 12 17 16 11 27 11 28
REMARK H PARENT 12 29 12 30 1 32 1 33 1 34 4 36 4 37 4 38 10 40 8 42 8 43 8 44
REMARK H PARENT 14 46 14 47 14 48 22 50 22 51 23 53 23 54 24 57 28 63 89 65
REMARK H PARENT 29 67 88 68 87 78 81 80 83 82 86 84 80 85 48 94 51 96 84 99
REMARK H PARENT 49 100 85 102
REMARK Flexibility Score: inf
ROOT
ATOM      1  C   UNL A   1      36.638  20.042  25.020  1.00  0.00    -0.052 C 
ATOM      2  H   UNL A   1      36.060  19.794  24.154  1.00  0.00     0.027 H 
ATOM      3  H   UNL A   1      36.455  19.395  25.852  1.00  0.00     0.027 H 
ENDROOT
BRANCH   1   4
ATOM      4  C   UNL A   1      36.236  21.450  25.472  1.00  0.00    -0.052 C 
ATOM      5  H   UNL A   1      36.923  21.765  26.229  1.00  0.00     0.027 H 
ATOM      6  H   UNL A   1      36.258  22.067  24.598  1.00  0.00     0.027 H 
BRANCH   4   7
ATOM      7  C   UNL A   1      34.819  21.557  26.041  1.00  0.00    -0.036 C 
ATOM      8  H   UNL A   1      34.122  21.385  25.248  1.00  0.00     0.028 H 
ATOM      9  H   UNL A   1      34.738  20.828  26.820  1.00  0.00     0.028 H 
BRANCH   7  10
ATOM     10  C   UNL A   1      34.513  22.916  26.666  1.00  0.00     0.017 C 
ATOM     11  H   UNL A   1      35.144  23.058  27.517  1.00  0.00     0.049 H 
ATOM     12  H   UNL A   1      34.691  23.673  25.931  1.00  0.00     0.049 H 
BRANCH  10  13
ATOM     13  N   UNL A   1      33.125  23.005  27.086  1.00  0.00    -0.353 N 
ATOM     14  C   UNL A   1      32.111  23.836  26.687  1.00  0.00     0.263 C 
ATOM     15  O   UNL A   1      31.028  23.698  27.262  1.00  0.00    -0.270 OA
ATOM     16  H   UNL A   1      32.868  22.355  27.780  1.00  0.00     0.163 HD
BRANCH  14  17
ATOM     17  C   UNL A   1      32.333  24.869  25.547  1.00  0.00     0.184 C 
ATOM     18  C   UNL A   1      30.048  28.283  23.050  1.00  0.00    -0.002 A 
ATOM     19  C   UNL A   1      30.006  27.180  23.938  1.00  0.00    -0.002 A 
ATOM     20  C   UNL A   1      31.298  28.838  22.712  1.00  0.00     0.122 A 
ATOM     21  C   UNL A   1      31.204  26.709  24.506  1.00  0.00     0.127 A 
ATOM     22  C   UNL A   1      32.493  28.383  23.288  1.00  0.00    -0.002 A 
ATOM     23  C   UNL A   1      32.436  27.331  24.222  1.00  0.00     0.001 A 
ATOM     24  O   UNL A   1      31.108  25.609  25.334  1.00  0.00    -0.477 OA
ATOM     25  C   UNL A   1      33.698  26.841  24.877  1.00  0.00    -0.019 C 
ATOM     26  C   UNL A   1      33.378  25.890  26.005  1.00  0.00     0.000 C 
ATOM     27  H   UNL A   1      34.241  27.679  25.265  1.00  0.00     0.032 H 
ATOM     28  H   UNL A   1      34.287  26.325  24.147  1.00  0.00     0.032 H 
ATOM     29  H   UNL A   1      32.992  26.444  26.836  1.00  0.00     0.032 H 
ATOM     30  H   UNL A   1      34.269  25.376  26.295  1.00  0.00     0.032 H 
BRANCH  18  31
ATOM     31  C   UNL A   1      28.776  28.809  22.433  1.00  0.00    -0.036 C 
ATOM     32  H   UNL A   1      28.966  29.105  21.423  1.00  0.00     0.028 H 
ATOM     33  H   UNL A   1      28.430  29.652  22.993  1.00  0.00     0.028 H 
ATOM     34  H   UNL A   1      28.030  28.041  22.446  1.00  0.00     0.028 H 
ENDBRANCH  18  31
BRANCH  19  35
ATOM     35  C   UNL A   1      28.693  26.513  24.274  1.00  0.00    -0.036 C 
ATOM     36  H   UNL A   1      28.603  25.604  23.719  1.00  0.00     0.028 H 
ATOM     37  H   UNL A   1      27.885  27.167  24.021  1.00  0.00     0.028 H 
ATOM     38  H   UNL A   1      28.662  26.296  25.322  1.00  0.00     0.028 H 
ENDBRANCH  19  35
BRANCH  20  39
ATOM     39  O   UNL A   1      31.407  29.852  21.795  1.00  0.00    -0.507 OA
ATOM     40  H   UNL A   1      30.640  30.305  21.506  1.00  0.00     0.293 HD
ENDBRANCH  20  39
BRANCH  22  41
ATOM     41  C   UNL A   1      33.823  28.988  22.912  1.00  0.00    -0.036 C 
ATOM     42  H   UNL A   1      34.084  29.746  23.622  1.00  0.00     0.028 H 
ATOM     43  H   UNL A   1      33.754  29.422  21.936  1.00  0.00     0.028 H 
ATOM     44  H   UNL A   1      34.574  28.227  22.912  1.00  0.00     0.028 H 
ENDBRANCH  22  41
BRANCH  17  45
ATOM     45  C   UNL A   1      32.595  24.070  24.252  1.00  0.00    -0.016 C 
ATOM     46  H   UNL A   1      33.017  24.718  23.513  1.00  0.00     0.028 H 
ATOM     47  H   UNL A   1      31.673  23.667  23.888  1.00  0.00     0.028 H 
ATOM     48  H   UNL A   1      33.276  23.271  24.457  1.00  0.00     0.028 H 
ENDBRANCH  17  45
ENDBRANCH  14  17
ENDBRANCH  10  13
ENDBRANCH   7  10
ENDBRANCH   4   7
ENDBRANCH   1   4
BRANCH   1  49
ATOM     49  C   UNL A   1      38.118  19.878  24.666  1.00  0.00    -0.036 C 
ATOM     50  H   UNL A   1      38.339  20.523  23.841  1.00  0.00     0.028 H 
ATOM     51  H   UNL A   1      38.266  18.844  24.434  1.00  0.00     0.028 H 
BRANCH  49  52
ATOM     52  C   UNL A   1      39.073  20.212  25.804  1.00  0.00     0.018 C 
ATOM     53  H   UNL A   1      38.516  20.281  26.715  1.00  0.00     0.049 H 
ATOM     54  H   UNL A   1      39.552  21.142  25.574  1.00  0.00     0.049 H 
BRANCH  52  55
ATOM     55  N   UNL A   1      40.105  19.200  25.960  1.00  0.00    -0.352 N 
ATOM     56  C   UNL A   1      41.456  19.358  26.127  1.00  0.00     0.251 C 
ATOM     57  H   UNL A   1      39.787  18.267  25.945  1.00  0.00     0.163 HD
ATOM     58  O   UNL A   1      42.214  18.396  26.030  1.00  0.00    -0.269 OA
BRANCH  56  59
ATOM     59  C   UNL A   1      42.001  20.700  26.409  1.00  0.00     0.039 A 
ATOM     60  C   UNL A   1      42.233  21.573  25.345  1.00  0.00    -0.049 A 
ATOM     61  C   UNL A   1      42.279  21.093  27.722  1.00  0.00    -0.049 A 
ATOM     62  C   UNL A   1      42.698  22.863  25.603  1.00  0.00    -0.053 A 
ATOM     63  H   UNL A   1      42.063  21.267  24.374  1.00  0.00     0.063 H 
ATOM     64  C   UNL A   1      42.664  22.402  27.984  1.00  0.00    -0.053 A 
ATOM     65  H   UNL A   1      42.199  20.412  28.494  1.00  0.00     0.063 H 
ATOM     66  C   UNL A   1      42.888  23.295  26.926  1.00  0.00    -0.014 A 
ATOM     67  H   UNL A   1      42.900  23.502  24.819  1.00  0.00     0.063 H 
ATOM     68  H   UNL A   1      42.785  22.718  28.958  1.00  0.00     0.063 H 
BRANCH  66  69
ATOM     69  C   UNL A   1      43.344  24.676  27.219  1.00  0.00     0.031 A 
ATOM     70  C   UNL A   1      42.384  25.682  27.784  1.00  0.00     0.074 A 
ATOM     71  C   UNL A   1      44.612  25.031  26.938  1.00  0.00     0.049 A 
ATOM     72  N   UNL A   1      42.584  26.940  28.082  1.00  0.00    -0.248 NA
ATOM     73  C   UNL A   1      41.008  25.220  28.023  1.00  0.00    -0.034 C 
ATOM     74  C   UNL A   1      45.623  24.151  26.355  1.00  0.00    -0.036 A 
ATOM     75  N   UNL A   1      45.265  26.226  27.107  1.00  0.00    -0.354 N 
ATOM     76  C   UNL A   1      41.363  27.416  28.540  1.00  0.00     0.074 A 
ATOM     77  C   UNL A   1      40.411  26.334  28.414  1.00  0.00    -0.034 C 
ATOM     78  H   UNL A   1      40.610  24.273  27.912  1.00  0.00     0.065 H 
ATOM     79  C   UNL A   1      46.780  24.824  26.247  1.00  0.00    -0.036 A 
ATOM     80  H   UNL A   1      45.472  23.171  26.070  1.00  0.00     0.065 H 
ATOM     81  C   UNL A   1      46.581  26.192  26.717  1.00  0.00     0.049 A 
ATOM     82  H   UNL A   1      44.831  27.031  27.473  1.00  0.00     0.167 HD
ATOM     83  C   UNL A   1      41.072  28.636  29.050  1.00  0.00     0.037 A 
ATOM     84  H   UNL A   1      39.400  26.421  28.605  1.00  0.00     0.065 H 
ATOM     85  H   UNL A   1      47.667  24.436  25.890  1.00  0.00     0.065 H 
ATOM     86  C   UNL A   1      47.521  27.156  26.737  1.00  0.00     0.037 A 
ATOM     87  C   UNL A   1      42.029  29.702  29.183  1.00  0.00     0.049 A 
ATOM     88  C   UNL A   1      47.167  28.516  27.274  1.00  0.00     0.074 A 
ATOM     89  C   UNL A   1      41.846  30.960  29.730  1.00  0.00    -0.036 A 
ATOM     90  N   UNL A   1      43.348  29.638  28.757  1.00  0.00    -0.354 N 
ATOM     91  N   UNL A   1      46.027  28.939  27.764  1.00  0.00    -0.248 NA
ATOM     92  C   UNL A   1      48.229  29.532  27.262  1.00  0.00    -0.034 C 
ATOM     93  C   UNL A   1      43.037  31.677  29.581  1.00  0.00    -0.036 A 
ATOM     94  H   UNL A   1      40.980  31.308  30.172  1.00  0.00     0.065 H 
ATOM     95  C   UNL A   1      43.982  30.847  28.997  1.00  0.00     0.049 A 
ATOM     96  H   UNL A   1      43.771  28.851  28.345  1.00  0.00     0.167 HD
ATOM     97  C   UNL A   1      46.236  30.259  28.137  1.00  0.00     0.074 A 
ATOM     98  C   UNL A   1      47.619  30.563  27.831  1.00  0.00    -0.034 C 
ATOM     99  H   UNL A   1      49.194  29.461  26.906  1.00  0.00     0.065 H 
ATOM    100  H   UNL A   1      43.186  32.659  29.858  1.00  0.00     0.065 H 
ATOM    101  C   UNL A   1      45.359  31.139  28.682  1.00  0.00     0.037 A 
ATOM    102  H   UNL A   1      48.072  31.469  28.030  1.00  0.00     0.065 H 
BRANCH  83 103
ATOM    103  C   UNL A   1      39.660  28.879  29.503  1.00  0.00     0.064 A 
ATOM    104  C   UNL A   1      38.686  29.390  28.632  1.00  0.00     0.173 A 
ATOM    105  C   UNL A   1      39.268  28.569  30.814  1.00  0.00     0.173 A 
ATOM    106  F   UNL A   1      39.010  29.714  27.371  1.00  0.00    -0.203 F 
ATOM    107  C   UNL A   1      37.381  29.613  29.065  1.00  0.00     0.198 A 
ATOM    108  C   UNL A   1      37.954  28.761  31.234  1.00  0.00     0.198 A 
ATOM    109  F   UNL A   1      40.157  28.074  31.688  1.00  0.00    -0.203 F 
ATOM    110  F   UNL A   1      36.483  30.155  28.230  1.00  0.00    -0.200 F 
ATOM    111  C   UNL A   1      37.015  29.291  30.362  1.00  0.00     0.200 A 
ATOM    112  F   UNL A   1      37.597  28.434  32.483  1.00  0.00    -0.200 F 
ATOM    113  F   UNL A   1      35.757  29.498  30.775  1.00  0.00    -0.200 F 
ENDBRANCH  83 103
BRANCH  86 114
ATOM    114  C   UNL A   1      48.897  26.839  26.275  1.00  0.00     0.064 A 
ATOM    115  C   UNL A   1      49.822  26.238  27.139  1.00  0.00     0.173 A 
ATOM    116  C   UNL A   1      49.295  27.069  24.950  1.00  0.00     0.173 A 
ATOM    117  F   UNL A   1      49.494  26.014  28.421  1.00  0.00    -0.203 F 
ATOM    118  C   UNL A   1      51.092  25.874  26.695  1.00  0.00     0.198 A 
ATOM    119  C   UNL A   1      50.555  26.680  24.499  1.00  0.00     0.198 A 
ATOM    120  F   UNL A   1      48.445  27.635  24.082  1.00  0.00    -0.203 F 
ATOM    121  F   UNL A   1      51.963  25.316  27.546  1.00  0.00    -0.200 F 
ATOM    122  C   UNL A   1      51.453  26.084  25.373  1.00  0.00     0.200 A 
ATOM    123  F   UNL A   1      50.893  26.869  23.216  1.00  0.00    -0.200 F 
ATOM    124  F   UNL A   1      52.665  25.712  24.939  1.00  0.00    -0.200 F 
ENDBRANCH  86 114
BRANCH 101 125
ATOM    125  C   UNL A   1      45.859  32.521  28.991  1.00  0.00     0.064 A 
ATOM    126  C   UNL A   1      45.724  33.572  28.073  1.00  0.00     0.173 A 
ATOM    127  C   UNL A   1      46.400  32.816  30.254  1.00  0.00     0.173 A 
ATOM    128  F   UNL A   1      45.225  33.340  26.850  1.00  0.00    -0.203 F 
ATOM    129  C   UNL A   1      46.124  34.865  28.402  1.00  0.00     0.198 A 
ATOM    130  C   UNL A   1      46.767  34.115  30.589  1.00  0.00     0.198 A 
ATOM    131  F   UNL A   1      46.542  31.848  31.172  1.00  0.00    -0.203 F 
ATOM    132  F   UNL A   1      46.016  35.848  27.497  1.00  0.00    -0.200 F 
ATOM    133  C   UNL A   1      46.632  35.138  29.663  1.00  0.00     0.200 A 
ATOM    134  F   UNL A   1      47.240  34.381  31.816  1.00  0.00    -0.200 F 
ATOM    135  F   UNL A   1      46.994  36.388  29.985  1.00  0.00    -0.200 F 
ENDBRANCH 101 125
ENDBRANCH  66  69
ENDBRANCH  56  59
ENDBRANCH  52  55
ENDBRANCH  49  52
ENDBRANCH   1  49
TORSDOF 18
ENDMDL
MODEL 6
REMARK VINA RESULT:     -12.2      0.286      7.277
REMARK SMILES Cc1c(C)c2c(c(C)c1O)CC[C@@](C)(C(=O)NCCCCCCNC(=O)c1ccc(-c3c4nc(c(-c5c(F)c(F)c(F)c(F)c5F)c5ccc([nH]5)c(-c5c(F)c(F)c(F)c(F)c5F)c5nc(c(-c6c(F)c(F)c(F)c(F)c6F)c6ccc3[nH]6)C=C5)C=C4)cc1)O2
REMARK SMILES IDX 21 1 20 4 19 7 18 10 17 13 15 14 16 15 13 17 2 18 3 19 9 20
REMARK SMILES IDX 5 21 7 22 6 23 90 24 11 25 12 26 1 31 4 35 10 39 8 41 14 45
REMARK SMILES IDX 22 49 23 52 24 55 25 56 26 58 27 59 28 60 89 61 29 62 88 64
REMARK SMILES IDX 30 66 31 69 32 70 82 71 33 72 87 73 81 74 83 75 34 76 86 77
REMARK SMILES IDX 80 79 79 81 35 83 67 86 47 87 66 88 48 89 51 90 65 91 84 92
REMARK SMILES IDX 49 93 50 95 64 97 85 98 52 101 36 103 37 104 45 105 38 106
REMARK SMILES IDX 39 107 43 108 46 109 40 110 41 111 44 112 42 113 68 114
REMARK SMILES IDX 69 115 77 116 70 117 71 118 75 119 78 120 72 121 73 122
REMARK SMILES IDX 76 123 74 124 53 125 54 126 62 127 55 128 56 129 60 130
REMARK SMILES IDX 63 131 57 132 58 133 61 134 59 135
REMARK H PARENT 21 2 21 3 20 5 20 6 19 8 19 9 18 11 18 12 17 16 11 27 11 28
REMARK H PARENT 12 29 12 30 1 32 1 33 1 34 4 36 4 37 4 38 10 40 8 42 8 43 8 44
REMARK H PARENT 14 46 14 47 14 48 22 50 22 51 23 53 23 54 24 57 28 63 89 65
REMARK H PARENT 29 67 88 68 87 78 81 80 83 82 86 84 80 85 48 94 51 96 84 99
REMARK H PARENT 49 100 85 102
REMARK Flexibility Score: inf
ROOT
ATOM      1  C   UNL A   1      31.372  30.748  26.360  1.00  0.00    -0.052 C 
ATOM      2  H   UNL A   1      31.181  30.312  27.319  1.00  0.00     0.027 H 
ATOM      3  H   UNL A   1      30.617  30.525  25.635  1.00  0.00     0.027 H 
ENDROOT
BRANCH   1   4
ATOM      4  C   UNL A   1      32.677  30.153  25.819  1.00  0.00    -0.052 C 
ATOM      5  H   UNL A   1      33.307  30.960  25.509  1.00  0.00     0.027 H 
ATOM      6  H   UNL A   1      33.097  29.572  26.614  1.00  0.00     0.027 H 
BRANCH   4   7
ATOM      7  C   UNL A   1      32.503  29.202  24.633  1.00  0.00    -0.036 C 
ATOM      8  H   UNL A   1      31.584  28.668  24.760  1.00  0.00     0.028 H 
ATOM      9  H   UNL A   1      32.505  29.803  23.747  1.00  0.00     0.028 H 
BRANCH   7  10
ATOM     10  C   UNL A   1      33.636  28.189  24.491  1.00  0.00     0.017 C 
ATOM     11  H   UNL A   1      34.570  28.692  24.620  1.00  0.00     0.049 H 
ATOM     12  H   UNL A   1      33.505  27.431  25.235  1.00  0.00     0.049 H 
BRANCH  10  13
ATOM     13  N   UNL A   1      33.616  27.554  23.185  1.00  0.00    -0.353 N 
ATOM     14  C   UNL A   1      33.513  26.236  22.822  1.00  0.00     0.263 C 
ATOM     15  O   UNL A   1      33.564  25.993  21.613  1.00  0.00    -0.270 OA
ATOM     16  H   UNL A   1      33.693  28.179  22.427  1.00  0.00     0.163 HD
BRANCH  14  17
ATOM     17  C   UNL A   1      33.311  25.130  23.894  1.00  0.00     0.184 C 
ATOM     18  C   UNL A   1      32.744  20.378  24.355  1.00  0.00    -0.002 A 
ATOM     19  C   UNL A   1      32.765  21.536  23.538  1.00  0.00    -0.002 A 
ATOM     20  C   UNL A   1      33.169  20.482  25.694  1.00  0.00     0.122 A 
ATOM     21  C   UNL A   1      33.266  22.740  24.065  1.00  0.00     0.127 A 
ATOM     22  C   UNL A   1      33.686  21.676  26.219  1.00  0.00    -0.002 A 
ATOM     23  C   UNL A   1      33.767  22.804  25.380  1.00  0.00     0.001 A 
ATOM     24  O   UNL A   1      33.228  23.844  23.237  1.00  0.00    -0.477 OA
ATOM     25  C   UNL A   1      34.342  24.089  25.908  1.00  0.00    -0.019 C 
ATOM     26  C   UNL A   1      34.555  25.077  24.786  1.00  0.00     0.000 C 
ATOM     27  H   UNL A   1      35.281  23.886  26.381  1.00  0.00     0.032 H 
ATOM     28  H   UNL A   1      33.656  24.510  26.613  1.00  0.00     0.032 H 
ATOM     29  H   UNL A   1      35.398  24.774  24.201  1.00  0.00     0.032 H 
ATOM     30  H   UNL A   1      34.731  26.047  25.200  1.00  0.00     0.032 H 
BRANCH  18  31
ATOM     31  C   UNL A   1      32.215  19.075  23.810  1.00  0.00    -0.036 C 
ATOM     32  H   UNL A   1      31.900  19.214  22.797  1.00  0.00     0.028 H 
ATOM     33  H   UNL A   1      31.384  18.753  24.401  1.00  0.00     0.028 H 
ATOM     34  H   UNL A   1      32.987  18.334  23.845  1.00  0.00     0.028 H 
ENDBRANCH  18  31
BRANCH  19  35
ATOM     35  C   UNL A   1      32.254  21.484  22.118  1.00  0.00    -0.036 C 
ATOM     36  H   UNL A   1      31.401  22.121  22.022  1.00  0.00     0.028 H 
ATOM     37  H   UNL A   1      31.978  20.478  21.874  1.00  0.00     0.028 H 
ATOM     38  H   UNL A   1      33.023  21.814  21.450  1.00  0.00     0.028 H 
ENDBRANCH  19  35
BRANCH  20  39
ATOM     39  O   UNL A   1      33.093  19.417  26.554  1.00  0.00    -0.507 OA
ATOM     40  H   UNL A   1      33.462  18.592  26.310  1.00  0.00     0.293 HD
ENDBRANCH  20  39
BRANCH  22  41
ATOM     41  C   UNL A   1      34.135  21.769  27.657  1.00  0.00    -0.036 C 
ATOM     42  H   UNL A   1      34.387  20.793  28.015  1.00  0.00     0.028 H 
ATOM     43  H   UNL A   1      33.342  22.174  28.252  1.00  0.00     0.028 H 
ATOM     44  H   UNL A   1      34.991  22.406  27.722  1.00  0.00     0.028 H 
ENDBRANCH  22  41
BRANCH  17  45
ATOM     45  C   UNL A   1      31.936  25.377  24.553  1.00  0.00    -0.016 C 
ATOM     46  H   UNL A   1      31.416  24.448  24.653  1.00  0.00     0.028 H 
ATOM     47  H   UNL A   1      31.362  26.043  23.942  1.00  0.00     0.028 H 
ATOM     48  H   UNL A   1      32.078  25.814  25.519  1.00  0.00     0.028 H 
ENDBRANCH  17  45
ENDBRANCH  14  17
ENDBRANCH  10  13
ENDBRANCH   7  10
ENDBRANCH   4   7
ENDBRANCH   1   4
BRANCH   1  49
ATOM     49  C   UNL A   1      31.376  32.270  26.521  1.00  0.00    -0.036 C 
ATOM     50  H   UNL A   1      30.525  32.547  27.108  1.00  0.00     0.028 H 
ATOM     51  H   UNL A   1      31.351  32.683  25.535  1.00  0.00     0.028 H 
BRANCH  49  52
ATOM     52  C   UNL A   1      32.624  32.823  27.196  1.00  0.00     0.018 C 
ATOM     53  H   UNL A   1      33.436  32.795  26.500  1.00  0.00     0.049 H 
ATOM     54  H   UNL A   1      32.833  32.220  28.055  1.00  0.00     0.049 H 
BRANCH  52  55
ATOM     55  N   UNL A   1      32.436  34.194  27.643  1.00  0.00    -0.352 N 
ATOM     56  C   UNL A   1      33.046  34.861  28.673  1.00  0.00     0.251 C 
ATOM     57  H   UNL A   1      31.777  34.718  27.132  1.00  0.00     0.163 HD
ATOM     58  O   UNL A   1      32.618  35.948  29.052  1.00  0.00    -0.269 OA
BRANCH  56  59
ATOM     59  C   UNL A   1      34.215  34.255  29.341  1.00  0.00     0.039 A 
ATOM     60  C   UNL A   1      34.007  33.393  30.418  1.00  0.00    -0.049 A 
ATOM     61  C   UNL A   1      35.511  34.539  28.898  1.00  0.00    -0.049 A 
ATOM     62  C   UNL A   1      35.101  32.772  31.022  1.00  0.00    -0.053 A 
ATOM     63  H   UNL A   1      33.052  33.216  30.766  1.00  0.00     0.063 H 
ATOM     64  C   UNL A   1      36.591  33.859  29.448  1.00  0.00    -0.053 A 
ATOM     65  H   UNL A   1      35.664  35.251  28.167  1.00  0.00     0.063 H 
ATOM     66  C   UNL A   1      36.397  32.978  30.522  1.00  0.00    -0.014 A 
ATOM     67  H   UNL A   1      34.957  32.158  31.838  1.00  0.00     0.063 H 
ATOM     68  H   UNL A   1      37.538  34.002  29.064  1.00  0.00     0.063 H 
BRANCH  66  69
ATOM     69  C   UNL A   1      37.566  32.296  31.128  1.00  0.00     0.031 A 
ATOM     70  C   UNL A   1      38.038  32.686  32.498  1.00  0.00     0.074 A 
ATOM     71  C   UNL A   1      38.225  31.354  30.426  1.00  0.00     0.049 A 
ATOM     72  N   UNL A   1      39.052  32.227  33.186  1.00  0.00    -0.248 NA
ATOM     73  C   UNL A   1      37.284  33.752  33.178  1.00  0.00    -0.034 C 
ATOM     74  C   UNL A   1      37.881  30.919  29.074  1.00  0.00    -0.036 A 
ATOM     75  N   UNL A   1      39.319  30.594  30.756  1.00  0.00    -0.354 N 
ATOM     76  C   UNL A   1      39.057  32.947  34.373  1.00  0.00     0.074 A 
ATOM     77  C   UNL A   1      37.992  33.921  34.284  1.00  0.00    -0.034 C 
ATOM     78  H   UNL A   1      36.428  34.241  32.871  1.00  0.00     0.065 H 
ATOM     79  C   UNL A   1      38.724  29.943  28.700  1.00  0.00    -0.036 A 
ATOM     80  H   UNL A   1      37.115  31.300  28.497  1.00  0.00     0.065 H 
ATOM     81  C   UNL A   1      39.690  29.712  29.772  1.00  0.00     0.049 A 
ATOM     82  H   UNL A   1      39.792  30.674  31.615  1.00  0.00     0.167 HD
ATOM     83  C   UNL A   1      39.858  32.787  35.453  1.00  0.00     0.037 A 
ATOM     84  H   UNL A   1      37.807  34.651  34.990  1.00  0.00     0.065 H 
ATOM     85  H   UNL A   1      38.694  29.437  27.801  1.00  0.00     0.065 H 
ATOM     86  C   UNL A   1      40.696  28.817  29.737  1.00  0.00     0.037 A 
ATOM     87  C   UNL A   1      40.908  31.807  35.538  1.00  0.00     0.049 A 
ATOM     88  C   UNL A   1      41.598  28.681  30.933  1.00  0.00     0.074 A 
ATOM     89  C   UNL A   1      41.745  31.531  36.604  1.00  0.00    -0.036 A 
ATOM     90  N   UNL A   1      41.269  30.944  34.512  1.00  0.00    -0.354 N 
ATOM     91  N   UNL A   1      41.556  29.321  32.076  1.00  0.00    -0.248 NA
ATOM     92  C   UNL A   1      42.685  27.696  30.836  1.00  0.00    -0.034 C 
ATOM     93  C   UNL A   1      42.651  30.545  36.204  1.00  0.00    -0.036 A 
ATOM     94  H   UNL A   1      41.707  31.978  37.534  1.00  0.00     0.065 H 
ATOM     95  C   UNL A   1      42.340  30.160  34.909  1.00  0.00     0.049 A 
ATOM     96  H   UNL A   1      40.830  30.896  33.633  1.00  0.00     0.167 HD
ATOM     97  C   UNL A   1      42.594  28.808  32.841  1.00  0.00     0.074 A 
ATOM     98  C   UNL A   1      43.238  27.789  32.037  1.00  0.00    -0.034 C 
ATOM     99  H   UNL A   1      42.947  27.092  30.042  1.00  0.00     0.065 H 
ATOM    100  H   UNL A   1      43.423  30.169  36.776  1.00  0.00     0.065 H 
ATOM    101  C   UNL A   1      42.977  29.153  34.096  1.00  0.00     0.037 A 
ATOM    102  H   UNL A   1      44.030  27.210  32.360  1.00  0.00     0.065 H 
BRANCH  83 103
ATOM    103  C   UNL A   1      39.627  33.693  36.629  1.00  0.00     0.064 A 
ATOM    104  C   UNL A   1      38.814  33.307  37.706  1.00  0.00     0.173 A 
ATOM    105  C   UNL A   1      40.247  34.950  36.695  1.00  0.00     0.173 A 
ATOM    106  F   UNL A   1      38.186  32.121  37.688  1.00  0.00    -0.203 F 
ATOM    107  C   UNL A   1      38.605  34.158  38.788  1.00  0.00     0.198 A 
ATOM    108  C   UNL A   1      40.065  35.783  37.795  1.00  0.00     0.198 A 
ATOM    109  F   UNL A   1      41.039  35.367  35.695  1.00  0.00    -0.203 F 
ATOM    110  F   UNL A   1      37.779  33.789  39.778  1.00  0.00    -0.200 F 
ATOM    111  C   UNL A   1      39.237  35.391  38.836  1.00  0.00     0.200 A 
ATOM    112  F   UNL A   1      40.688  36.968  37.847  1.00  0.00    -0.200 F 
ATOM    113  F   UNL A   1      39.042  36.205  39.882  1.00  0.00    -0.200 F 
ENDBRANCH  83 103
BRANCH  86 114
ATOM    114  C   UNL A   1      40.859  27.953  28.539  1.00  0.00     0.064 A 
ATOM    115  C   UNL A   1      40.185  26.729  28.441  1.00  0.00     0.173 A 
ATOM    116  C   UNL A   1      41.637  28.359  27.445  1.00  0.00     0.173 A 
ATOM    117  F   UNL A   1      39.443  26.289  29.469  1.00  0.00    -0.203 F 
ATOM    118  C   UNL A   1      40.278  25.945  27.293  1.00  0.00     0.198 A 
ATOM    119  C   UNL A   1      41.708  27.588  26.286  1.00  0.00     0.198 A 
ATOM    120  F   UNL A   1      42.297  29.526  27.486  1.00  0.00    -0.203 F 
ATOM    121  F   UNL A   1      39.636  24.770  27.233  1.00  0.00    -0.200 F 
ATOM    122  C   UNL A   1      41.029  26.381  26.212  1.00  0.00     0.200 A 
ATOM    123  F   UNL A   1      42.421  28.022  25.238  1.00  0.00    -0.200 F 
ATOM    124  F   UNL A   1      41.099  25.639  25.099  1.00  0.00    -0.200 F 
ENDBRANCH  86 114
BRANCH 101 125
ATOM    125  C   UNL A   1      44.148  28.425  34.692  1.00  0.00     0.064 A 
ATOM    126  C   UNL A   1      45.449  28.941  34.614  1.00  0.00     0.173 A 
ATOM    127  C   UNL A   1      43.953  27.241  35.423  1.00  0.00     0.173 A 
ATOM    128  F   UNL A   1      45.690  30.062  33.918  1.00  0.00    -0.203 F 
ATOM    129  C   UNL A   1      46.515  28.294  35.237  1.00  0.00     0.198 A 
ATOM    130  C   UNL A   1      45.014  26.616  36.070  1.00  0.00     0.198 A 
ATOM    131  F   UNL A   1      42.726  26.710  35.535  1.00  0.00    -0.203 F 
ATOM    132  F   UNL A   1      47.755  28.788  35.121  1.00  0.00    -0.200 F 
ATOM    133  C   UNL A   1      46.295  27.140  35.974  1.00  0.00     0.200 A 
ATOM    134  F   UNL A   1      44.796  25.512  36.799  1.00  0.00    -0.200 F 
ATOM    135  F   UNL A   1      47.317  26.532  36.591  1.00  0.00    -0.200 F 
ENDBRANCH 101 125
ENDBRANCH  66  69
ENDBRANCH  56  59
ENDBRANCH  52  55
ENDBRANCH  49  52
ENDBRANCH   1  49
TORSDOF 18
ENDMDL
MODEL 7
REMARK VINA RESULT:     -12.2      4.268      8.268
REMARK SMILES Cc1c(C)c2c(c(C)c1O)CC[C@@](C)(C(=O)NCCCCCCNC(=O)c1ccc(-c3c4nc(c(-c5c(F)c(F)c(F)c(F)c5F)c5ccc([nH]5)c(-c5c(F)c(F)c(F)c(F)c5F)c5nc(c(-c6c(F)c(F)c(F)c(F)c6F)c6ccc3[nH]6)C=C5)C=C4)cc1)O2
REMARK SMILES IDX 21 1 20 4 19 7 18 10 17 13 15 14 16 15 13 17 2 18 3 19 9 20
REMARK SMILES IDX 5 21 7 22 6 23 90 24 11 25 12 26 1 31 4 35 10 39 8 41 14 45
REMARK SMILES IDX 22 49 23 52 24 55 25 56 26 58 27 59 28 60 89 61 29 62 88 64
REMARK SMILES IDX 30 66 31 69 32 70 82 71 33 72 87 73 81 74 83 75 34 76 86 77
REMARK SMILES IDX 80 79 79 81 35 83 67 86 47 87 66 88 48 89 51 90 65 91 84 92
REMARK SMILES IDX 49 93 50 95 64 97 85 98 52 101 36 103 37 104 45 105 38 106
REMARK SMILES IDX 39 107 43 108 46 109 40 110 41 111 44 112 42 113 68 114
REMARK SMILES IDX 69 115 77 116 70 117 71 118 75 119 78 120 72 121 73 122
REMARK SMILES IDX 76 123 74 124 53 125 54 126 62 127 55 128 56 129 60 130
REMARK SMILES IDX 63 131 57 132 58 133 61 134 59 135
REMARK H PARENT 21 2 21 3 20 5 20 6 19 8 19 9 18 11 18 12 17 16 11 27 11 28
REMARK H PARENT 12 29 12 30 1 32 1 33 1 34 4 36 4 37 4 38 10 40 8 42 8 43 8 44
REMARK H PARENT 14 46 14 47 14 48 22 50 22 51 23 53 23 54 24 57 28 63 89 65
REMARK H PARENT 29 67 88 68 87 78 81 80 83 82 86 84 80 85 48 94 51 96 84 99
REMARK H PARENT 49 100 85 102
REMARK Flexibility Score: inf
ROOT
ATOM      1  C   UNL A   1      34.899  22.954  24.107  1.00  0.00    -0.052 C 
ATOM      2  H   UNL A   1      34.175  23.650  24.476  1.00  0.00     0.027 H 
ATOM      3  H   UNL A   1      34.834  22.794  23.051  1.00  0.00     0.027 H 
ENDROOT
BRANCH   1   4
ATOM      4  C   UNL A   1      34.632  21.596  24.765  1.00  0.00    -0.052 C 
ATOM      5  H   UNL A   1      34.329  20.910  24.001  1.00  0.00     0.027 H 
ATOM      6  H   UNL A   1      35.541  21.311  25.252  1.00  0.00     0.027 H 
BRANCH   4   7
ATOM      7  C   UNL A   1      33.549  21.612  25.846  1.00  0.00    -0.036 C 
ATOM      8  H   UNL A   1      33.726  20.795  26.514  1.00  0.00     0.028 H 
ATOM      9  H   UNL A   1      33.612  22.560  26.338  1.00  0.00     0.028 H 
BRANCH   7  10
ATOM     10  C   UNL A   1      32.131  21.487  25.294  1.00  0.00     0.017 C 
ATOM     11  H   UNL A   1      32.092  21.948  24.330  1.00  0.00     0.049 H 
ATOM     12  H   UNL A   1      31.887  20.447  25.228  1.00  0.00     0.049 H 
BRANCH  10  13
ATOM     13  N   UNL A   1      31.165  22.130  26.166  1.00  0.00    -0.353 N 
ATOM     14  C   UNL A   1      30.692  23.416  26.200  1.00  0.00     0.263 C 
ATOM     15  O   UNL A   1      29.888  23.683  27.097  1.00  0.00    -0.270 OA
ATOM     16  H   UNL A   1      30.783  21.539  26.856  1.00  0.00     0.163 HD
BRANCH  14  17
ATOM     17  C   UNL A   1      31.137  24.454  25.133  1.00  0.00     0.184 C 
ATOM     18  C   UNL A   1      29.644  28.431  22.881  1.00  0.00    -0.002 A 
ATOM     19  C   UNL A   1      29.363  27.303  23.692  1.00  0.00    -0.002 A 
ATOM     20  C   UNL A   1      30.987  28.734  22.580  1.00  0.00     0.122 A 
ATOM     21  C   UNL A   1      30.429  26.555  24.223  1.00  0.00     0.127 A 
ATOM     22  C   UNL A   1      32.054  28.002  23.121  1.00  0.00    -0.002 A 
ATOM     23  C   UNL A   1      31.767  26.925  23.981  1.00  0.00     0.001 A 
ATOM     24  O   UNL A   1      30.096  25.446  24.974  1.00  0.00    -0.477 OA
ATOM     25  C   UNL A   1      32.892  26.139  24.598  1.00  0.00    -0.019 C 
ATOM     26  C   UNL A   1      32.366  25.202  25.659  1.00  0.00     0.000 C 
ATOM     27  H   UNL A   1      33.592  26.817  25.042  1.00  0.00     0.032 H 
ATOM     28  H   UNL A   1      33.369  25.563  23.833  1.00  0.00     0.032 H 
ATOM     29  H   UNL A   1      32.094  25.766  26.527  1.00  0.00     0.032 H 
ATOM     30  H   UNL A   1      33.127  24.494  25.911  1.00  0.00     0.032 H 
BRANCH  18  31
ATOM     31  C   UNL A   1      28.517  29.251  22.305  1.00  0.00    -0.036 C 
ATOM     32  H   UNL A   1      28.146  28.774  21.421  1.00  0.00     0.028 H 
ATOM     33  H   UNL A   1      28.876  30.227  22.059  1.00  0.00     0.028 H 
ATOM     34  H   UNL A   1      27.729  29.330  23.025  1.00  0.00     0.028 H 
ENDBRANCH  18  31
BRANCH  19  35
ATOM     35  C   UNL A   1      27.936  26.903  23.983  1.00  0.00    -0.036 C 
ATOM     36  H   UNL A   1      27.295  27.281  23.215  1.00  0.00     0.028 H 
ATOM     37  H   UNL A   1      27.638  27.307  24.928  1.00  0.00     0.028 H 
ATOM     38  H   UNL A   1      27.865  25.835  24.014  1.00  0.00     0.028 H 
ENDBRANCH  19  35
BRANCH  20  39
ATOM     39  O   UNL A   1      31.316  29.763  21.735  1.00  0.00    -0.507 OA
ATOM     40  H   UNL A   1      31.448  30.625  22.077  1.00  0.00     0.293 HD
ENDBRANCH  20  39
BRANCH  22  41
ATOM     41  C   UNL A   1      33.485  28.341  22.785  1.00  0.00    -0.036 C 
ATOM     42  H   UNL A   1      34.143  27.720  23.358  1.00  0.00     0.028 H 
ATOM     43  H   UNL A   1      33.672  29.369  23.018  1.00  0.00     0.028 H 
ATOM     44  H   UNL A   1      33.656  28.174  21.743  1.00  0.00     0.028 H 
ENDBRANCH  22  41
BRANCH  17  45
ATOM     45  C   UNL A   1      31.244  23.708  23.786  1.00  0.00    -0.016 C 
ATOM     46  H   UNL A   1      30.519  22.923  23.754  1.00  0.00     0.028 H 
ATOM     47  H   UNL A   1      32.225  23.291  23.685  1.00  0.00     0.028 H 
ATOM     48  H   UNL A   1      31.065  24.393  22.984  1.00  0.00     0.028 H 
ENDBRANCH  17  45
ENDBRANCH  14  17
ENDBRANCH  10  13
ENDBRANCH   7  10
ENDBRANCH   4   7
ENDBRANCH   1   4
BRANCH   1  49
ATOM     49  C   UNL A   1      36.292  23.533  24.369  1.00  0.00    -0.036 C 
ATOM     50  H   UNL A   1      36.288  24.562  24.074  1.00  0.00     0.028 H 
ATOM     51  H   UNL A   1      36.982  22.943  23.802  1.00  0.00     0.028 H 
BRANCH  49  52
ATOM     52  C   UNL A   1      36.739  23.453  25.823  1.00  0.00     0.018 C 
ATOM     53  H   UNL A   1      35.916  23.119  26.420  1.00  0.00     0.049 H 
ATOM     54  H   UNL A   1      37.063  24.428  26.125  1.00  0.00     0.049 H 
BRANCH  52  55
ATOM     55  N   UNL A   1      37.851  22.534  25.998  1.00  0.00    -0.352 N 
ATOM     56  C   UNL A   1      39.139  22.795  26.384  1.00  0.00     0.251 C 
ATOM     57  H   UNL A   1      37.649  21.587  25.814  1.00  0.00     0.163 HD
ATOM     58  O   UNL A   1      40.010  21.936  26.276  1.00  0.00    -0.269 OA
BRANCH  56  59
ATOM     59  C   UNL A   1      39.481  24.129  26.916  1.00  0.00     0.039 A 
ATOM     60  C   UNL A   1      39.221  24.410  28.258  1.00  0.00    -0.049 A 
ATOM     61  C   UNL A   1      40.061  25.096  26.088  1.00  0.00    -0.049 A 
ATOM     62  C   UNL A   1      39.590  25.647  28.785  1.00  0.00    -0.053 A 
ATOM     63  H   UNL A   1      38.759  23.708  28.856  1.00  0.00     0.063 H 
ATOM     64  C   UNL A   1      40.501  26.297  26.633  1.00  0.00    -0.053 A 
ATOM     65  H   UNL A   1      40.161  24.919  25.077  1.00  0.00     0.063 H 
ATOM     66  C   UNL A   1      40.259  26.587  27.984  1.00  0.00    -0.014 A 
ATOM     67  H   UNL A   1      39.372  25.873  29.768  1.00  0.00     0.063 H 
ATOM     68  H   UNL A   1      41.006  26.975  26.043  1.00  0.00     0.063 H 
BRANCH  66  69
ATOM     69  C   UNL A   1      40.692  27.892  28.539  1.00  0.00     0.031 A 
ATOM     70  C   UNL A   1      42.141  28.136  28.847  1.00  0.00     0.074 A 
ATOM     71  C   UNL A   1      39.774  28.841  28.804  1.00  0.00     0.049 A 
ATOM     72  N   UNL A   1      42.712  29.197  29.358  1.00  0.00    -0.248 NA
ATOM     73  C   UNL A   1      43.071  27.031  28.564  1.00  0.00    -0.034 C 
ATOM     74  C   UNL A   1      38.335  28.705  28.581  1.00  0.00    -0.036 A 
ATOM     75  N   UNL A   1      39.916  30.106  29.315  1.00  0.00    -0.354 N 
ATOM     76  C   UNL A   1      44.060  28.885  29.459  1.00  0.00     0.074 A 
ATOM     77  C   UNL A   1      44.214  27.515  29.024  1.00  0.00    -0.034 C 
ATOM     78  H   UNL A   1      42.881  26.117  28.124  1.00  0.00     0.065 H 
ATOM     79  C   UNL A   1      37.729  29.854  28.920  1.00  0.00    -0.036 A 
ATOM     80  H   UNL A   1      37.861  27.862  28.223  1.00  0.00     0.065 H 
ATOM     81  C   UNL A   1      38.731  30.792  29.419  1.00  0.00     0.049 A 
ATOM     82  H   UNL A   1      40.784  30.486  29.582  1.00  0.00     0.167 HD
ATOM     83  C   UNL A   1      45.083  29.683  29.848  1.00  0.00     0.037 A 
ATOM     84  H   UNL A   1      45.099  26.984  29.065  1.00  0.00     0.065 H 
ATOM     85  H   UNL A   1      36.718  30.044  28.840  1.00  0.00     0.065 H 
ATOM     86  C   UNL A   1      38.481  32.038  29.866  1.00  0.00     0.037 A 
ATOM     87  C   UNL A   1      44.922  31.050  30.268  1.00  0.00     0.049 A 
ATOM     88  C   UNL A   1      39.627  32.895  30.330  1.00  0.00     0.074 A 
ATOM     89  C   UNL A   1      45.899  31.958  30.637  1.00  0.00    -0.036 A 
ATOM     90  N   UNL A   1      43.704  31.704  30.381  1.00  0.00    -0.354 N 
ATOM     91  N   UNL A   1      40.907  32.615  30.362  1.00  0.00    -0.248 NA
ATOM     92  C   UNL A   1      39.294  34.241  30.817  1.00  0.00    -0.034 C 
ATOM     93  C   UNL A   1      45.268  33.141  31.031  1.00  0.00    -0.036 A 
ATOM     94  H   UNL A   1      46.918  31.790  30.624  1.00  0.00     0.065 H 
ATOM     95  C   UNL A   1      43.901  32.994  30.848  1.00  0.00     0.049 A 
ATOM     96  H   UNL A   1      42.829  31.311  30.163  1.00  0.00     0.167 HD
ATOM     97  C   UNL A   1      41.536  33.751  30.853  1.00  0.00     0.074 A 
ATOM     98  C   UNL A   1      40.496  34.732  31.089  1.00  0.00    -0.034 C 
ATOM     99  H   UNL A   1      38.370  34.687  30.919  1.00  0.00     0.065 H 
ATOM    100  H   UNL A   1      45.740  33.982  31.397  1.00  0.00     0.065 H 
ATOM    101  C   UNL A   1      42.856  33.959  31.086  1.00  0.00     0.037 A 
ATOM    102  H   UNL A   1      40.670  35.692  31.427  1.00  0.00     0.065 H 
BRANCH  83 103
ATOM    103  C   UNL A   1      46.465  29.094  29.836  1.00  0.00     0.064 A 
ATOM    104  C   UNL A   1      47.005  28.462  30.967  1.00  0.00     0.173 A 
ATOM    105  C   UNL A   1      47.249  29.136  28.673  1.00  0.00     0.173 A 
ATOM    106  F   UNL A   1      46.303  28.405  32.109  1.00  0.00    -0.203 F 
ATOM    107  C   UNL A   1      48.289  27.922  30.943  1.00  0.00     0.198 A 
ATOM    108  C   UNL A   1      48.518  28.564  28.643  1.00  0.00     0.198 A 
ATOM    109  F   UNL A   1      46.781  29.724  27.562  1.00  0.00    -0.203 F 
ATOM    110  F   UNL A   1      48.803  27.374  32.053  1.00  0.00    -0.200 F 
ATOM    111  C   UNL A   1      49.040  27.967  29.780  1.00  0.00     0.200 A 
ATOM    112  F   UNL A   1      49.238  28.594  27.513  1.00  0.00    -0.200 F 
ATOM    113  F   UNL A   1      50.272  27.440  29.756  1.00  0.00    -0.200 F 
ENDBRANCH  83 103
BRANCH  86 114
ATOM    114  C   UNL A   1      37.087  32.551  29.844  1.00  0.00     0.064 A 
ATOM    115  C   UNL A   1      36.243  32.380  30.950  1.00  0.00     0.173 A 
ATOM    116  C   UNL A   1      36.591  33.276  28.750  1.00  0.00     0.173 A 
ATOM    117  F   UNL A   1      36.666  31.679  32.013  1.00  0.00    -0.203 F 
ATOM    118  C   UNL A   1      34.958  32.918  30.965  1.00  0.00     0.198 A 
ATOM    119  C   UNL A   1      35.315  33.836  28.777  1.00  0.00     0.198 A 
ATOM    120  F   UNL A   1      37.361  33.473  27.671  1.00  0.00    -0.203 F 
ATOM    121  F   UNL A   1      34.165  32.724  32.028  1.00  0.00    -0.200 F 
ATOM    122  C   UNL A   1      34.499  33.655  29.884  1.00  0.00     0.200 A 
ATOM    123  F   UNL A   1      34.884  34.563  27.737  1.00  0.00    -0.200 F 
ATOM    124  F   UNL A   1      33.272  34.193  29.909  1.00  0.00    -0.200 F 
ENDBRANCH  86 114
BRANCH 101 125
ATOM    125  C   UNL A   1      43.265  35.300  31.623  1.00  0.00     0.064 A 
ATOM    126  C   UNL A   1      43.678  36.336  30.773  1.00  0.00     0.173 A 
ATOM    127  C   UNL A   1      43.161  35.580  32.996  1.00  0.00     0.173 A 
ATOM    128  F   UNL A   1      43.805  36.118  29.456  1.00  0.00    -0.203 F 
ATOM    129  C   UNL A   1      43.982  37.599  31.278  1.00  0.00     0.198 A 
ATOM    130  C   UNL A   1      43.435  36.851  33.491  1.00  0.00     0.198 A 
ATOM    131  F   UNL A   1      42.763  34.626  33.852  1.00  0.00    -0.203 F 
ATOM    132  F   UNL A   1      44.406  38.564  30.450  1.00  0.00    -0.200 F 
ATOM    133  C   UNL A   1      43.849  37.858  32.633  1.00  0.00     0.200 A 
ATOM    134  F   UNL A   1      43.287  37.105  34.800  1.00  0.00    -0.200 F 
ATOM    135  F   UNL A   1      44.120  39.080  33.113  1.00  0.00    -0.200 F 
ENDBRANCH 101 125
ENDBRANCH  66  69
ENDBRANCH  56  59
ENDBRANCH  52  55
ENDBRANCH  49  52
ENDBRANCH   1  49
TORSDOF 18
ENDMDL
MODEL 8
REMARK VINA RESULT:     -12.1      5.259      9.673
REMARK SMILES Cc1c(C)c2c(c(C)c1O)CC[C@@](C)(C(=O)NCCCCCCNC(=O)c1ccc(-c3c4nc(c(-c5c(F)c(F)c(F)c(F)c5F)c5ccc([nH]5)c(-c5c(F)c(F)c(F)c(F)c5F)c5nc(c(-c6c(F)c(F)c(F)c(F)c6F)c6ccc3[nH]6)C=C5)C=C4)cc1)O2
REMARK SMILES IDX 21 1 20 4 19 7 18 10 17 13 15 14 16 15 13 17 2 18 3 19 9 20
REMARK SMILES IDX 5 21 7 22 6 23 90 24 11 25 12 26 1 31 4 35 10 39 8 41 14 45
REMARK SMILES IDX 22 49 23 52 24 55 25 56 26 58 27 59 28 60 89 61 29 62 88 64
REMARK SMILES IDX 30 66 31 69 32 70 82 71 33 72 87 73 81 74 83 75 34 76 86 77
REMARK SMILES IDX 80 79 79 81 35 83 67 86 47 87 66 88 48 89 51 90 65 91 84 92
REMARK SMILES IDX 49 93 50 95 64 97 85 98 52 101 36 103 37 104 45 105 38 106
REMARK SMILES IDX 39 107 43 108 46 109 40 110 41 111 44 112 42 113 68 114
REMARK SMILES IDX 69 115 77 116 70 117 71 118 75 119 78 120 72 121 73 122
REMARK SMILES IDX 76 123 74 124 53 125 54 126 62 127 55 128 56 129 60 130
REMARK SMILES IDX 63 131 57 132 58 133 61 134 59 135
REMARK H PARENT 21 2 21 3 20 5 20 6 19 8 19 9 18 11 18 12 17 16 11 27 11 28
REMARK H PARENT 12 29 12 30 1 32 1 33 1 34 4 36 4 37 4 38 10 40 8 42 8 43 8 44
REMARK H PARENT 14 46 14 47 14 48 22 50 22 51 23 53 23 54 24 57 28 63 89 65
REMARK H PARENT 29 67 88 68 87 78 81 80 83 82 86 84 80 85 48 94 51 96 84 99
REMARK H PARENT 49 100 85 102
REMARK Flexibility Score: inf
ROOT
ATOM      1  C   UNL A   1      36.645  20.573  24.667  1.00  0.00    -0.052 C 
ATOM      2  H   UNL A   1      36.935  21.110  23.787  1.00  0.00     0.027 H 
ATOM      3  H   UNL A   1      35.748  20.004  24.540  1.00  0.00     0.027 H 
ENDROOT
BRANCH   1   4
ATOM      4  C   UNL A   1      36.354  21.594  25.773  1.00  0.00    -0.052 C 
ATOM      5  H   UNL A   1      36.940  21.332  26.629  1.00  0.00     0.027 H 
ATOM      6  H   UNL A   1      36.601  22.554  25.370  1.00  0.00     0.027 H 
BRANCH   4   7
ATOM      7  C   UNL A   1      34.888  21.669  26.203  1.00  0.00    -0.036 C 
ATOM      8  H   UNL A   1      34.274  21.533  25.337  1.00  0.00     0.028 H 
ATOM      9  H   UNL A   1      34.736  20.903  26.935  1.00  0.00     0.028 H 
BRANCH   7  10
ATOM     10  C   UNL A   1      34.510  22.995  26.859  1.00  0.00     0.017 C 
ATOM     11  H   UNL A   1      35.091  23.121  27.748  1.00  0.00     0.049 H 
ATOM     12  H   UNL A   1      34.707  23.783  26.162  1.00  0.00     0.049 H 
BRANCH  10  13
ATOM     13  N   UNL A   1      33.100  23.033  27.205  1.00  0.00    -0.353 N 
ATOM     14  C   UNL A   1      32.075  23.813  26.737  1.00  0.00     0.263 C 
ATOM     15  O   UNL A   1      30.970  23.639  27.258  1.00  0.00    -0.270 OA
ATOM     16  H   UNL A   1      32.834  22.385  27.897  1.00  0.00     0.163 HD
BRANCH  14  17
ATOM     17  C   UNL A   1      32.313  24.833  25.590  1.00  0.00     0.184 C 
ATOM     18  C   UNL A   1      30.078  28.258  23.061  1.00  0.00    -0.002 A 
ATOM     19  C   UNL A   1      30.020  27.162  23.957  1.00  0.00    -0.002 A 
ATOM     20  C   UNL A   1      31.337  28.794  22.722  1.00  0.00     0.122 A 
ATOM     21  C   UNL A   1      31.210  26.680  24.532  1.00  0.00     0.127 A 
ATOM     22  C   UNL A   1      32.524  28.327  23.304  1.00  0.00    -0.002 A 
ATOM     23  C   UNL A   1      32.451  27.284  24.246  1.00  0.00     0.001 A 
ATOM     24  O   UNL A   1      31.098  25.588  25.368  1.00  0.00    -0.477 OA
ATOM     25  C   UNL A   1      33.705  26.783  24.907  1.00  0.00    -0.019 C 
ATOM     26  C   UNL A   1      33.370  25.845  26.043  1.00  0.00     0.000 C 
ATOM     27  H   UNL A   1      34.258  27.616  25.291  1.00  0.00     0.032 H 
ATOM     28  H   UNL A   1      34.289  26.253  24.183  1.00  0.00     0.032 H 
ATOM     29  H   UNL A   1      32.990  26.409  26.868  1.00  0.00     0.032 H 
ATOM     30  H   UNL A   1      34.254  25.321  26.339  1.00  0.00     0.032 H 
BRANCH  18  31
ATOM     31  C   UNL A   1      28.815  28.795  22.437  1.00  0.00    -0.036 C 
ATOM     32  H   UNL A   1      28.699  28.384  21.456  1.00  0.00     0.028 H 
ATOM     33  H   UNL A   1      28.875  29.861  22.371  1.00  0.00     0.028 H 
ATOM     34  H   UNL A   1      27.974  28.521  23.041  1.00  0.00     0.028 H 
ENDBRANCH  18  31
BRANCH  19  35
ATOM     35  C   UNL A   1      28.698  26.515  24.295  1.00  0.00    -0.036 C 
ATOM     36  H   UNL A   1      28.841  25.800  25.077  1.00  0.00     0.028 H 
ATOM     37  H   UNL A   1      28.310  26.023  23.428  1.00  0.00     0.028 H 
ATOM     38  H   UNL A   1      28.007  27.265  24.619  1.00  0.00     0.028 H 
ENDBRANCH  19  35
BRANCH  20  39
ATOM     39  O   UNL A   1      31.461  29.799  21.797  1.00  0.00    -0.507 OA
ATOM     40  H   UNL A   1      32.205  30.367  21.822  1.00  0.00     0.293 HD
ENDBRANCH  20  39
BRANCH  22  41
ATOM     41  C   UNL A   1      33.863  28.912  22.927  1.00  0.00    -0.036 C 
ATOM     42  H   UNL A   1      33.737  29.597  22.114  1.00  0.00     0.028 H 
ATOM     43  H   UNL A   1      34.525  28.125  22.630  1.00  0.00     0.028 H 
ATOM     44  H   UNL A   1      34.277  29.428  23.767  1.00  0.00     0.028 H 
ENDBRANCH  22  41
BRANCH  17  45
ATOM     45  C   UNL A   1      32.568  24.022  24.301  1.00  0.00    -0.016 C 
ATOM     46  H   UNL A   1      33.304  23.270  24.493  1.00  0.00     0.028 H 
ATOM     47  H   UNL A   1      32.920  24.676  23.531  1.00  0.00     0.028 H 
ATOM     48  H   UNL A   1      31.657  23.558  23.986  1.00  0.00     0.028 H 
ENDBRANCH  17  45
ENDBRANCH  14  17
ENDBRANCH  10  13
ENDBRANCH   7  10
ENDBRANCH   4   7
ENDBRANCH   1   4
BRANCH   1  49
ATOM     49  C   UNL A   1      37.750  19.566  24.995  1.00  0.00    -0.036 C 
ATOM     50  H   UNL A   1      38.055  19.094  24.084  1.00  0.00     0.028 H 
ATOM     51  H   UNL A   1      37.337  18.875  25.701  1.00  0.00     0.028 H 
BRANCH  49  52
ATOM     52  C   UNL A   1      38.980  20.179  25.652  1.00  0.00     0.018 C 
ATOM     53  H   UNL A   1      38.699  20.584  26.602  1.00  0.00     0.049 H 
ATOM     54  H   UNL A   1      39.357  20.943  25.003  1.00  0.00     0.049 H 
BRANCH  52  55
ATOM     55  N   UNL A   1      40.033  19.197  25.852  1.00  0.00    -0.352 N 
ATOM     56  C   UNL A   1      41.366  19.395  26.099  1.00  0.00     0.251 C 
ATOM     57  H   UNL A   1      39.747  18.256  25.806  1.00  0.00     0.163 HD
ATOM     58  O   UNL A   1      42.159  18.459  26.031  1.00  0.00    -0.269 OA
BRANCH  56  59
ATOM     59  C   UNL A   1      41.851  20.749  26.430  1.00  0.00     0.039 A 
ATOM     60  C   UNL A   1      42.121  21.643  25.393  1.00  0.00    -0.049 A 
ATOM     61  C   UNL A   1      42.036  21.131  27.763  1.00  0.00    -0.049 A 
ATOM     62  C   UNL A   1      42.527  22.943  25.696  1.00  0.00    -0.053 A 
ATOM     63  H   UNL A   1      42.020  21.347  24.410  1.00  0.00     0.063 H 
ATOM     64  C   UNL A   1      42.363  22.447  28.064  1.00  0.00    -0.053 A 
ATOM     65  H   UNL A   1      41.930  20.437  28.519  1.00  0.00     0.063 H 
ATOM     66  C   UNL A   1      42.623  23.362  27.033  1.00  0.00    -0.014 A 
ATOM     67  H   UNL A   1      42.758  23.600  24.934  1.00  0.00     0.063 H 
ATOM     68  H   UNL A   1      42.414  22.752  29.048  1.00  0.00     0.063 H 
BRANCH  66  69
ATOM     69  C   UNL A   1      43.017  24.751  27.371  1.00  0.00     0.031 A 
ATOM     70  C   UNL A   1      44.424  25.214  27.131  1.00  0.00     0.074 A 
ATOM     71  C   UNL A   1      42.116  25.582  27.930  1.00  0.00     0.049 A 
ATOM     72  N   UNL A   1      44.967  26.378  27.382  1.00  0.00    -0.248 NA
ATOM     73  C   UNL A   1      45.353  24.231  26.553  1.00  0.00    -0.034 C 
ATOM     74  C   UNL A   1      40.731  25.232  28.244  1.00  0.00    -0.036 A 
ATOM     75  N   UNL A   1      42.232  26.888  28.333  1.00  0.00    -0.354 N 
ATOM     76  C   UNL A   1      46.295  26.264  26.996  1.00  0.00     0.074 A 
ATOM     77  C   UNL A   1      46.495  24.899  26.560  1.00  0.00    -0.034 C 
ATOM     78  H   UNL A   1      45.164  23.269  26.228  1.00  0.00     0.065 H 
ATOM     79  C   UNL A   1      40.114  26.308  28.756  1.00  0.00    -0.036 A 
ATOM     80  H   UNL A   1      40.298  24.308  28.096  1.00  0.00     0.065 H 
ATOM     81  C   UNL A   1      41.069  27.409  28.844  1.00  0.00     0.049 A 
ATOM     82  H   UNL A   1      43.068  27.402  28.262  1.00  0.00     0.167 HD
ATOM     83  C   UNL A   1      47.253  27.221  26.976  1.00  0.00     0.037 A 
ATOM     84  H   UNL A   1      47.409  24.501  26.291  1.00  0.00     0.065 H 
ATOM     85  H   UNL A   1      39.123  26.350  29.043  1.00  0.00     0.065 H 
ATOM     86  C   UNL A   1      40.803  28.638  29.328  1.00  0.00     0.037 A 
ATOM     87  C   UNL A   1      47.041  28.580  27.400  1.00  0.00     0.049 A 
ATOM     88  C   UNL A   1      41.891  29.677  29.331  1.00  0.00     0.074 A 
ATOM     89  C   UNL A   1      47.932  29.638  27.376  1.00  0.00    -0.036 A 
ATOM     90  N   UNL A   1      45.855  29.066  27.932  1.00  0.00    -0.354 N 
ATOM     91  N   UNL A   1      43.127  29.579  28.905  1.00  0.00    -0.248 NA
ATOM     92  C   UNL A   1      41.548  30.996  29.880  1.00  0.00    -0.034 C 
ATOM     93  C   UNL A   1      47.305  30.749  27.948  1.00  0.00    -0.036 A 
ATOM     94  H   UNL A   1      48.893  29.612  27.000  1.00  0.00     0.065 H 
ATOM     95  C   UNL A   1      46.002  30.402  28.273  1.00  0.00     0.049 A 
ATOM     96  H   UNL A   1      45.032  28.541  28.051  1.00  0.00     0.167 HD
ATOM     97  C   UNL A   1      43.705  30.823  29.115  1.00  0.00     0.074 A 
ATOM     98  C   UNL A   1      42.677  31.666  29.691  1.00  0.00    -0.034 C 
ATOM     99  H   UNL A   1      40.662  31.316  30.300  1.00  0.00     0.065 H 
ATOM    100  H   UNL A   1      47.739  31.671  28.104  1.00  0.00     0.065 H 
ATOM    101  C   UNL A   1      44.972  31.228  28.853  1.00  0.00     0.037 A 
ATOM    102  H   UNL A   1      42.808  32.663  29.927  1.00  0.00     0.065 H 
BRANCH  83 103
ATOM    103  C   UNL A   1      48.615  26.829  26.478  1.00  0.00     0.064 A 
ATOM    104  C   UNL A   1      48.985  27.005  25.135  1.00  0.00     0.173 A 
ATOM    105  C   UNL A   1      49.572  26.301  27.357  1.00  0.00     0.173 A 
ATOM    106  F   UNL A   1      48.105  27.495  24.250  1.00  0.00    -0.203 F 
ATOM    107  C   UNL A   1      50.250  26.635  24.686  1.00  0.00     0.198 A 
ATOM    108  C   UNL A   1      50.847  25.965  26.911  1.00  0.00     0.198 A 
ATOM    109  F   UNL A   1      49.273  26.116  28.652  1.00  0.00    -0.203 F 
ATOM    110  F   UNL A   1      50.560  26.759  23.388  1.00  0.00    -0.200 F 
ATOM    111  C   UNL A   1      51.182  26.123  25.575  1.00  0.00     0.200 A 
ATOM    112  F   UNL A   1      51.753  25.485  27.775  1.00  0.00    -0.200 F 
ATOM    113  F   UNL A   1      52.402  25.776  25.143  1.00  0.00    -0.200 F 
ENDBRANCH  83 103
BRANCH  86 114
ATOM    114  C   UNL A   1      39.429  28.951  29.800  1.00  0.00     0.064 A 
ATOM    115  C   UNL A   1      39.057  28.709  31.129  1.00  0.00     0.173 A 
ATOM    116  C   UNL A   1      38.486  29.555  28.956  1.00  0.00     0.173 A 
ATOM    117  F   UNL A   1      39.919  28.117  31.969  1.00  0.00    -0.203 F 
ATOM    118  C   UNL A   1      37.793  29.063  31.598  1.00  0.00     0.198 A 
ATOM    119  C   UNL A   1      37.232  29.933  29.433  1.00  0.00     0.198 A 
ATOM    120  F   UNL A   1      38.796  29.814  27.678  1.00  0.00    -0.203 F 
ATOM    121  F   UNL A   1      37.456  28.804  32.868  1.00  0.00    -0.200 F 
ATOM    122  C   UNL A   1      36.886  29.685  30.753  1.00  0.00     0.200 A 
ATOM    123  F   UNL A   1      36.366  30.550  28.618  1.00  0.00    -0.200 F 
ATOM    124  F   UNL A   1      35.681  30.048  31.211  1.00  0.00    -0.200 F 
ENDBRANCH  86 114
BRANCH 101 125
ATOM    125  C   UNL A   1      45.332  32.649  29.182  1.00  0.00     0.064 A 
ATOM    126  C   UNL A   1      45.107  33.692  28.272  1.00  0.00     0.173 A 
ATOM    127  C   UNL A   1      45.827  32.982  30.454  1.00  0.00     0.173 A 
ATOM    128  F   UNL A   1      44.647  33.425  27.041  1.00  0.00    -0.203 F 
ATOM    129  C   UNL A   1      45.375  35.014  28.618  1.00  0.00     0.198 A 
ATOM    130  C   UNL A   1      46.063  34.307  30.806  1.00  0.00     0.198 A 
ATOM    131  F   UNL A   1      46.052  32.023  31.364  1.00  0.00    -0.203 F 
ATOM    132  F   UNL A   1      45.184  35.991  27.720  1.00  0.00    -0.200 F 
ATOM    133  C   UNL A   1      45.841  35.322  29.887  1.00  0.00     0.200 A 
ATOM    134  F   UNL A   1      46.494  34.604  32.040  1.00  0.00    -0.200 F 
ATOM    135  F   UNL A   1      46.076  36.597  30.226  1.00  0.00    -0.200 F 
ENDBRANCH 101 125
ENDBRANCH  66  69
ENDBRANCH  56  59
ENDBRANCH  52  55
ENDBRANCH  49  52
ENDBRANCH   1  49
TORSDOF 18
ENDMDL
MODEL 9
REMARK VINA RESULT:     -12.1      0.718      7.218
REMARK SMILES Cc1c(C)c2c(c(C)c1O)CC[C@@](C)(C(=O)NCCCCCCNC(=O)c1ccc(-c3c4nc(c(-c5c(F)c(F)c(F)c(F)c5F)c5ccc([nH]5)c(-c5c(F)c(F)c(F)c(F)c5F)c5nc(c(-c6c(F)c(F)c(F)c(F)c6F)c6ccc3[nH]6)C=C5)C=C4)cc1)O2
REMARK SMILES IDX 21 1 20 4 19 7 18 10 17 13 15 14 16 15 13 17 2 18 3 19 9 20
REMARK SMILES IDX 5 21 7 22 6 23 90 24 11 25 12 26 1 31 4 35 10 39 8 41 14 45
REMARK SMILES IDX 22 49 23 52 24 55 25 56 26 58 27 59 28 60 89 61 29 62 88 64
REMARK SMILES IDX 30 66 31 69 32 70 82 71 33 72 87 73 81 74 83 75 34 76 86 77
REMARK SMILES IDX 80 79 79 81 35 83 67 86 47 87 66 88 48 89 51 90 65 91 84 92
REMARK SMILES IDX 49 93 50 95 64 97 85 98 52 101 36 103 37 104 45 105 38 106
REMARK SMILES IDX 39 107 43 108 46 109 40 110 41 111 44 112 42 113 68 114
REMARK SMILES IDX 69 115 77 116 70 117 71 118 75 119 78 120 72 121 73 122
REMARK SMILES IDX 76 123 74 124 53 125 54 126 62 127 55 128 56 129 60 130
REMARK SMILES IDX 63 131 57 132 58 133 61 134 59 135
REMARK H PARENT 21 2 21 3 20 5 20 6 19 8 19 9 18 11 18 12 17 16 11 27 11 28
REMARK H PARENT 12 29 12 30 1 32 1 33 1 34 4 36 4 37 4 38 10 40 8 42 8 43 8 44
REMARK H PARENT 14 46 14 47 14 48 22 50 22 51 23 53 23 54 24 57 28 63 89 65
REMARK H PARENT 29 67 88 68 87 78 81 80 83 82 86 84 80 85 48 94 51 96 84 99
REMARK H PARENT 49 100 85 102
REMARK Flexibility Score: inf
ROOT
ATOM      1  C   UNL A   1      31.481  30.453  25.680  1.00  0.00    -0.052 C 
ATOM      2  H   UNL A   1      30.781  29.732  26.047  1.00  0.00     0.027 H 
ATOM      3  H   UNL A   1      31.312  30.727  24.659  1.00  0.00     0.027 H 
ENDROOT
BRANCH   1   4
ATOM      4  C   UNL A   1      32.879  29.827  25.731  1.00  0.00    -0.052 C 
ATOM      5  H   UNL A   1      33.590  30.613  25.884  1.00  0.00     0.027 H 
ATOM      6  H   UNL A   1      32.862  29.113  26.528  1.00  0.00     0.027 H 
BRANCH   4   7
ATOM      7  C   UNL A   1      33.282  29.059  24.470  1.00  0.00    -0.036 C 
ATOM      8  H   UNL A   1      33.758  29.741  23.797  1.00  0.00     0.028 H 
ATOM      9  H   UNL A   1      33.935  28.270  24.779  1.00  0.00     0.028 H 
BRANCH   7  10
ATOM     10  C   UNL A   1      32.104  28.410  23.748  1.00  0.00     0.017 C 
ATOM     11  H   UNL A   1      31.622  27.726  24.414  1.00  0.00     0.049 H 
ATOM     12  H   UNL A   1      31.430  29.182  23.442  1.00  0.00     0.049 H 
BRANCH  10  13
ATOM     13  N   UNL A   1      32.541  27.690  22.564  1.00  0.00    -0.353 N 
ATOM     14  C   UNL A   1      32.911  26.382  22.387  1.00  0.00     0.263 C 
ATOM     15  O   UNL A   1      33.278  26.064  21.252  1.00  0.00    -0.270 OA
ATOM     16  H   UNL A   1      32.580  28.238  21.747  1.00  0.00     0.163 HD
BRANCH  14  17
ATOM     17  C   UNL A   1      32.836  25.369  23.562  1.00  0.00     0.184 C 
ATOM     18  C   UNL A   1      32.830  20.650  24.481  1.00  0.00    -0.002 A 
ATOM     19  C   UNL A   1      32.719  21.717  23.557  1.00  0.00    -0.002 A 
ATOM     20  C   UNL A   1      33.232  20.932  25.802  1.00  0.00     0.122 A 
ATOM     21  C   UNL A   1      33.072  23.018  23.962  1.00  0.00     0.127 A 
ATOM     22  C   UNL A   1      33.601  22.223  26.207  1.00  0.00    -0.002 A 
ATOM     23  C   UNL A   1      33.554  23.267  25.263  1.00  0.00     0.001 A 
ATOM     24  O   UNL A   1      32.909  24.024  23.032  1.00  0.00    -0.477 OA
ATOM     25  C   UNL A   1      33.971  24.656  25.661  1.00  0.00    -0.019 C 
ATOM     26  C   UNL A   1      34.071  25.549  24.448  1.00  0.00     0.000 C 
ATOM     27  H   UNL A   1      34.924  24.612  26.146  1.00  0.00     0.032 H 
ATOM     28  H   UNL A   1      33.236  25.058  26.326  1.00  0.00     0.032 H 
ATOM     29  H   UNL A   1      34.948  25.292  23.890  1.00  0.00     0.032 H 
ATOM     30  H   UNL A   1      34.130  26.568  24.766  1.00  0.00     0.032 H 
BRANCH  18  31
ATOM     31  C   UNL A   1      32.462  19.247  24.068  1.00  0.00    -0.036 C 
ATOM     32  H   UNL A   1      32.904  19.028  23.118  1.00  0.00     0.028 H 
ATOM     33  H   UNL A   1      31.398  19.165  23.994  1.00  0.00     0.028 H 
ATOM     34  H   UNL A   1      32.824  18.553  24.798  1.00  0.00     0.028 H 
ENDBRANCH  18  31
BRANCH  19  35
ATOM     35  C   UNL A   1      32.226  21.469  22.151  1.00  0.00    -0.036 C 
ATOM     36  H   UNL A   1      31.903  20.454  22.060  1.00  0.00     0.028 H 
ATOM     37  H   UNL A   1      33.019  21.654  21.457  1.00  0.00     0.028 H 
ATOM     38  H   UNL A   1      31.407  22.125  21.939  1.00  0.00     0.028 H 
ENDBRANCH  19  35
BRANCH  20  39
ATOM     39  O   UNL A   1      33.278  19.953  26.761  1.00  0.00    -0.507 OA
ATOM     40  H   UNL A   1      32.617  19.916  27.423  1.00  0.00     0.293 HD
ENDBRANCH  20  39
BRANCH  22  41
ATOM     41  C   UNL A   1      34.028  22.506  27.626  1.00  0.00    -0.036 C 
ATOM     42  H   UNL A   1      34.105  23.564  27.771  1.00  0.00     0.028 H 
ATOM     43  H   UNL A   1      34.979  22.051  27.810  1.00  0.00     0.028 H 
ATOM     44  H   UNL A   1      33.304  22.106  28.303  1.00  0.00     0.028 H 
ENDBRANCH  22  41
BRANCH  17  45
ATOM     45  C   UNL A   1      31.438  25.515  24.201  1.00  0.00    -0.016 C 
ATOM     46  H   UNL A   1      31.255  26.543  24.429  1.00  0.00     0.028 H 
ATOM     47  H   UNL A   1      31.395  24.937  25.102  1.00  0.00     0.028 H 
ATOM     48  H   UNL A   1      30.694  25.163  23.518  1.00  0.00     0.028 H 
ENDBRANCH  17  45
ENDBRANCH  14  17
ENDBRANCH  10  13
ENDBRANCH   7  10
ENDBRANCH   4   7
ENDBRANCH   1   4
BRANCH   1  49
ATOM     49  C   UNL A   1      31.319  31.734  26.501  1.00  0.00    -0.036 C 
ATOM     50  H   UNL A   1      30.748  31.502  27.376  1.00  0.00     0.028 H 
ATOM     51  H   UNL A   1      30.834  32.447  25.867  1.00  0.00     0.028 H 
BRANCH  49  52
ATOM     52  C   UNL A   1      32.633  32.365  26.942  1.00  0.00     0.018 C 
ATOM     53  H   UNL A   1      33.325  32.329  26.126  1.00  0.00     0.049 H 
ATOM     54  H   UNL A   1      33.001  31.814  27.783  1.00  0.00     0.049 H 
BRANCH  52  55
ATOM     55  N   UNL A   1      32.460  33.749  27.351  1.00  0.00    -0.352 N 
ATOM     56  C   UNL A   1      33.078  34.439  28.360  1.00  0.00     0.251 C 
ATOM     57  H   UNL A   1      31.805  34.266  26.826  1.00  0.00     0.163 HD
ATOM     58  O   UNL A   1      32.663  35.540  28.710  1.00  0.00    -0.269 OA
BRANCH  56  59
ATOM     59  C   UNL A   1      34.242  33.840  29.042  1.00  0.00     0.039 A 
ATOM     60  C   UNL A   1      34.028  32.861  30.013  1.00  0.00    -0.049 A 
ATOM     61  C   UNL A   1      35.542  34.246  28.718  1.00  0.00    -0.049 A 
ATOM     62  C   UNL A   1      35.122  32.249  30.626  1.00  0.00    -0.053 A 
ATOM     63  H   UNL A   1      33.068  32.591  30.277  1.00  0.00     0.063 H 
ATOM     64  C   UNL A   1      36.630  33.580  29.270  1.00  0.00    -0.053 A 
ATOM     65  H   UNL A   1      35.690  35.037  28.073  1.00  0.00     0.063 H 
ATOM     66  C   UNL A   1      36.430  32.584  30.237  1.00  0.00    -0.014 A 
ATOM     67  H   UNL A   1      34.970  31.547  31.366  1.00  0.00     0.063 H 
ATOM     68  H   UNL A   1      37.586  33.819  28.967  1.00  0.00     0.063 H 
BRANCH  66  69
ATOM     69  C   UNL A   1      37.603  31.915  30.850  1.00  0.00     0.031 A 
ATOM     70  C   UNL A   1      38.051  32.298  32.231  1.00  0.00     0.074 A 
ATOM     71  C   UNL A   1      38.286  30.992  30.147  1.00  0.00     0.049 A 
ATOM     72  N   UNL A   1      39.064  31.849  32.926  1.00  0.00    -0.248 NA
ATOM     73  C   UNL A   1      37.271  33.344  32.911  1.00  0.00    -0.034 C 
ATOM     74  C   UNL A   1      37.967  30.565  28.785  1.00  0.00    -0.036 A 
ATOM     75  N   UNL A   1      39.389  30.248  30.482  1.00  0.00    -0.354 N 
ATOM     76  C   UNL A   1      39.042  32.557  34.120  1.00  0.00     0.074 A 
ATOM     77  C   UNL A   1      37.961  33.513  34.028  1.00  0.00    -0.034 C 
ATOM     78  H   UNL A   1      36.410  33.821  32.600  1.00  0.00     0.065 H 
ATOM     79  C   UNL A   1      38.831  29.608  28.413  1.00  0.00    -0.036 A 
ATOM     80  H   UNL A   1      37.201  30.940  28.204  1.00  0.00     0.065 H 
ATOM     81  C   UNL A   1      39.787  29.383  29.493  1.00  0.00     0.049 A 
ATOM     82  H   UNL A   1      39.851  30.326  31.348  1.00  0.00     0.167 HD
ATOM     83  C   UNL A   1      39.833  32.399  35.208  1.00  0.00     0.037 A 
ATOM     84  H   UNL A   1      37.756  34.233  34.739  1.00  0.00     0.065 H 
ATOM     85  H   UNL A   1      38.821  29.112  27.508  1.00  0.00     0.065 H 
ATOM     86  C   UNL A   1      40.809  28.505  29.462  1.00  0.00     0.037 A 
ATOM     87  C   UNL A   1      40.898  31.436  35.296  1.00  0.00     0.049 A 
ATOM     88  C   UNL A   1      41.699  28.372  30.667  1.00  0.00     0.074 A 
ATOM     89  C   UNL A   1      41.727  31.164  36.370  1.00  0.00    -0.036 A 
ATOM     90  N   UNL A   1      41.287  30.591  34.266  1.00  0.00    -0.354 N 
ATOM     91  N   UNL A   1      41.632  29.000  31.817  1.00  0.00    -0.248 NA
ATOM     92  C   UNL A   1      42.804  27.407  30.574  1.00  0.00    -0.034 C 
ATOM     93  C   UNL A   1      42.655  30.198  35.970  1.00  0.00    -0.036 A 
ATOM     94  H   UNL A   1      41.670  31.599  37.304  1.00  0.00     0.065 H 
ATOM     95  C   UNL A   1      42.367  29.821  34.667  1.00  0.00     0.049 A 
ATOM     96  H   UNL A   1      40.859  30.545  33.381  1.00  0.00     0.167 HD
ATOM     97  C   UNL A   1      42.669  28.496  32.589  1.00  0.00     0.074 A 
ATOM     98  C   UNL A   1      43.341  27.497  31.783  1.00  0.00    -0.034 C 
ATOM     99  H   UNL A   1      43.086  26.816  29.777  1.00  0.00     0.065 H 
ATOM    100  H   UNL A   1      43.426  29.828  36.548  1.00  0.00     0.065 H 
ATOM    101  C   UNL A   1      43.031  28.834  33.852  1.00  0.00     0.037 A 
ATOM    102  H   UNL A   1      44.138  26.928  32.109  1.00  0.00     0.065 H 
BRANCH  83 103
ATOM    103  C   UNL A   1      39.571  33.288  36.391  1.00  0.00     0.064 A 
ATOM    104  C   UNL A   1      38.704  32.902  37.424  1.00  0.00     0.173 A 
ATOM    105  C   UNL A   1      40.217  34.528  36.508  1.00  0.00     0.173 A 
ATOM    106  F   UNL A   1      38.051  31.731  37.356  1.00  0.00    -0.203 F 
ATOM    107  C   UNL A   1      38.468  33.737  38.513  1.00  0.00     0.198 A 
ATOM    108  C   UNL A   1      40.006  35.345  37.615  1.00  0.00     0.198 A 
ATOM    109  F   UNL A   1      41.060  34.946  35.551  1.00  0.00    -0.203 F 
ATOM    110  F   UNL A   1      37.592  33.369  39.459  1.00  0.00    -0.200 F 
ATOM    111  C   UNL A   1      39.125  34.953  38.612  1.00  0.00     0.200 A 
ATOM    112  F   UNL A   1      40.653  36.514  37.718  1.00  0.00    -0.200 F 
ATOM    113  F   UNL A   1      38.903  35.752  39.665  1.00  0.00    -0.200 F 
ENDBRANCH  83 103
BRANCH  86 114
ATOM    114  C   UNL A   1      41.002  27.657  28.257  1.00  0.00     0.064 A 
ATOM    115  C   UNL A   1      41.826  28.083  27.207  1.00  0.00     0.173 A 
ATOM    116  C   UNL A   1      40.422  26.384  28.158  1.00  0.00     0.173 A 
ATOM    117  F   UNL A   1      42.388  29.301  27.247  1.00  0.00    -0.203 F 
ATOM    118  C   UNL A   1      42.067  27.265  26.104  1.00  0.00     0.198 A 
ATOM    119  C   UNL A   1      40.685  25.557  27.068  1.00  0.00     0.198 A 
ATOM    120  F   UNL A   1      39.631  25.928  29.140  1.00  0.00    -0.203 F 
ATOM    121  F   UNL A   1      42.845  27.703  25.105  1.00  0.00    -0.200 F 
ATOM    122  C   UNL A   1      41.506  25.998  26.041  1.00  0.00     0.200 A 
ATOM    123  F   UNL A   1      40.156  24.327  27.021  1.00  0.00    -0.200 F 
ATOM    124  F   UNL A   1      41.759  25.203  24.993  1.00  0.00    -0.200 F 
ENDBRANCH  86 114
BRANCH 101 125
ATOM    125  C   UNL A   1      44.207  28.119  34.455  1.00  0.00     0.064 A 
ATOM    126  C   UNL A   1      45.498  28.665  34.410  1.00  0.00     0.173 A 
ATOM    127  C   UNL A   1      44.025  26.919  35.161  1.00  0.00     0.173 A 
ATOM    128  F   UNL A   1      45.726  29.803  33.739  1.00  0.00    -0.203 F 
ATOM    129  C   UNL A   1      46.566  28.029  35.039  1.00  0.00     0.198 A 
ATOM    130  C   UNL A   1      45.088  26.304  35.815  1.00  0.00     0.198 A 
ATOM    131  F   UNL A   1      42.808  26.359  35.242  1.00  0.00    -0.203 F 
ATOM    132  F   UNL A   1      47.797  28.551  34.954  1.00  0.00    -0.200 F 
ATOM    133  C   UNL A   1      46.358  26.857  35.750  1.00  0.00     0.200 A 
ATOM    134  F   UNL A   1      44.881  25.182  36.519  1.00  0.00    -0.200 F 
ATOM    135  F   UNL A   1      47.383  26.259  36.374  1.00  0.00    -0.200 F 
ENDBRANCH 101 125
ENDBRANCH  66  69
ENDBRANCH  56  59
ENDBRANCH  52  55
ENDBRANCH  49  52
ENDBRANCH   1  49
TORSDOF 18
ENDMDL
MODEL 10
REMARK VINA RESULT:     -12.1      5.264      9.688
REMARK SMILES Cc1c(C)c2c(c(C)c1O)CC[C@@](C)(C(=O)NCCCCCCNC(=O)c1ccc(-c3c4nc(c(-c5c(F)c(F)c(F)c(F)c5F)c5ccc([nH]5)c(-c5c(F)c(F)c(F)c(F)c5F)c5nc(c(-c6c(F)c(F)c(F)c(F)c6F)c6ccc3[nH]6)C=C5)C=C4)cc1)O2
REMARK SMILES IDX 21 1 20 4 19 7 18 10 17 13 15 14 16 15 13 17 2 18 3 19 9 20
REMARK SMILES IDX 5 21 7 22 6 23 90 24 11 25 12 26 1 31 4 35 10 39 8 41 14 45
REMARK SMILES IDX 22 49 23 52 24 55 25 56 26 58 27 59 28 60 89 61 29 62 88 64
REMARK SMILES IDX 30 66 31 69 32 70 82 71 33 72 87 73 81 74 83 75 34 76 86 77
REMARK SMILES IDX 80 79 79 81 35 83 67 86 47 87 66 88 48 89 51 90 65 91 84 92
REMARK SMILES IDX 49 93 50 95 64 97 85 98 52 101 36 103 37 104 45 105 38 106
REMARK SMILES IDX 39 107 43 108 46 109 40 110 41 111 44 112 42 113 68 114
REMARK SMILES IDX 69 115 77 116 70 117 71 118 75 119 78 120 72 121 73 122
REMARK SMILES IDX 76 123 74 124 53 125 54 126 62 127 55 128 56 129 60 130
REMARK SMILES IDX 63 131 57 132 58 133 61 134 59 135
REMARK H PARENT 21 2 21 3 20 5 20 6 19 8 19 9 18 11 18 12 17 16 11 27 11 28
REMARK H PARENT 12 29 12 30 1 32 1 33 1 34 4 36 4 37 4 38 10 40 8 42 8 43 8 44
REMARK H PARENT 14 46 14 47 14 48 22 50 22 51 23 53 23 54 24 57 28 63 89 65
REMARK H PARENT 29 67 88 68 87 78 81 80 83 82 86 84 80 85 48 94 51 96 84 99
REMARK H PARENT 49 100 85 102
REMARK Flexibility Score: inf
ROOT
ATOM      1  C   UNL A   1      36.545  19.940  25.019  1.00  0.00    -0.052 C 
ATOM      2  H   UNL A   1      35.969  19.552  24.205  1.00  0.00     0.027 H 
ATOM      3  H   UNL A   1      36.415  19.394  25.930  1.00  0.00     0.027 H 
ENDROOT
BRANCH   1   4
ATOM      4  C   UNL A   1      36.066  21.368  25.301  1.00  0.00    -0.052 C 
ATOM      5  H   UNL A   1      36.809  21.857  25.897  1.00  0.00     0.027 H 
ATOM      6  H   UNL A   1      35.918  21.832  24.348  1.00  0.00     0.027 H 
BRANCH   4   7
ATOM      7  C   UNL A   1      34.728  21.459  26.039  1.00  0.00    -0.036 C 
ATOM      8  H   UNL A   1      33.946  21.208  25.353  1.00  0.00     0.028 H 
ATOM      9  H   UNL A   1      34.779  20.781  26.865  1.00  0.00     0.028 H 
BRANCH   7  10
ATOM     10  C   UNL A   1      34.440  22.844  26.613  1.00  0.00     0.017 C 
ATOM     11  H   UNL A   1      35.086  23.016  27.448  1.00  0.00     0.049 H 
ATOM     12  H   UNL A   1      34.610  23.569  25.845  1.00  0.00     0.049 H 
BRANCH  10  13
ATOM     13  N   UNL A   1      33.060  22.959  27.052  1.00  0.00    -0.353 N 
ATOM     14  C   UNL A   1      32.060  23.817  26.675  1.00  0.00     0.263 C 
ATOM     15  O   UNL A   1      30.981  23.696  27.262  1.00  0.00    -0.270 OA
ATOM     16  H   UNL A   1      32.797  22.306  27.741  1.00  0.00     0.163 HD
BRANCH  14  17
ATOM     17  C   UNL A   1      32.290  24.859  25.546  1.00  0.00     0.184 C 
ATOM     18  C   UNL A   1      30.019  28.279  23.044  1.00  0.00    -0.002 A 
ATOM     19  C   UNL A   1      29.972  27.170  23.924  1.00  0.00    -0.002 A 
ATOM     20  C   UNL A   1      31.271  28.843  22.726  1.00  0.00     0.122 A 
ATOM     21  C   UNL A   1      31.165  26.700  24.503  1.00  0.00     0.127 A 
ATOM     22  C   UNL A   1      32.461  28.390  23.314  1.00  0.00    -0.002 A 
ATOM     23  C   UNL A   1      32.397  27.331  24.240  1.00  0.00     0.001 A 
ATOM     24  O   UNL A   1      31.065  25.594  25.323  1.00  0.00    -0.477 OA
ATOM     25  C   UNL A   1      33.654  26.843  24.907  1.00  0.00    -0.019 C 
ATOM     26  C   UNL A   1      33.324  25.883  26.024  1.00  0.00     0.000 C 
ATOM     27  H   UNL A   1      34.187  27.681  25.308  1.00  0.00     0.032 H 
ATOM     28  H   UNL A   1      34.254  26.336  24.181  1.00  0.00     0.032 H 
ATOM     29  H   UNL A   1      32.925  26.428  26.854  1.00  0.00     0.032 H 
ATOM     30  H   UNL A   1      34.214  25.371  26.322  1.00  0.00     0.032 H 
BRANCH  18  31
ATOM     31  C   UNL A   1      28.752  28.802  22.415  1.00  0.00    -0.036 C 
ATOM     32  H   UNL A   1      28.851  29.852  22.234  1.00  0.00     0.028 H 
ATOM     33  H   UNL A   1      27.929  28.630  23.074  1.00  0.00     0.028 H 
ATOM     34  H   UNL A   1      28.580  28.296  21.487  1.00  0.00     0.028 H 
ENDBRANCH  18  31
BRANCH  19  35
ATOM     35  C   UNL A   1      28.659  26.493  24.238  1.00  0.00    -0.036 C 
ATOM     36  H   UNL A   1      28.785  25.432  24.196  1.00  0.00     0.028 H 
ATOM     37  H   UNL A   1      27.922  26.794  23.523  1.00  0.00     0.028 H 
ATOM     38  H   UNL A   1      28.339  26.775  25.220  1.00  0.00     0.028 H 
ENDBRANCH  19  35
BRANCH  20  39
ATOM     39  O   UNL A   1      31.386  29.863  21.818  1.00  0.00    -0.507 OA
ATOM     40  H   UNL A   1      30.657  30.092  21.276  1.00  0.00     0.293 HD
ENDBRANCH  20  39
BRANCH  22  41
ATOM     41  C   UNL A   1      33.793  29.005  22.959  1.00  0.00    -0.036 C 
ATOM     42  H   UNL A   1      33.786  29.300  21.931  1.00  0.00     0.028 H 
ATOM     43  H   UNL A   1      34.570  28.287  23.119  1.00  0.00     0.028 H 
ATOM     44  H   UNL A   1      33.965  29.861  23.575  1.00  0.00     0.028 H 
ENDBRANCH  22  41
BRANCH  17  45
ATOM     45  C   UNL A   1      32.574  24.071  24.248  1.00  0.00    -0.016 C 
ATOM     46  H   UNL A   1      33.346  24.561  23.695  1.00  0.00     0.028 H 
ATOM     47  H   UNL A   1      31.684  24.027  23.656  1.00  0.00     0.028 H 
ATOM     48  H   UNL A   1      32.887  23.078  24.495  1.00  0.00     0.028 H 
ENDBRANCH  17  45
ENDBRANCH  14  17
ENDBRANCH  10  13
ENDBRANCH   7  10
ENDBRANCH   4   7
ENDBRANCH   1   4
BRANCH   1  49
ATOM     49  C   UNL A   1      38.026  19.819  24.653  1.00  0.00    -0.036 C 
ATOM     50  H   UNL A   1      38.224  20.477  23.833  1.00  0.00     0.028 H 
ATOM     51  H   UNL A   1      38.200  18.791  24.411  1.00  0.00     0.028 H 
BRANCH  49  52
ATOM     52  C   UNL A   1      38.981  20.167  25.788  1.00  0.00     0.018 C 
ATOM     53  H   UNL A   1      38.432  20.192  26.706  1.00  0.00     0.049 H 
ATOM     54  H   UNL A   1      39.417  21.121  25.574  1.00  0.00     0.049 H 
BRANCH  52  55
ATOM     55  N   UNL A   1      40.056  19.196  25.909  1.00  0.00    -0.352 N 
ATOM     56  C   UNL A   1      41.397  19.406  26.091  1.00  0.00     0.251 C 
ATOM     57  H   UNL A   1      39.780  18.252  25.854  1.00  0.00     0.163 HD
ATOM     58  O   UNL A   1      42.198  18.484  25.959  1.00  0.00    -0.269 OA
BRANCH  56  59
ATOM     59  C   UNL A   1      41.881  20.759  26.430  1.00  0.00     0.039 A 
ATOM     60  C   UNL A   1      42.228  21.632  25.398  1.00  0.00    -0.049 A 
ATOM     61  C   UNL A   1      41.989  21.160  27.766  1.00  0.00    -0.049 A 
ATOM     62  C   UNL A   1      42.635  22.931  25.705  1.00  0.00    -0.053 A 
ATOM     63  H   UNL A   1      42.183  21.320  24.416  1.00  0.00     0.063 H 
ATOM     64  C   UNL A   1      42.317  22.477  28.066  1.00  0.00    -0.053 A 
ATOM     65  H   UNL A   1      41.827  20.481  28.525  1.00  0.00     0.063 H 
ATOM     66  C   UNL A   1      42.654  23.371  27.039  1.00  0.00    -0.014 A 
ATOM     67  H   UNL A   1      42.921  23.571  24.949  1.00  0.00     0.063 H 
ATOM     68  H   UNL A   1      42.312  22.798  29.046  1.00  0.00     0.063 H 
BRANCH  66  69
ATOM     69  C   UNL A   1      43.047  24.760  27.378  1.00  0.00     0.031 A 
ATOM     70  C   UNL A   1      44.455  25.223  27.141  1.00  0.00     0.074 A 
ATOM     71  C   UNL A   1      42.145  25.589  27.937  1.00  0.00     0.049 A 
ATOM     72  N   UNL A   1      44.997  26.387  27.394  1.00  0.00    -0.248 NA
ATOM     73  C   UNL A   1      45.385  24.240  26.564  1.00  0.00    -0.034 C 
ATOM     74  C   UNL A   1      40.760  25.239  28.248  1.00  0.00    -0.036 A 
ATOM     75  N   UNL A   1      42.260  26.895  28.341  1.00  0.00    -0.354 N 
ATOM     76  C   UNL A   1      46.325  26.273  27.010  1.00  0.00     0.074 A 
ATOM     77  C   UNL A   1      46.527  24.909  26.573  1.00  0.00    -0.034 C 
ATOM     78  H   UNL A   1      45.196  23.279  26.237  1.00  0.00     0.065 H 
ATOM     79  C   UNL A   1      40.141  26.315  28.761  1.00  0.00    -0.036 A 
ATOM     80  H   UNL A   1      40.327  24.315  28.099  1.00  0.00     0.065 H 
ATOM     81  C   UNL A   1      41.097  27.416  28.851  1.00  0.00     0.049 A 
ATOM     82  H   UNL A   1      43.097  27.410  28.272  1.00  0.00     0.167 HD
ATOM     83  C   UNL A   1      47.283  27.231  26.992  1.00  0.00     0.037 A 
ATOM     84  H   UNL A   1      47.440  24.510  26.304  1.00  0.00     0.065 H 
ATOM     85  H   UNL A   1      39.151  26.357  29.046  1.00  0.00     0.065 H 
ATOM     86  C   UNL A   1      40.830  28.645  29.335  1.00  0.00     0.037 A 
ATOM     87  C   UNL A   1      47.071  28.589  27.417  1.00  0.00     0.049 A 
ATOM     88  C   UNL A   1      41.918  29.683  29.341  1.00  0.00     0.074 A 
ATOM     89  C   UNL A   1      47.961  29.647  27.395  1.00  0.00    -0.036 A 
ATOM     90  N   UNL A   1      45.884  29.075  27.948  1.00  0.00    -0.354 N 
ATOM     91  N   UNL A   1      43.155  29.586  28.917  1.00  0.00    -0.248 NA
ATOM     92  C   UNL A   1      41.574  31.002  29.891  1.00  0.00    -0.034 C 
ATOM     93  C   UNL A   1      47.334  30.757  27.967  1.00  0.00    -0.036 A 
ATOM     94  H   UNL A   1      48.923  29.621  27.020  1.00  0.00     0.065 H 
ATOM     95  C   UNL A   1      46.030  30.410  28.290  1.00  0.00     0.049 A 
ATOM     96  H   UNL A   1      45.060  28.549  28.065  1.00  0.00     0.167 HD
ATOM     97  C   UNL A   1      43.731  30.830  29.129  1.00  0.00     0.074 A 
ATOM     98  C   UNL A   1      42.703  31.673  29.705  1.00  0.00    -0.034 C 
ATOM     99  H   UNL A   1      40.687  31.322  30.310  1.00  0.00     0.065 H 
ATOM    100  H   UNL A   1      47.768  31.680  28.125  1.00  0.00     0.065 H 
ATOM    101  C   UNL A   1      45.000  31.236  28.869  1.00  0.00     0.037 A 
ATOM    102  H   UNL A   1      42.833  32.669  29.941  1.00  0.00     0.065 H 
BRANCH  83 103
ATOM    103  C   UNL A   1      48.646  26.839  26.495  1.00  0.00     0.064 A 
ATOM    104  C   UNL A   1      49.612  26.289  27.353  1.00  0.00     0.173 A 
ATOM    105  C   UNL A   1      48.982  26.988  25.142  1.00  0.00     0.173 A 
ATOM    106  F   UNL A   1      49.346  26.137  28.660  1.00  0.00    -0.203 F 
ATOM    107  C   UNL A   1      50.872  25.933  26.880  1.00  0.00     0.198 A 
ATOM    108  C   UNL A   1      50.231  26.598  24.666  1.00  0.00     0.198 A 
ATOM    109  F   UNL A   1      48.096  27.504  24.276  1.00  0.00    -0.203 F 
ATOM    110  F   UNL A   1      51.796  25.463  27.731  1.00  0.00    -0.200 F 
ATOM    111  C   UNL A   1      51.178  26.080  25.537  1.00  0.00     0.200 A 
ATOM    112  F   UNL A   1      50.520  26.726  23.364  1.00  0.00    -0.200 F 
ATOM    113  F   UNL A   1      52.388  25.729  25.082  1.00  0.00    -0.200 F 
ENDBRANCH  83 103
BRANCH  86 114
ATOM    114  C   UNL A   1      39.455  28.957  29.806  1.00  0.00     0.064 A 
ATOM    115  C   UNL A   1      39.083  28.721  31.136  1.00  0.00     0.173 A 
ATOM    116  C   UNL A   1      38.510  29.554  28.959  1.00  0.00     0.173 A 
ATOM    117  F   UNL A   1      39.946  28.135  31.979  1.00  0.00    -0.203 F 
ATOM    118  C   UNL A   1      37.819  29.074  31.603  1.00  0.00     0.198 A 
ATOM    119  C   UNL A   1      37.256  29.932  29.434  1.00  0.00     0.198 A 
ATOM    120  F   UNL A   1      38.820  29.807  27.679  1.00  0.00    -0.203 F 
ATOM    121  F   UNL A   1      37.482  28.821  32.875  1.00  0.00    -0.200 F 
ATOM    122  C   UNL A   1      36.911  29.690  30.755  1.00  0.00     0.200 A 
ATOM    123  F   UNL A   1      36.389  30.543  28.616  1.00  0.00    -0.200 F 
ATOM    124  F   UNL A   1      35.704  30.053  31.211  1.00  0.00    -0.200 F 
ENDBRANCH  86 114
BRANCH 101 125
ATOM    125  C   UNL A   1      45.359  32.656  29.200  1.00  0.00     0.064 A 
ATOM    126  C   UNL A   1      45.969  32.993  30.416  1.00  0.00     0.173 A 
ATOM    127  C   UNL A   1      45.170  33.677  28.254  1.00  0.00     0.173 A 
ATOM    128  F   UNL A   1      46.162  32.058  31.357  1.00  0.00    -0.203 F 
ATOM    129  C   UNL A   1      46.366  34.303  30.679  1.00  0.00     0.198 A 
ATOM    130  C   UNL A   1      45.597  34.977  28.507  1.00  0.00     0.198 A 
ATOM    131  F   UNL A   1      44.598  33.405  27.071  1.00  0.00    -0.203 F 
ATOM    132  F   UNL A   1      46.917  34.609  31.862  1.00  0.00    -0.200 F 
ATOM    133  C   UNL A   1      46.191  35.290  29.721  1.00  0.00     0.200 A 
ATOM    134  F   UNL A   1      45.445  35.925  27.572  1.00  0.00    -0.200 F 
ATOM    135  F   UNL A   1      46.595  36.544  29.966  1.00  0.00    -0.200 F 
ENDBRANCH 101 125
ENDBRANCH  66  69
ENDBRANCH  56  59
ENDBRANCH  52  55
ENDBRANCH  49  52
ENDBRANCH   1  49
TORSDOF 18
ENDMDL
