MODEL 1
REMARK VINA RESULT:     -10.6      0.000      0.000
REMARK SMILES CCCCCCNC(=O)Oc1cccc(-c2ccc([C@@H](C)C(=O)NCCCCCCNC(=O)c3ccc(-c4c5nc(c(-c6c(F)c(F)c(F)c(F)c6F)c6ccc([nH]6)c(-c6c(F)c(F)c(F)c(F)c6F)c6nc(c(-c7c(F)c(F)c(F)c(F)c7F)c7ccc4[nH]7)C=C6)C=C5)cc3)cc2[N+](=O)[O-])c1
REMARK SMILES IDX 22 1 23 2 24 3 20 5 19 7 16 8 17 9 98 10 18 11 97 13 15 16
REMARK SMILES IDX 11 17 12 18 102 19 13 20 14 23 10 26 8 27 7 28 9 30 6 31
REMARK SMILES IDX 5 34 4 37 3 40 2 43 1 46 99 50 100 51 101 52 21 53 25 57
REMARK SMILES IDX 26 60 27 63 28 66 29 69 30 72 31 75 32 76 33 78 34 79 35 80
REMARK SMILES IDX 96 81 36 82 95 84 37 86 38 89 39 90 89 91 40 92 94 93 88 94
REMARK SMILES IDX 90 95 41 96 93 97 87 99 86 101 42 103 74 106 54 107 73 108
REMARK SMILES IDX 55 109 58 110 72 111 91 112 56 113 57 115 71 117 92 118
REMARK SMILES IDX 59 121 43 123 44 124 52 125 45 126 46 127 50 128 53 129
REMARK SMILES IDX 47 130 48 131 51 132 49 133 75 134 76 135 84 136 77 137
REMARK SMILES IDX 78 138 82 139 85 140 79 141 80 142 83 143 81 144 60 145
REMARK SMILES IDX 61 146 69 147 62 148 63 149 67 150 70 151 64 152 65 153
REMARK SMILES IDX 68 154 66 155
REMARK H PARENT 24 4 20 6 17 12 18 14 97 15 12 21 102 22 13 24 14 25 7 29 6 32
REMARK H PARENT 6 33 5 35 5 36 4 38 4 39 3 41 3 42 2 44 2 45 1 47 1 48 1 49
REMARK H PARENT 21 54 21 55 21 56 25 58 25 59 26 61 26 62 27 64 27 65 28 67
REMARK H PARENT 28 68 29 70 29 71 30 73 30 74 31 77 35 83 96 85 36 87 95 88
REMARK H PARENT 94 98 88 100 90 102 93 104 87 105 55 114 58 116 91 119 56 120
REMARK H PARENT 92 122
REMARK Flexibility Score: inf
ROOT
ATOM      1  C   UNL A   1      32.117  30.378  26.334  1.00  0.00     0.227 C 
ATOM      2  O   UNL A   1      31.017  30.927  26.479  1.00  0.00    -0.274 OA
ATOM      3  N   UNL A   1      33.056  30.659  27.277  1.00  0.00    -0.356 N 
ATOM      4  H   UNL A   1      32.727  31.218  28.017  1.00  0.00     0.163 HD
ENDROOT
BRANCH   1   5
ATOM      5  C   UNL A   1      32.342  29.422  25.151  1.00  0.00     0.060 C 
ATOM      6  H   UNL A   1      33.289  29.706  24.743  1.00  0.00     0.045 H 
BRANCH   5   7
ATOM      7  C   UNL A   1      32.562  27.973  25.559  1.00  0.00    -0.029 A 
ATOM      8  C   UNL A   1      32.881  25.185  26.161  1.00  0.00     0.060 A 
ATOM      9  C   UNL A   1      33.979  26.024  25.898  1.00  0.00    -0.047 A 
ATOM     10  C   UNL A   1      31.616  25.802  26.200  1.00  0.00     0.277 A 
ATOM     11  C   UNL A   1      33.827  27.391  25.649  1.00  0.00    -0.057 A 
ATOM     12  H   UNL A   1      34.928  25.616  25.890  1.00  0.00     0.063 H 
ATOM     13  C   UNL A   1      31.457  27.161  25.858  1.00  0.00     0.021 A 
ATOM     14  H   UNL A   1      34.666  27.980  25.528  1.00  0.00     0.063 H 
ATOM     15  H   UNL A   1      30.509  27.567  25.828  1.00  0.00     0.070 H 
BRANCH   8  16
ATOM     16  C   UNL A   1      33.119  23.735  26.327  1.00  0.00    -0.008 A 
ATOM     17  C   UNL A   1      32.700  21.424  25.701  1.00  0.00     0.133 A 
ATOM     18  C   UNL A   1      33.613  20.967  26.647  1.00  0.00    -0.019 A 
ATOM     19  C   UNL A   1      32.459  22.787  25.525  1.00  0.00    -0.011 A 
ATOM     20  C   UNL A   1      34.299  21.890  27.428  1.00  0.00    -0.058 A 
ATOM     21  H   UNL A   1      33.779  19.955  26.767  1.00  0.00     0.066 H 
ATOM     22  H   UNL A   1      31.792  23.103  24.803  1.00  0.00     0.067 H 
ATOM     23  C   UNL A   1      34.044  23.257  27.277  1.00  0.00    -0.054 A 
ATOM     24  H   UNL A   1      34.995  21.567  28.118  1.00  0.00     0.062 H 
ATOM     25  H   UNL A   1      34.547  23.932  27.875  1.00  0.00     0.063 H 
BRANCH  17  26
ATOM     26  O   UNL A   1      31.920  20.449  25.055  1.00  0.00    -0.410 OA
BRANCH  26  27
ATOM     27  C   UNL A   1      32.506  19.626  24.106  1.00  0.00     0.412 C 
ATOM     28  N   UNL A   1      32.415  20.133  22.837  1.00  0.00    -0.321 N 
ATOM     29  H   UNL A   1      32.785  19.578  22.114  1.00  0.00     0.167 HD
ATOM     30  O   UNL A   1      33.051  18.552  24.324  1.00  0.00    -0.224 OA
BRANCH  28  31
ATOM     31  C   UNL A   1      31.829  21.401  22.451  1.00  0.00     0.021 C 
ATOM     32  H   UNL A   1      31.179  21.241  21.616  1.00  0.00     0.049 H 
ATOM     33  H   UNL A   1      31.291  21.786  23.293  1.00  0.00     0.049 H 
BRANCH  31  34
ATOM     34  C   UNL A   1      32.890  22.430  22.060  1.00  0.00    -0.036 C 
ATOM     35  H   UNL A   1      33.754  22.265  22.668  1.00  0.00     0.028 H 
ATOM     36  H   UNL A   1      33.073  22.289  21.015  1.00  0.00     0.028 H 
BRANCH  34  37
ATOM     37  C   UNL A   1      32.462  23.893  22.227  1.00  0.00    -0.052 C 
ATOM     38  H   UNL A   1      32.035  24.220  21.302  1.00  0.00     0.027 H 
ATOM     39  H   UNL A   1      31.775  23.907  23.048  1.00  0.00     0.027 H 
BRANCH  37  40
ATOM     40  C   UNL A   1      33.581  24.871  22.601  1.00  0.00    -0.054 C 
ATOM     41  H   UNL A   1      33.685  24.862  23.665  1.00  0.00     0.027 H 
ATOM     42  H   UNL A   1      34.454  24.533  22.080  1.00  0.00     0.027 H 
BRANCH  40  43
ATOM     43  C   UNL A   1      33.363  26.320  22.159  1.00  0.00    -0.056 C 
ATOM     44  H   UNL A   1      33.832  26.966  22.871  1.00  0.00     0.026 H 
ATOM     45  H   UNL A   1      33.787  26.421  21.182  1.00  0.00     0.026 H 
BRANCH  43  46
ATOM     46  C   UNL A   1      31.895  26.701  22.053  1.00  0.00    -0.065 C 
ATOM     47  H   UNL A   1      31.612  27.272  22.913  1.00  0.00     0.023 H 
ATOM     48  H   UNL A   1      31.299  25.814  22.003  1.00  0.00     0.023 H 
ATOM     49  H   UNL A   1      31.740  27.286  21.170  1.00  0.00     0.023 H 
ENDBRANCH  43  46
ENDBRANCH  40  43
ENDBRANCH  37  40
ENDBRANCH  34  37
ENDBRANCH  31  34
ENDBRANCH  28  31
ENDBRANCH  26  27
ENDBRANCH  17  26
ENDBRANCH   8  16
BRANCH  10  50
ATOM     50  N   UNL A   1      30.441  25.089  26.648  1.00  0.00     0.063 N 
ATOM     51  O   UNL A   1      30.545  24.065  27.290  1.00  0.00    -0.258 OA
ATOM     52  O   UNL A   1      29.181  25.466  26.246  1.00  0.00    -0.258 OA
ENDBRANCH  10  50
ENDBRANCH   5   7
BRANCH   5  53
ATOM     53  C   UNL A   1      31.385  29.641  23.980  1.00  0.00    -0.049 C 
ATOM     54  H   UNL A   1      30.704  28.817  23.918  1.00  0.00     0.024 H 
ATOM     55  H   UNL A   1      31.944  29.711  23.071  1.00  0.00     0.024 H 
ATOM     56  H   UNL A   1      30.835  30.547  24.133  1.00  0.00     0.024 H 
ENDBRANCH   5  53
ENDBRANCH   1   5
BRANCH   3  57
ATOM     57  C   UNL A   1      34.450  30.290  27.393  1.00  0.00     0.017 C 
ATOM     58  H   UNL A   1      34.830  30.057  26.419  1.00  0.00     0.049 H 
ATOM     59  H   UNL A   1      34.519  29.442  28.041  1.00  0.00     0.049 H 
BRANCH  57  60
ATOM     60  C   UNL A   1      35.287  31.422  27.995  1.00  0.00    -0.036 C 
ATOM     61  H   UNL A   1      35.560  32.094  27.208  1.00  0.00     0.028 H 
ATOM     62  H   UNL A   1      36.136  30.967  28.460  1.00  0.00     0.028 H 
BRANCH  60  63
ATOM     63  C   UNL A   1      34.559  32.221  29.081  1.00  0.00    -0.052 C 
ATOM     64  H   UNL A   1      34.971  31.943  30.028  1.00  0.00     0.027 H 
ATOM     65  H   UNL A   1      33.521  31.982  28.981  1.00  0.00     0.027 H 
BRANCH  63  66
ATOM     66  C   UNL A   1      34.661  33.746  28.946  1.00  0.00    -0.052 C 
ATOM     67  H   UNL A   1      35.149  33.962  28.019  1.00  0.00     0.027 H 
ATOM     68  H   UNL A   1      35.201  34.080  29.807  1.00  0.00     0.027 H 
BRANCH  66  69
ATOM     69  C   UNL A   1      33.328  34.502  28.966  1.00  0.00    -0.036 C 
ATOM     70  H   UNL A   1      32.655  33.973  29.608  1.00  0.00     0.028 H 
ATOM     71  H   UNL A   1      32.995  34.550  27.951  1.00  0.00     0.028 H 
BRANCH  69  72
ATOM     72  C   UNL A   1      33.419  35.945  29.457  1.00  0.00     0.018 C 
ATOM     73  H   UNL A   1      33.114  36.600  28.667  1.00  0.00     0.049 H 
ATOM     74  H   UNL A   1      34.433  36.134  29.744  1.00  0.00     0.049 H 
BRANCH  72  75
ATOM     75  N   UNL A   1      32.571  36.178  30.616  1.00  0.00    -0.352 N 
ATOM     76  C   UNL A   1      32.659  35.669  31.887  1.00  0.00     0.251 C 
ATOM     77  H   UNL A   1      31.819  36.794  30.464  1.00  0.00     0.163 HD
ATOM     78  O   UNL A   1      31.722  35.801  32.668  1.00  0.00    -0.269 OA
BRANCH  76  79
ATOM     79  C   UNL A   1      33.877  34.954  32.322  1.00  0.00     0.039 A 
ATOM     80  C   UNL A   1      33.756  33.651  32.814  1.00  0.00    -0.049 A 
ATOM     81  C   UNL A   1      35.128  35.576  32.287  1.00  0.00    -0.049 A 
ATOM     82  C   UNL A   1      34.895  32.953  33.221  1.00  0.00    -0.053 A 
ATOM     83  H   UNL A   1      32.826  33.206  32.878  1.00  0.00     0.063 H 
ATOM     84  C   UNL A   1      36.271  34.857  32.631  1.00  0.00    -0.053 A 
ATOM     85  H   UNL A   1      35.206  36.566  32.008  1.00  0.00     0.063 H 
ATOM     86  C   UNL A   1      36.164  33.540  33.106  1.00  0.00    -0.014 A 
ATOM     87  H   UNL A   1      34.803  32.001  33.607  1.00  0.00     0.063 H 
ATOM     88  H   UNL A   1      37.200  35.295  32.537  1.00  0.00     0.063 H 
BRANCH  86  89
ATOM     89  C   UNL A   1      37.393  32.793  33.474  1.00  0.00     0.031 A 
ATOM     90  C   UNL A   1      38.118  33.109  34.753  1.00  0.00     0.074 A 
ATOM     91  C   UNL A   1      37.897  31.883  32.620  1.00  0.00     0.049 A 
ATOM     92  N   UNL A   1      39.244  32.619  35.209  1.00  0.00    -0.248 NA
ATOM     93  C   UNL A   1      37.512  34.132  35.619  1.00  0.00    -0.034 C 
ATOM     94  C   UNL A   1      37.316  31.531  31.324  1.00  0.00    -0.036 A 
ATOM     95  N   UNL A   1      39.023  31.102  32.704  1.00  0.00    -0.354 N 
ATOM     96  C   UNL A   1      39.490  33.289  36.401  1.00  0.00     0.074 A 
ATOM     97  C   UNL A   1      38.422  34.249  36.575  1.00  0.00    -0.034 C 
ATOM     98  H   UNL A   1      36.614  34.627  35.510  1.00  0.00     0.065 H 
ATOM     99  C   UNL A   1      38.084  30.599  30.737  1.00  0.00    -0.036 A 
ATOM    100  H   UNL A   1      36.455  31.935  30.924  1.00  0.00     0.065 H 
ATOM    101  C   UNL A   1      39.226  30.311  31.601  1.00  0.00     0.049 A 
ATOM    102  H   UNL A   1      39.627  31.108  33.482  1.00  0.00     0.167 HD
ATOM    103  C   UNL A   1      40.506  33.104  37.278  1.00  0.00     0.037 A 
ATOM    104  H   UNL A   1      38.374  34.937  37.344  1.00  0.00     0.065 H 
ATOM    105  H   UNL A   1      37.898  30.156  29.824  1.00  0.00     0.065 H 
ATOM    106  C   UNL A   1      40.227  29.458  31.311  1.00  0.00     0.037 A 
ATOM    107  C   UNL A   1      41.548  32.125  37.116  1.00  0.00     0.049 A 
ATOM    108  C   UNL A   1      41.330  29.253  32.312  1.00  0.00     0.074 A 
ATOM    109  C   UNL A   1      42.571  31.801  37.989  1.00  0.00    -0.036 A 
ATOM    110  N   UNL A   1      41.702  31.314  36.001  1.00  0.00    -0.354 N 
ATOM    111  N   UNL A   1      41.509  29.831  33.475  1.00  0.00    -0.248 NA
ATOM    112  C   UNL A   1      42.366  28.271  31.966  1.00  0.00    -0.034 C 
ATOM    113  C   UNL A   1      43.372  30.827  37.382  1.00  0.00    -0.036 A 
ATOM    114  H   UNL A   1      42.720  32.208  38.926  1.00  0.00     0.065 H 
ATOM    115  C   UNL A   1      42.819  30.509  36.151  1.00  0.00     0.049 A 
ATOM    116  H   UNL A   1      41.105  31.310  35.218  1.00  0.00     0.167 HD
ATOM    117  C   UNL A   1      42.662  29.271  34.007  1.00  0.00     0.074 A 
ATOM    118  C   UNL A   1      43.132  28.293  33.047  1.00  0.00    -0.034 C 
ATOM    119  H   UNL A   1      42.470  27.709  31.105  1.00  0.00     0.065 H 
ATOM    120  H   UNL A   1      44.230  30.415  37.783  1.00  0.00     0.065 H 
ATOM    121  C   UNL A   1      43.276  29.542  35.185  1.00  0.00     0.037 A 
ATOM    122  H   UNL A   1      43.958  27.691  33.188  1.00  0.00     0.065 H 
BRANCH 103 123
ATOM    123  C   UNL A   1      40.540  33.984  38.495  1.00  0.00     0.064 A 
ATOM    124  C   UNL A   1      41.251  35.193  38.512  1.00  0.00     0.173 A 
ATOM    125  C   UNL A   1      39.827  33.626  39.650  1.00  0.00     0.173 A 
ATOM    126  F   UNL A   1      41.956  35.577  37.437  1.00  0.00    -0.203 F 
ATOM    127  C   UNL A   1      41.273  35.996  39.650  1.00  0.00     0.198 A 
ATOM    128  C   UNL A   1      39.827  34.446  40.775  1.00  0.00     0.198 A 
ATOM    129  F   UNL A   1      39.124  32.484  39.685  1.00  0.00    -0.203 F 
ATOM    130  F   UNL A   1      42.002  37.121  39.661  1.00  0.00    -0.200 F 
ATOM    131  C   UNL A   1      40.558  35.625  40.778  1.00  0.00     0.200 A 
ATOM    132  F   UNL A   1      39.124  34.093  41.860  1.00  0.00    -0.200 F 
ATOM    133  F   UNL A   1      40.577  36.400  41.871  1.00  0.00    -0.200 F 
ENDBRANCH 103 123
BRANCH 106 134
ATOM    134  C   UNL A   1      40.214  28.719  30.023  1.00  0.00     0.064 A 
ATOM    135  C   UNL A   1      39.588  27.470  29.914  1.00  0.00     0.173 A 
ATOM    136  C   UNL A   1      40.810  29.255  28.872  1.00  0.00     0.173 A 
ATOM    137  F   UNL A   1      39.021  26.910  30.993  1.00  0.00    -0.203 F 
ATOM    138  C   UNL A   1      39.572  26.777  28.706  1.00  0.00     0.198 A 
ATOM    139  C   UNL A   1      40.770  28.573  27.658  1.00  0.00     0.198 A 
ATOM    140  F   UNL A   1      41.415  30.450  28.923  1.00  0.00    -0.203 F 
ATOM    141  F   UNL A   1      38.998  25.568  28.637  1.00  0.00    -0.200 F 
ATOM    142  C   UNL A   1      40.156  27.332  27.577  1.00  0.00     0.200 A 
ATOM    143  F   UNL A   1      41.321  29.120  26.566  1.00  0.00    -0.200 F 
ATOM    144  F   UNL A   1      40.131  26.670  26.413  1.00  0.00    -0.200 F 
ENDBRANCH 106 134
BRANCH 121 145
ATOM    145  C   UNL A   1      44.513  28.757  35.511  1.00  0.00     0.064 A 
ATOM    146  C   UNL A   1      45.788  29.215  35.152  1.00  0.00     0.173 A 
ATOM    147  C   UNL A   1      44.422  27.553  36.227  1.00  0.00     0.173 A 
ATOM    148  F   UNL A   1      45.926  30.352  34.454  1.00  0.00    -0.203 F 
ATOM    149  C   UNL A   1      46.928  28.485  35.478  1.00  0.00     0.198 A 
ATOM    150  C   UNL A   1      45.565  26.840  36.576  1.00  0.00     0.198 A 
ATOM    151  F   UNL A   1      43.225  27.075  36.598  1.00  0.00    -0.203 F 
ATOM    152  F   UNL A   1      48.135  28.919  35.087  1.00  0.00    -0.200 F 
ATOM    153  C   UNL A   1      46.816  27.303  36.196  1.00  0.00     0.200 A 
ATOM    154  F   UNL A   1      45.457  25.705  37.279  1.00  0.00    -0.200 F 
ATOM    155  F   UNL A   1      47.915  26.606  36.515  1.00  0.00    -0.200 F 
ENDBRANCH 121 145
ENDBRANCH  86  89
ENDBRANCH  76  79
ENDBRANCH  72  75
ENDBRANCH  69  72
ENDBRANCH  66  69
ENDBRANCH  63  66
ENDBRANCH  60  63
ENDBRANCH  57  60
ENDBRANCH   3  57
TORSDOF 25
ENDMDL
MODEL 2
REMARK VINA RESULT:     -10.5      5.032     10.973
REMARK SMILES CCCCCCNC(=O)Oc1cccc(-c2ccc([C@@H](C)C(=O)NCCCCCCNC(=O)c3ccc(-c4c5nc(c(-c6c(F)c(F)c(F)c(F)c6F)c6ccc([nH]6)c(-c6c(F)c(F)c(F)c(F)c6F)c6nc(c(-c7c(F)c(F)c(F)c(F)c7F)c7ccc4[nH]7)C=C6)C=C5)cc3)cc2[N+](=O)[O-])c1
REMARK SMILES IDX 22 1 23 2 24 3 20 5 19 7 16 8 17 9 98 10 18 11 97 13 15 16
REMARK SMILES IDX 11 17 12 18 102 19 13 20 14 23 10 26 8 27 7 28 9 30 6 31
REMARK SMILES IDX 5 34 4 37 3 40 2 43 1 46 99 50 100 51 101 52 21 53 25 57
REMARK SMILES IDX 26 60 27 63 28 66 29 69 30 72 31 75 32 76 33 78 34 79 35 80
REMARK SMILES IDX 96 81 36 82 95 84 37 86 38 89 39 90 89 91 40 92 94 93 88 94
REMARK SMILES IDX 90 95 41 96 93 97 87 99 86 101 42 103 74 106 54 107 73 108
REMARK SMILES IDX 55 109 58 110 72 111 91 112 56 113 57 115 71 117 92 118
REMARK SMILES IDX 59 121 43 123 44 124 52 125 45 126 46 127 50 128 53 129
REMARK SMILES IDX 47 130 48 131 51 132 49 133 75 134 76 135 84 136 77 137
REMARK SMILES IDX 78 138 82 139 85 140 79 141 80 142 83 143 81 144 60 145
REMARK SMILES IDX 61 146 69 147 62 148 63 149 67 150 70 151 64 152 65 153
REMARK SMILES IDX 68 154 66 155
REMARK H PARENT 24 4 20 6 17 12 18 14 97 15 12 21 102 22 13 24 14 25 7 29 6 32
REMARK H PARENT 6 33 5 35 5 36 4 38 4 39 3 41 3 42 2 44 2 45 1 47 1 48 1 49
REMARK H PARENT 21 54 21 55 21 56 25 58 25 59 26 61 26 62 27 64 27 65 28 67
REMARK H PARENT 28 68 29 70 29 71 30 73 30 74 31 77 35 83 96 85 36 87 95 88
REMARK H PARENT 94 98 88 100 90 102 93 104 87 105 55 114 58 116 91 119 56 120
REMARK H PARENT 92 122
REMARK Flexibility Score: inf
ROOT
ATOM      1  C   UNL A   1      40.018  25.714  27.783  1.00  0.00     0.227 C 
ATOM      2  O   UNL A   1      39.110  24.948  27.436  1.00  0.00    -0.274 OA
ATOM      3  N   UNL A   1      41.133  25.127  28.295  1.00  0.00    -0.356 N 
ATOM      4  H   UNL A   1      41.120  24.144  28.263  1.00  0.00     0.163 HD
ENDROOT
BRANCH   1   5
ATOM      5  C   UNL A   1      39.850  27.231  27.599  1.00  0.00     0.060 C 
ATOM      6  H   UNL A   1      38.923  27.346  27.078  1.00  0.00     0.045 H 
BRANCH   5   7
ATOM      7  C   UNL A   1      39.613  27.990  28.896  1.00  0.00    -0.029 A 
ATOM      8  C   UNL A   1      39.055  29.552  31.238  1.00  0.00     0.060 A 
ATOM      9  C   UNL A   1      38.596  28.230  31.094  1.00  0.00    -0.047 A 
ATOM     10  C   UNL A   1      39.881  30.044  30.209  1.00  0.00     0.277 A 
ATOM     11  C   UNL A   1      38.904  27.455  29.973  1.00  0.00    -0.057 A 
ATOM     12  H   UNL A   1      38.012  27.820  31.841  1.00  0.00     0.063 H 
ATOM     13  C   UNL A   1      40.115  29.293  29.039  1.00  0.00     0.021 A 
ATOM     14  H   UNL A   1      38.603  26.468  29.940  1.00  0.00     0.063 H 
ATOM     15  H   UNL A   1      40.665  29.709  28.273  1.00  0.00     0.070 H 
BRANCH   8  16
ATOM     16  C   UNL A   1      38.610  30.334  32.412  1.00  0.00    -0.008 A 
ATOM     17  C   UNL A   1      37.069  31.881  33.479  1.00  0.00     0.133 A 
ATOM     18  C   UNL A   1      37.766  31.798  34.682  1.00  0.00    -0.019 A 
ATOM     19  C   UNL A   1      37.469  31.152  32.358  1.00  0.00    -0.011 A 
ATOM     20  C   UNL A   1      38.879  30.970  34.764  1.00  0.00    -0.058 A 
ATOM     21  H   UNL A   1      37.459  32.344  35.501  1.00  0.00     0.066 H 
ATOM     22  H   UNL A   1      36.924  31.215  31.483  1.00  0.00     0.067 H 
ATOM     23  C   UNL A   1      39.302  30.256  33.638  1.00  0.00    -0.054 A 
ATOM     24  H   UNL A   1      39.393  30.881  35.655  1.00  0.00     0.062 H 
ATOM     25  H   UNL A   1      40.141  29.658  33.706  1.00  0.00     0.063 H 
BRANCH  17  26
ATOM     26  O   UNL A   1      36.055  32.850  33.404  1.00  0.00    -0.410 OA
BRANCH  26  27
ATOM     27  C   UNL A   1      36.393  34.175  33.175  1.00  0.00     0.412 C 
ATOM     28  N   UNL A   1      36.166  34.563  31.881  1.00  0.00    -0.321 N 
ATOM     29  H   UNL A   1      36.416  35.486  31.648  1.00  0.00     0.167 HD
ATOM     30  O   UNL A   1      36.852  34.953  34.000  1.00  0.00    -0.224 OA
BRANCH  28  31
ATOM     31  C   UNL A   1      35.597  33.754  30.821  1.00  0.00     0.021 C 
ATOM     32  H   UNL A   1      35.517  32.743  31.164  1.00  0.00     0.049 H 
ATOM     33  H   UNL A   1      34.636  34.158  30.578  1.00  0.00     0.049 H 
BRANCH  31  34
ATOM     34  C   UNL A   1      36.452  33.780  29.554  1.00  0.00    -0.036 C 
ATOM     35  H   UNL A   1      36.323  34.732  29.085  1.00  0.00     0.028 H 
ATOM     36  H   UNL A   1      37.459  33.595  29.869  1.00  0.00     0.028 H 
BRANCH  34  37
ATOM     37  C   UNL A   1      36.117  32.692  28.527  1.00  0.00    -0.052 C 
ATOM     38  H   UNL A   1      35.096  32.407  28.670  1.00  0.00     0.027 H 
ATOM     39  H   UNL A   1      36.314  33.124  27.567  1.00  0.00     0.027 H 
BRANCH  37  40
ATOM     40  C   UNL A   1      36.976  31.425  28.602  1.00  0.00    -0.054 C 
ATOM     41  H   UNL A   1      37.463  31.300  27.658  1.00  0.00     0.027 H 
ATOM     42  H   UNL A   1      37.651  31.575  29.419  1.00  0.00     0.027 H 
BRANCH  40  43
ATOM     43  C   UNL A   1      36.215  30.134  28.916  1.00  0.00    -0.056 C 
ATOM     44  H   UNL A   1      36.908  29.418  29.306  1.00  0.00     0.026 H 
ATOM     45  H   UNL A   1      35.449  30.381  29.621  1.00  0.00     0.026 H 
BRANCH  43  46
ATOM     46  C   UNL A   1      35.530  29.530  27.701  1.00  0.00    -0.065 C 
ATOM     47  H   UNL A   1      35.388  28.481  27.856  1.00  0.00     0.023 H 
ATOM     48  H   UNL A   1      36.139  29.683  26.834  1.00  0.00     0.023 H 
ATOM     49  H   UNL A   1      34.579  30.001  27.555  1.00  0.00     0.023 H 
ENDBRANCH  43  46
ENDBRANCH  40  43
ENDBRANCH  37  40
ENDBRANCH  34  37
ENDBRANCH  31  34
ENDBRANCH  28  31
ENDBRANCH  26  27
ENDBRANCH  17  26
ENDBRANCH   8  16
BRANCH  10  50
ATOM     50  N   UNL A   1      40.570  31.310  30.333  1.00  0.00     0.063 N 
ATOM     51  O   UNL A   1      41.699  31.359  30.774  1.00  0.00    -0.258 OA
ATOM     52  O   UNL A   1      39.924  32.500  30.094  1.00  0.00    -0.258 OA
ENDBRANCH  10  50
ENDBRANCH   5   7
BRANCH   5  53
ATOM     53  C   UNL A   1      40.861  27.860  26.641  1.00  0.00    -0.049 C 
ATOM     54  H   UNL A   1      41.411  27.087  26.145  1.00  0.00     0.024 H 
ATOM     55  H   UNL A   1      41.535  28.482  27.192  1.00  0.00     0.024 H 
ATOM     56  H   UNL A   1      40.344  28.451  25.913  1.00  0.00     0.024 H 
ENDBRANCH   5  53
ENDBRANCH   1   5
BRANCH   3  57
ATOM     57  C   UNL A   1      42.336  25.681  28.878  1.00  0.00     0.017 C 
ATOM     58  H   UNL A   1      42.409  25.357  29.896  1.00  0.00     0.049 H 
ATOM     59  H   UNL A   1      42.276  26.747  28.821  1.00  0.00     0.049 H 
BRANCH  57  60
ATOM     60  C   UNL A   1      43.589  25.231  28.123  1.00  0.00    -0.036 C 
ATOM     61  H   UNL A   1      44.186  24.639  28.786  1.00  0.00     0.028 H 
ATOM     62  H   UNL A   1      44.092  26.118  27.799  1.00  0.00     0.028 H 
BRANCH  60  63
ATOM     63  C   UNL A   1      43.294  24.403  26.869  1.00  0.00    -0.052 C 
ATOM     64  H   UNL A   1      43.142  25.079  26.054  1.00  0.00     0.027 H 
ATOM     65  H   UNL A   1      42.432  23.812  27.098  1.00  0.00     0.027 H 
BRANCH  63  66
ATOM     66  C   UNL A   1      44.396  23.413  26.468  1.00  0.00    -0.052 C 
ATOM     67  H   UNL A   1      43.928  22.484  26.216  1.00  0.00     0.027 H 
ATOM     68  H   UNL A   1      45.055  23.352  27.308  1.00  0.00     0.027 H 
BRANCH  66  69
ATOM     69  C   UNL A   1      45.266  23.839  25.280  1.00  0.00    -0.036 C 
ATOM     70  H   UNL A   1      44.706  24.533  24.689  1.00  0.00     0.028 H 
ATOM     71  H   UNL A   1      45.518  22.942  24.755  1.00  0.00     0.028 H 
BRANCH  69  72
ATOM     72  C   UNL A   1      46.589  24.499  25.662  1.00  0.00     0.018 C 
ATOM     73  H   UNL A   1      47.329  23.739  25.802  1.00  0.00     0.049 H 
ATOM     74  H   UNL A   1      46.434  25.057  26.563  1.00  0.00     0.049 H 
BRANCH  72  75
ATOM     75  N   UNL A   1      47.050  25.421  24.635  1.00  0.00    -0.352 N 
ATOM     76  C   UNL A   1      46.892  26.781  24.538  1.00  0.00     0.251 C 
ATOM     77  H   UNL A   1      47.552  25.006  23.898  1.00  0.00     0.163 HD
ATOM     78  O   UNL A   1      47.153  27.356  23.486  1.00  0.00    -0.269 OA
BRANCH  76  79
ATOM     79  C   UNL A   1      46.401  27.560  25.694  1.00  0.00     0.039 A 
ATOM     80  C   UNL A   1      47.322  28.028  26.634  1.00  0.00    -0.049 A 
ATOM     81  C   UNL A   1      45.035  27.792  25.876  1.00  0.00    -0.049 A 
ATOM     82  C   UNL A   1      46.880  28.776  27.728  1.00  0.00    -0.053 A 
ATOM     83  H   UNL A   1      48.328  27.822  26.520  1.00  0.00     0.063 H 
ATOM     84  C   UNL A   1      44.601  28.592  26.931  1.00  0.00    -0.053 A 
ATOM     85  H   UNL A   1      44.347  27.372  25.231  1.00  0.00     0.063 H 
ATOM     86  C   UNL A   1      45.519  29.087  27.870  1.00  0.00    -0.014 A 
ATOM     87  H   UNL A   1      47.558  29.101  28.435  1.00  0.00     0.063 H 
ATOM     88  H   UNL A   1      43.598  28.820  27.024  1.00  0.00     0.063 H 
BRANCH  86  89
ATOM     89  C   UNL A   1      45.037  29.931  28.991  1.00  0.00     0.031 A 
ATOM     90  C   UNL A   1      44.667  29.306  30.307  1.00  0.00     0.074 A 
ATOM     91  C   UNL A   1      44.860  31.252  28.799  1.00  0.00     0.049 A 
ATOM     92  N   UNL A   1      44.158  29.865  31.376  1.00  0.00    -0.248 NA
ATOM     93  C   UNL A   1      44.869  27.854  30.427  1.00  0.00    -0.034 C 
ATOM     94  C   UNL A   1      45.129  31.965  27.550  1.00  0.00    -0.036 A 
ATOM     95  N   UNL A   1      44.394  32.226  29.646  1.00  0.00    -0.354 N 
ATOM     96  C   UNL A   1      43.960  28.832  32.284  1.00  0.00     0.074 A 
ATOM     97  C   UNL A   1      44.361  27.608  31.626  1.00  0.00    -0.034 C 
ATOM     98  H   UNL A   1      45.296  27.199  29.754  1.00  0.00     0.065 H 
ATOM     99  C   UNL A   1      44.831  33.264  27.714  1.00  0.00    -0.036 A 
ATOM    100  H   UNL A   1      45.488  31.538  26.682  1.00  0.00     0.065 H 
ATOM    101  C   UNL A   1      44.323  33.470  29.067  1.00  0.00     0.049 A 
ATOM    102  H   UNL A   1      44.137  32.051  30.580  1.00  0.00     0.167 HD
ATOM    103  C   UNL A   1      43.502  28.904  33.557  1.00  0.00     0.037 A 
ATOM    104  H   UNL A   1      44.265  26.666  32.036  1.00  0.00     0.065 H 
ATOM    105  H   UNL A   1      44.945  34.000  26.999  1.00  0.00     0.065 H 
ATOM    106  C   UNL A   1      43.885  34.641  29.566  1.00  0.00     0.037 A 
ATOM    107  C   UNL A   1      43.135  30.130  34.218  1.00  0.00     0.049 A 
ATOM    108  C   UNL A   1      43.404  34.698  30.989  1.00  0.00     0.074 A 
ATOM    109  C   UNL A   1      42.742  30.317  35.531  1.00  0.00    -0.036 A 
ATOM    110  N   UNL A   1      43.110  31.377  33.611  1.00  0.00    -0.354 N 
ATOM    111  N   UNL A   1      43.300  33.730  31.867  1.00  0.00    -0.248 NA
ATOM    112  C   UNL A   1      42.990  36.014  31.497  1.00  0.00    -0.034 C 
ATOM    113  C   UNL A   1      42.435  31.671  35.706  1.00  0.00    -0.036 A 
ATOM    114  H   UNL A   1      42.686  29.586  36.257  1.00  0.00     0.065 H 
ATOM    115  C   UNL A   1      42.683  32.335  34.515  1.00  0.00     0.049 A 
ATOM    116  H   UNL A   1      43.359  31.554  32.675  1.00  0.00     0.167 HD
ATOM    117  C   UNL A   1      42.828  34.319  33.032  1.00  0.00     0.074 A 
ATOM    118  C   UNL A   1      42.683  35.734  32.756  1.00  0.00    -0.034 C 
ATOM    119  H   UNL A   1      42.949  36.919  31.002  1.00  0.00     0.065 H 
ATOM    120  H   UNL A   1      42.083  32.103  36.576  1.00  0.00     0.065 H 
ATOM    121  C   UNL A   1      42.541  33.739  34.224  1.00  0.00     0.037 A 
ATOM    122  H   UNL A   1      42.380  36.433  33.450  1.00  0.00     0.065 H 
BRANCH 103 123
ATOM    123  C   UNL A   1      43.371  27.618  34.321  1.00  0.00     0.064 A 
ATOM    124  C   UNL A   1      44.467  27.025  34.964  1.00  0.00     0.173 A 
ATOM    125  C   UNL A   1      42.123  26.984  34.434  1.00  0.00     0.173 A 
ATOM    126  F   UNL A   1      45.684  27.586  34.878  1.00  0.00    -0.203 F 
ATOM    127  C   UNL A   1      44.328  25.831  35.666  1.00  0.00     0.198 A 
ATOM    128  C   UNL A   1      41.982  25.806  35.162  1.00  0.00     0.198 A 
ATOM    129  F   UNL A   1      41.040  27.512  33.845  1.00  0.00    -0.203 F 
ATOM    130  F   UNL A   1      45.401  25.257  36.228  1.00  0.00    -0.200 F 
ATOM    131  C   UNL A   1      43.085  25.225  35.770  1.00  0.00     0.200 A 
ATOM    132  F   UNL A   1      40.777  25.229  35.273  1.00  0.00    -0.200 F 
ATOM    133  F   UNL A   1      42.951  24.078  36.449  1.00  0.00    -0.200 F 
ENDBRANCH 103 123
BRANCH 106 134
ATOM    134  C   UNL A   1      43.905  35.856  28.714  1.00  0.00     0.064 A 
ATOM    135  C   UNL A   1      45.071  36.620  28.573  1.00  0.00     0.173 A 
ATOM    136  C   UNL A   1      42.765  36.268  28.009  1.00  0.00     0.173 A 
ATOM    137  F   UNL A   1      46.181  36.276  29.243  1.00  0.00    -0.203 F 
ATOM    138  C   UNL A   1      45.093  37.759  27.772  1.00  0.00     0.198 A 
ATOM    139  C   UNL A   1      42.795  37.392  27.187  1.00  0.00     0.198 A 
ATOM    140  F   UNL A   1      41.625  35.567  28.105  1.00  0.00    -0.203 F 
ATOM    141  F   UNL A   1      46.211  38.492  27.683  1.00  0.00    -0.200 F 
ATOM    142  C   UNL A   1      43.956  38.141  27.073  1.00  0.00     0.200 A 
ATOM    143  F   UNL A   1      41.700  37.748  26.501  1.00  0.00    -0.200 F 
ATOM    144  F   UNL A   1      43.981  39.230  26.294  1.00  0.00    -0.200 F 
ENDBRANCH 106 134
BRANCH 121 145
ATOM    145  C   UNL A   1      42.059  34.637  35.325  1.00  0.00     0.064 A 
ATOM    146  C   UNL A   1      42.955  35.305  36.172  1.00  0.00     0.173 A 
ATOM    147  C   UNL A   1      40.686  34.865  35.507  1.00  0.00     0.173 A 
ATOM    148  F   UNL A   1      44.276  35.108  36.049  1.00  0.00    -0.203 F 
ATOM    149  C   UNL A   1      42.493  36.151  37.178  1.00  0.00     0.198 A 
ATOM    150  C   UNL A   1      40.229  35.733  36.495  1.00  0.00     0.198 A 
ATOM    151  F   UNL A   1      39.789  34.254  34.718  1.00  0.00    -0.203 F 
ATOM    152  F   UNL A   1      43.365  36.744  38.005  1.00  0.00    -0.200 F 
ATOM    153  C   UNL A   1      41.131  36.369  37.333  1.00  0.00     0.200 A 
ATOM    154  F   UNL A   1      38.915  35.952  36.636  1.00  0.00    -0.200 F 
ATOM    155  F   UNL A   1      40.690  37.189  38.296  1.00  0.00    -0.200 F 
ENDBRANCH 121 145
ENDBRANCH  86  89
ENDBRANCH  76  79
ENDBRANCH  72  75
ENDBRANCH  69  72
ENDBRANCH  66  69
ENDBRANCH  63  66
ENDBRANCH  60  63
ENDBRANCH  57  60
ENDBRANCH   3  57
TORSDOF 25
ENDMDL
MODEL 3
REMARK VINA RESULT:     -10.5      4.643      9.880
REMARK SMILES CCCCCCNC(=O)Oc1cccc(-c2ccc([C@@H](C)C(=O)NCCCCCCNC(=O)c3ccc(-c4c5nc(c(-c6c(F)c(F)c(F)c(F)c6F)c6ccc([nH]6)c(-c6c(F)c(F)c(F)c(F)c6F)c6nc(c(-c7c(F)c(F)c(F)c(F)c7F)c7ccc4[nH]7)C=C6)C=C5)cc3)cc2[N+](=O)[O-])c1
REMARK SMILES IDX 22 1 23 2 24 3 20 5 19 7 16 8 17 9 98 10 18 11 97 13 15 16
REMARK SMILES IDX 11 17 12 18 102 19 13 20 14 23 10 26 8 27 7 28 9 30 6 31
REMARK SMILES IDX 5 34 4 37 3 40 2 43 1 46 99 50 100 51 101 52 21 53 25 57
REMARK SMILES IDX 26 60 27 63 28 66 29 69 30 72 31 75 32 76 33 78 34 79 35 80
REMARK SMILES IDX 96 81 36 82 95 84 37 86 38 89 39 90 89 91 40 92 94 93 88 94
REMARK SMILES IDX 90 95 41 96 93 97 87 99 86 101 42 103 74 106 54 107 73 108
REMARK SMILES IDX 55 109 58 110 72 111 91 112 56 113 57 115 71 117 92 118
REMARK SMILES IDX 59 121 43 123 44 124 52 125 45 126 46 127 50 128 53 129
REMARK SMILES IDX 47 130 48 131 51 132 49 133 75 134 76 135 84 136 77 137
REMARK SMILES IDX 78 138 82 139 85 140 79 141 80 142 83 143 81 144 60 145
REMARK SMILES IDX 61 146 69 147 62 148 63 149 67 150 70 151 64 152 65 153
REMARK SMILES IDX 68 154 66 155
REMARK H PARENT 24 4 20 6 17 12 18 14 97 15 12 21 102 22 13 24 14 25 7 29 6 32
REMARK H PARENT 6 33 5 35 5 36 4 38 4 39 3 41 3 42 2 44 2 45 1 47 1 48 1 49
REMARK H PARENT 21 54 21 55 21 56 25 58 25 59 26 61 26 62 27 64 27 65 28 67
REMARK H PARENT 28 68 29 70 29 71 30 73 30 74 31 77 35 83 96 85 36 87 95 88
REMARK H PARENT 94 98 88 100 90 102 93 104 87 105 55 114 58 116 91 119 56 120
REMARK H PARENT 92 122
REMARK Flexibility Score: inf
ROOT
ATOM      1  C   UNL A   1      33.081  18.433  24.994  1.00  0.00     0.227 C 
ATOM      2  O   UNL A   1      32.498  17.660  25.765  1.00  0.00    -0.274 OA
ATOM      3  N   UNL A   1      34.404  18.637  25.237  1.00  0.00    -0.356 N 
ATOM      4  H   UNL A   1      34.769  18.081  25.963  1.00  0.00     0.163 HD
ENDROOT
BRANCH   1   5
ATOM      5  C   UNL A   1      32.309  19.079  23.832  1.00  0.00     0.060 C 
ATOM      6  H   UNL A   1      31.360  18.586  23.821  1.00  0.00     0.045 H 
BRANCH   5   7
ATOM      7  C   UNL A   1      31.939  20.535  24.068  1.00  0.00    -0.029 A 
ATOM      8  C   UNL A   1      31.421  23.307  24.603  1.00  0.00     0.060 A 
ATOM      9  C   UNL A   1      31.546  22.809  23.294  1.00  0.00    -0.047 A 
ATOM     10  C   UNL A   1      31.476  22.359  25.642  1.00  0.00     0.277 A 
ATOM     11  C   UNL A   1      31.754  21.452  23.031  1.00  0.00    -0.057 A 
ATOM     12  H   UNL A   1      31.480  23.467  22.501  1.00  0.00     0.063 H 
ATOM     13  C   UNL A   1      31.778  21.006  25.380  1.00  0.00     0.021 A 
ATOM     14  H   UNL A   1      31.772  21.121  22.054  1.00  0.00     0.063 H 
ATOM     15  H   UNL A   1      31.881  20.349  26.169  1.00  0.00     0.070 H 
BRANCH   8  16
ATOM     16  C   UNL A   1      31.290  24.767  24.798  1.00  0.00    -0.008 A 
ATOM     17  C   UNL A   1      32.121  26.882  25.661  1.00  0.00     0.133 A 
ATOM     18  C   UNL A   1      31.029  27.565  25.132  1.00  0.00    -0.019 A 
ATOM     19  C   UNL A   1      32.267  25.504  25.490  1.00  0.00    -0.011 A 
ATOM     20  C   UNL A   1      30.069  26.858  24.418  1.00  0.00    -0.058 A 
ATOM     21  H   UNL A   1      30.934  28.583  25.269  1.00  0.00     0.066 H 
ATOM     22  H   UNL A   1      33.095  25.023  25.874  1.00  0.00     0.067 H 
ATOM     23  C   UNL A   1      30.193  25.474  24.264  1.00  0.00    -0.054 A 
ATOM     24  H   UNL A   1      29.265  27.354  24.002  1.00  0.00     0.062 H 
ATOM     25  H   UNL A   1      29.464  24.957  23.747  1.00  0.00     0.063 H 
BRANCH  17  26
ATOM     26  O   UNL A   1      32.973  27.612  26.507  1.00  0.00    -0.410 OA
BRANCH  26  27
ATOM     27  C   UNL A   1      32.981  28.997  26.437  1.00  0.00     0.412 C 
ATOM     28  N   UNL A   1      33.667  29.467  25.349  1.00  0.00    -0.321 N 
ATOM     29  H   UNL A   1      33.735  30.445  25.260  1.00  0.00     0.167 HD
ATOM     30  O   UNL A   1      32.454  29.760  27.235  1.00  0.00    -0.224 OA
BRANCH  28  31
ATOM     31  C   UNL A   1      34.303  28.674  24.316  1.00  0.00     0.021 C 
ATOM     32  H   UNL A   1      35.337  28.943  24.262  1.00  0.00     0.049 H 
ATOM     33  H   UNL A   1      34.184  27.641  24.574  1.00  0.00     0.049 H 
BRANCH  31  34
ATOM     34  C   UNL A   1      33.662  28.893  22.945  1.00  0.00    -0.036 C 
ATOM     35  H   UNL A   1      32.602  28.946  23.078  1.00  0.00     0.028 H 
ATOM     36  H   UNL A   1      34.087  29.795  22.558  1.00  0.00     0.028 H 
BRANCH  34  37
ATOM     37  C   UNL A   1      33.959  27.800  21.912  1.00  0.00    -0.052 C 
ATOM     38  H   UNL A   1      33.581  28.128  20.967  1.00  0.00     0.027 H 
ATOM     39  H   UNL A   1      35.021  27.661  21.928  1.00  0.00     0.027 H 
BRANCH  37  40
ATOM     40  C   UNL A   1      33.352  26.425  22.211  1.00  0.00    -0.054 C 
ATOM     41  H   UNL A   1      34.114  25.689  22.066  1.00  0.00     0.027 H 
ATOM     42  H   UNL A   1      32.988  26.476  23.216  1.00  0.00     0.027 H 
BRANCH  40  43
ATOM     43  C   UNL A   1      32.149  26.036  21.348  1.00  0.00    -0.056 C 
ATOM     44  H   UNL A   1      31.568  25.313  21.881  1.00  0.00     0.026 H 
ATOM     45  H   UNL A   1      31.598  26.931  21.150  1.00  0.00     0.026 H 
BRANCH  43  46
ATOM     46  C   UNL A   1      32.541  25.444  20.003  1.00  0.00    -0.065 C 
ATOM     47  H   UNL A   1      33.563  25.128  20.037  1.00  0.00     0.023 H 
ATOM     48  H   UNL A   1      32.422  26.183  19.239  1.00  0.00     0.023 H 
ATOM     49  H   UNL A   1      31.915  24.603  19.786  1.00  0.00     0.023 H 
ENDBRANCH  43  46
ENDBRANCH  40  43
ENDBRANCH  37  40
ENDBRANCH  34  37
ENDBRANCH  31  34
ENDBRANCH  28  31
ENDBRANCH  26  27
ENDBRANCH  17  26
ENDBRANCH   8  16
BRANCH  10  50
ATOM     50  N   UNL A   1      31.169  22.716  27.009  1.00  0.00     0.063 N 
ATOM     51  O   UNL A   1      32.030  22.692  27.864  1.00  0.00    -0.258 OA
ATOM     52  O   UNL A   1      29.875  22.954  27.411  1.00  0.00    -0.258 OA
ENDBRANCH  10  50
ENDBRANCH   5   7
BRANCH   5  53
ATOM     53  C   UNL A   1      32.877  18.757  22.450  1.00  0.00    -0.049 C 
ATOM     54  H   UNL A   1      33.559  19.528  22.156  1.00  0.00     0.024 H 
ATOM     55  H   UNL A   1      32.078  18.697  21.741  1.00  0.00     0.024 H 
ATOM     56  H   UNL A   1      33.394  17.819  22.486  1.00  0.00     0.024 H 
ENDBRANCH   5  53
ENDBRANCH   1   5
BRANCH   3  57
ATOM     57  C   UNL A   1      35.375  19.518  24.626  1.00  0.00     0.017 C 
ATOM     58  H   UNL A   1      35.144  19.620  23.585  1.00  0.00     0.049 H 
ATOM     59  H   UNL A   1      36.346  19.092  24.761  1.00  0.00     0.049 H 
BRANCH  57  60
ATOM     60  C   UNL A   1      35.366  20.905  25.274  1.00  0.00    -0.036 C 
ATOM     61  H   UNL A   1      36.306  21.053  25.764  1.00  0.00     0.028 H 
ATOM     62  H   UNL A   1      34.541  20.925  25.955  1.00  0.00     0.028 H 
BRANCH  60  63
ATOM     63  C   UNL A   1      35.152  22.052  24.282  1.00  0.00    -0.052 C 
ATOM     64  H   UNL A   1      34.221  21.887  23.781  1.00  0.00     0.027 H 
ATOM     65  H   UNL A   1      35.997  22.040  23.626  1.00  0.00     0.027 H 
BRANCH  63  66
ATOM     66  C   UNL A   1      35.114  23.454  24.905  1.00  0.00    -0.052 C 
ATOM     67  H   UNL A   1      34.199  23.546  25.452  1.00  0.00     0.027 H 
ATOM     68  H   UNL A   1      35.202  24.140  24.089  1.00  0.00     0.027 H 
BRANCH  66  69
ATOM     69  C   UNL A   1      36.268  23.785  25.858  1.00  0.00    -0.036 C 
ATOM     70  H   UNL A   1      36.230  23.099  26.678  1.00  0.00     0.028 H 
ATOM     71  H   UNL A   1      36.133  24.804  26.152  1.00  0.00     0.028 H 
BRANCH  69  72
ATOM     72  C   UNL A   1      37.658  23.700  25.232  1.00  0.00     0.018 C 
ATOM     73  H   UNL A   1      38.158  24.636  25.368  1.00  0.00     0.049 H 
ATOM     74  H   UNL A   1      37.541  23.473  24.192  1.00  0.00     0.049 H 
BRANCH  72  75
ATOM     75  N   UNL A   1      38.461  22.647  25.835  1.00  0.00    -0.352 N 
ATOM     76  C   UNL A   1      39.644  22.727  26.526  1.00  0.00     0.251 C 
ATOM     77  H   UNL A   1      38.101  21.737  25.730  1.00  0.00     0.163 HD
ATOM     78  O   UNL A   1      40.289  21.711  26.761  1.00  0.00    -0.269 OA
BRANCH  76  79
ATOM     79  C   UNL A   1      40.152  24.037  26.984  1.00  0.00     0.039 A 
ATOM     80  C   UNL A   1      40.350  25.052  26.043  1.00  0.00    -0.049 A 
ATOM     81  C   UNL A   1      40.474  24.255  28.327  1.00  0.00    -0.049 A 
ATOM     82  C   UNL A   1      40.819  26.301  26.456  1.00  0.00    -0.053 A 
ATOM     83  H   UNL A   1      40.150  24.878  25.045  1.00  0.00     0.063 H 
ATOM     84  C   UNL A   1      40.879  25.519  28.748  1.00  0.00    -0.053 A 
ATOM     85  H   UNL A   1      40.412  23.480  29.006  1.00  0.00     0.063 H 
ATOM     86  C   UNL A   1      41.061  26.553  27.815  1.00  0.00    -0.014 A 
ATOM     87  H   UNL A   1      40.988  27.042  25.758  1.00  0.00     0.063 H 
ATOM     88  H   UNL A   1      41.049  25.697  29.750  1.00  0.00     0.063 H 
BRANCH  86  89
ATOM     89  C   UNL A   1      41.501  27.892  28.283  1.00  0.00     0.031 A 
ATOM     90  C   UNL A   1      42.964  28.231  28.344  1.00  0.00     0.074 A 
ATOM     91  C   UNL A   1      40.584  28.775  28.723  1.00  0.00     0.049 A 
ATOM     92  N   UNL A   1      43.544  29.315  28.792  1.00  0.00    -0.248 NA
ATOM     93  C   UNL A   1      43.899  27.202  27.865  1.00  0.00    -0.034 C 
ATOM     94  C   UNL A   1      39.141  28.540  28.767  1.00  0.00    -0.036 A 
ATOM     95  N   UNL A   1      40.733  30.039  29.236  1.00  0.00    -0.354 N 
ATOM     96  C   UNL A   1      44.909  29.090  28.669  1.00  0.00     0.074 A 
ATOM     97  C   UNL A   1      45.072  27.752  28.146  1.00  0.00    -0.034 C 
ATOM     98  H   UNL A   1      43.696  26.292  27.424  1.00  0.00     0.065 H 
ATOM     99  C   UNL A   1      38.535  29.627  29.271  1.00  0.00    -0.036 A 
ATOM    100  H   UNL A   1      38.664  27.677  28.460  1.00  0.00     0.065 H 
ATOM    101  C   UNL A   1      39.548  30.621  29.614  1.00  0.00     0.049 A 
ATOM    102  H   UNL A   1      41.605  30.486  29.324  1.00  0.00     0.167 HD
ATOM    103  C   UNL A   1      45.932  29.933  28.949  1.00  0.00     0.037 A 
ATOM    104  H   UNL A   1      45.983  27.284  28.010  1.00  0.00     0.065 H 
ATOM    105  H   UNL A   1      37.517  29.742  29.396  1.00  0.00     0.065 H 
ATOM    106  C   UNL A   1      39.306  31.816  30.185  1.00  0.00     0.037 A 
ATOM    107  C   UNL A   1      45.764  31.277  29.438  1.00  0.00     0.049 A 
ATOM    108  C   UNL A   1      40.456  32.743  30.464  1.00  0.00     0.074 A 
ATOM    109  C   UNL A   1      46.731  32.238  29.671  1.00  0.00    -0.036 A 
ATOM    110  N   UNL A   1      44.545  31.847  29.776  1.00  0.00    -0.354 N 
ATOM    111  N   UNL A   1      41.738  32.553  30.266  1.00  0.00    -0.248 NA
ATOM    112  C   UNL A   1      40.127  34.055  31.037  1.00  0.00    -0.034 C 
ATOM    113  C   UNL A   1      46.103  33.374  30.193  1.00  0.00    -0.036 A 
ATOM    114  H   UNL A   1      47.742  32.136  29.491  1.00  0.00     0.065 H 
ATOM    115  C   UNL A   1      44.738  33.137  30.240  1.00  0.00     0.049 A 
ATOM    116  H   UNL A   1      43.671  31.399  29.697  1.00  0.00     0.167 HD
ATOM    117  C   UNL A   1      42.365  33.723  30.669  1.00  0.00     0.074 A 
ATOM    118  C   UNL A   1      41.321  34.627  31.108  1.00  0.00    -0.034 C 
ATOM    119  H   UNL A   1      39.206  34.434  31.312  1.00  0.00     0.065 H 
ATOM    120  H   UNL A   1      46.576  34.242  30.493  1.00  0.00     0.065 H 
ATOM    121  C   UNL A   1      43.688  34.023  30.676  1.00  0.00     0.037 A 
ATOM    122  H   UNL A   1      41.486  35.591  31.434  1.00  0.00     0.065 H 
BRANCH 103 123
ATOM    123  C   UNL A   1      47.329  29.425  28.735  1.00  0.00     0.064 A 
ATOM    124  C   UNL A   1      48.025  28.732  29.737  1.00  0.00     0.173 A 
ATOM    125  C   UNL A   1      47.969  29.607  27.499  1.00  0.00     0.173 A 
ATOM    126  F   UNL A   1      47.462  28.539  30.940  1.00  0.00    -0.203 F 
ATOM    127  C   UNL A   1      49.320  28.269  29.522  1.00  0.00     0.198 A 
ATOM    128  C   UNL A   1      49.253  29.116  27.278  1.00  0.00     0.198 A 
ATOM    129  F   UNL A   1      47.346  30.256  26.504  1.00  0.00    -0.203 F 
ATOM    130  F   UNL A   1      49.985  27.656  30.512  1.00  0.00    -0.200 F 
ATOM    131  C   UNL A   1      49.931  28.456  28.292  1.00  0.00     0.200 A 
ATOM    132  F   UNL A   1      49.837  29.286  26.083  1.00  0.00    -0.200 F 
ATOM    133  F   UNL A   1      51.176  28.006  28.084  1.00  0.00    -0.200 F 
ENDBRANCH 103 123
BRANCH 106 134
ATOM    134  C   UNL A   1      37.911  32.208  30.507  1.00  0.00     0.064 A 
ATOM    135  C   UNL A   1      37.348  31.911  31.755  1.00  0.00     0.173 A 
ATOM    136  C   UNL A   1      37.118  32.903  29.581  1.00  0.00     0.173 A 
ATOM    137  F   UNL A   1      38.061  31.231  32.665  1.00  0.00    -0.203 F 
ATOM    138  C   UNL A   1      36.040  32.280  32.061  1.00  0.00     0.198 A 
ATOM    139  C   UNL A   1      35.820  33.296  29.898  1.00  0.00     0.198 A 
ATOM    140  F   UNL A   1      37.614  33.217  28.375  1.00  0.00    -0.203 F 
ATOM    141  F   UNL A   1      35.513  31.952  33.249  1.00  0.00    -0.200 F 
ATOM    142  C   UNL A   1      35.279  32.979  31.134  1.00  0.00     0.200 A 
ATOM    143  F   UNL A   1      35.094  33.984  29.006  1.00  0.00    -0.200 F 
ATOM    144  F   UNL A   1      34.025  33.343  31.433  1.00  0.00    -0.200 F 
ENDBRANCH 106 134
BRANCH 121 145
ATOM    145  C   UNL A   1      44.079  35.390  31.155  1.00  0.00     0.064 A 
ATOM    146  C   UNL A   1      44.428  35.627  32.492  1.00  0.00     0.173 A 
ATOM    147  C   UNL A   1      44.145  36.466  30.256  1.00  0.00     0.173 A 
ATOM    148  F   UNL A   1      44.365  34.635  33.393  1.00  0.00    -0.203 F 
ATOM    149  C   UNL A   1      44.808  36.898  32.918  1.00  0.00     0.198 A 
ATOM    150  C   UNL A   1      44.552  37.728  30.679  1.00  0.00     0.198 A 
ATOM    151  F   UNL A   1      43.827  36.289  28.965  1.00  0.00    -0.203 F 
ATOM    152  F   UNL A   1      45.094  37.112  34.210  1.00  0.00    -0.200 F 
ATOM    153  C   UNL A   1      44.876  37.945  32.009  1.00  0.00     0.200 A 
ATOM    154  F   UNL A   1      44.630  38.735  29.799  1.00  0.00    -0.200 F 
ATOM    155  F   UNL A   1      45.248  39.164  32.420  1.00  0.00    -0.200 F 
ENDBRANCH 121 145
ENDBRANCH  86  89
ENDBRANCH  76  79
ENDBRANCH  72  75
ENDBRANCH  69  72
ENDBRANCH  66  69
ENDBRANCH  63  66
ENDBRANCH  60  63
ENDBRANCH  57  60
ENDBRANCH   3  57
TORSDOF 25
ENDMDL
MODEL 4
REMARK VINA RESULT:     -10.5      3.569      9.299
REMARK SMILES CCCCCCNC(=O)Oc1cccc(-c2ccc([C@@H](C)C(=O)NCCCCCCNC(=O)c3ccc(-c4c5nc(c(-c6c(F)c(F)c(F)c(F)c6F)c6ccc([nH]6)c(-c6c(F)c(F)c(F)c(F)c6F)c6nc(c(-c7c(F)c(F)c(F)c(F)c7F)c7ccc4[nH]7)C=C6)C=C5)cc3)cc2[N+](=O)[O-])c1
REMARK SMILES IDX 22 1 23 2 24 3 20 5 19 7 16 8 17 9 98 10 18 11 97 13 15 16
REMARK SMILES IDX 11 17 12 18 102 19 13 20 14 23 10 26 8 27 7 28 9 30 6 31
REMARK SMILES IDX 5 34 4 37 3 40 2 43 1 46 99 50 100 51 101 52 21 53 25 57
REMARK SMILES IDX 26 60 27 63 28 66 29 69 30 72 31 75 32 76 33 78 34 79 35 80
REMARK SMILES IDX 96 81 36 82 95 84 37 86 38 89 39 90 89 91 40 92 94 93 88 94
REMARK SMILES IDX 90 95 41 96 93 97 87 99 86 101 42 103 74 106 54 107 73 108
REMARK SMILES IDX 55 109 58 110 72 111 91 112 56 113 57 115 71 117 92 118
REMARK SMILES IDX 59 121 43 123 44 124 52 125 45 126 46 127 50 128 53 129
REMARK SMILES IDX 47 130 48 131 51 132 49 133 75 134 76 135 84 136 77 137
REMARK SMILES IDX 78 138 82 139 85 140 79 141 80 142 83 143 81 144 60 145
REMARK SMILES IDX 61 146 69 147 62 148 63 149 67 150 70 151 64 152 65 153
REMARK SMILES IDX 68 154 66 155
REMARK H PARENT 24 4 20 6 17 12 18 14 97 15 12 21 102 22 13 24 14 25 7 29 6 32
REMARK H PARENT 6 33 5 35 5 36 4 38 4 39 3 41 3 42 2 44 2 45 1 47 1 48 1 49
REMARK H PARENT 21 54 21 55 21 56 25 58 25 59 26 61 26 62 27 64 27 65 28 67
REMARK H PARENT 28 68 29 70 29 71 30 73 30 74 31 77 35 83 96 85 36 87 95 88
REMARK H PARENT 94 98 88 100 90 102 93 104 87 105 55 114 58 116 91 119 56 120
REMARK H PARENT 92 122
REMARK Flexibility Score: inf
ROOT
ATOM      1  C   UNL A   1      31.249  21.770  25.225  1.00  0.00     0.227 C 
ATOM      2  O   UNL A   1      30.300  21.974  25.992  1.00  0.00    -0.274 OA
ATOM      3  N   UNL A   1      31.938  20.613  25.417  1.00  0.00    -0.356 N 
ATOM      4  H   UNL A   1      31.553  20.027  26.107  1.00  0.00     0.163 HD
ENDROOT
BRANCH   1   5
ATOM      5  C   UNL A   1      31.570  22.790  24.119  1.00  0.00     0.060 C 
ATOM      6  H   UNL A   1      30.625  23.022  23.675  1.00  0.00     0.045 H 
BRANCH   5   7
ATOM      7  C   UNL A   1      32.048  24.137  24.640  1.00  0.00    -0.029 A 
ATOM      8  C   UNL A   1      32.770  26.754  25.571  1.00  0.00     0.060 A 
ATOM      9  C   UNL A   1      32.655  25.656  26.442  1.00  0.00    -0.047 A 
ATOM     10  C   UNL A   1      32.598  26.487  24.199  1.00  0.00     0.277 A 
ATOM     11  C   UNL A   1      32.346  24.372  25.983  1.00  0.00    -0.057 A 
ATOM     12  H   UNL A   1      32.804  25.804  27.453  1.00  0.00     0.063 H 
ATOM     13  C   UNL A   1      32.198  25.211  23.749  1.00  0.00     0.021 A 
ATOM     14  H   UNL A   1      32.339  23.584  26.649  1.00  0.00     0.063 H 
ATOM     15  H   UNL A   1      32.011  25.065  22.745  1.00  0.00     0.070 H 
BRANCH   8  16
ATOM     16  C   UNL A   1      33.012  28.095  26.146  1.00  0.00    -0.008 A 
ATOM     17  C   UNL A   1      32.203  30.216  27.015  1.00  0.00     0.133 A 
ATOM     18  C   UNL A   1      33.502  30.644  27.271  1.00  0.00    -0.019 A 
ATOM     19  C   UNL A   1      31.949  28.954  26.473  1.00  0.00    -0.011 A 
ATOM     20  C   UNL A   1      34.565  29.797  26.984  1.00  0.00    -0.058 A 
ATOM     21  H   UNL A   1      33.673  31.581  27.671  1.00  0.00     0.066 H 
ATOM     22  H   UNL A   1      30.976  28.651  26.310  1.00  0.00     0.067 H 
ATOM     23  C   UNL A   1      34.321  28.542  26.416  1.00  0.00    -0.054 A 
ATOM     24  H   UNL A   1      35.532  30.092  27.189  1.00  0.00     0.062 H 
ATOM     25  H   UNL A   1      35.120  27.927  26.190  1.00  0.00     0.063 H 
BRANCH  17  26
ATOM     26  O   UNL A   1      31.181  31.168  27.172  1.00  0.00    -0.410 OA
BRANCH  26  27
ATOM     27  C   UNL A   1      31.265  32.376  26.497  1.00  0.00     0.412 C 
ATOM     28  N   UNL A   1      30.686  32.331  25.257  1.00  0.00    -0.321 N 
ATOM     29  H   UNL A   1      30.740  33.151  24.716  1.00  0.00     0.167 HD
ATOM     30  O   UNL A   1      31.794  33.398  26.916  1.00  0.00    -0.224 OA
BRANCH  28  31
ATOM     31  C   UNL A   1      30.001  31.202  24.661  1.00  0.00     0.021 C 
ATOM     32  H   UNL A   1      30.681  30.688  24.014  1.00  0.00     0.049 H 
ATOM     33  H   UNL A   1      29.664  30.565  25.453  1.00  0.00     0.049 H 
BRANCH  31  34
ATOM     34  C   UNL A   1      28.778  31.632  23.851  1.00  0.00    -0.036 C 
ATOM     35  H   UNL A   1      27.934  31.075  24.201  1.00  0.00     0.028 H 
ATOM     36  H   UNL A   1      28.679  32.688  23.996  1.00  0.00     0.028 H 
BRANCH  34  37
ATOM     37  C   UNL A   1      28.897  31.415  22.338  1.00  0.00    -0.052 C 
ATOM     38  H   UNL A   1      28.372  32.208  21.849  1.00  0.00     0.027 H 
ATOM     39  H   UNL A   1      29.947  31.397  22.126  1.00  0.00     0.027 H 
BRANCH  37  40
ATOM     40  C   UNL A   1      28.340  30.087  21.814  1.00  0.00    -0.054 C 
ATOM     41  H   UNL A   1      27.554  30.307  21.125  1.00  0.00     0.027 H 
ATOM     42  H   UNL A   1      29.170  29.574  21.372  1.00  0.00     0.027 H 
BRANCH  40  43
ATOM     43  C   UNL A   1      27.782  29.142  22.881  1.00  0.00    -0.056 C 
ATOM     44  H   UNL A   1      27.588  29.708  23.768  1.00  0.00     0.026 H 
ATOM     45  H   UNL A   1      26.893  28.702  22.481  1.00  0.00     0.026 H 
BRANCH  43  46
ATOM     46  C   UNL A   1      28.728  28.005  23.231  1.00  0.00    -0.065 C 
ATOM     47  H   UNL A   1      29.388  27.824  22.409  1.00  0.00     0.023 H 
ATOM     48  H   UNL A   1      28.162  27.120  23.435  1.00  0.00     0.023 H 
ATOM     49  H   UNL A   1      29.301  28.268  24.096  1.00  0.00     0.023 H 
ENDBRANCH  43  46
ENDBRANCH  40  43
ENDBRANCH  37  40
ENDBRANCH  34  37
ENDBRANCH  31  34
ENDBRANCH  28  31
ENDBRANCH  26  27
ENDBRANCH  17  26
ENDBRANCH   8  16
BRANCH  10  50
ATOM     50  N   UNL A   1      32.881  27.485  23.192  1.00  0.00     0.063 N 
ATOM     51  O   UNL A   1      33.776  27.319  22.389  1.00  0.00    -0.258 OA
ATOM     52  O   UNL A   1      32.249  28.706  23.201  1.00  0.00    -0.258 OA
ENDBRANCH  10  50
ENDBRANCH   5   7
BRANCH   5  53
ATOM     53  C   UNL A   1      32.366  22.213  22.949  1.00  0.00    -0.049 C 
ATOM     54  H   UNL A   1      33.251  22.795  22.799  1.00  0.00     0.024 H 
ATOM     55  H   UNL A   1      31.767  22.238  22.063  1.00  0.00     0.024 H 
ATOM     56  H   UNL A   1      32.638  21.201  23.167  1.00  0.00     0.024 H 
ENDBRANCH   5  53
ENDBRANCH   1   5
BRANCH   3  57
ATOM     57  C   UNL A   1      33.133  20.084  24.795  1.00  0.00     0.017 C 
ATOM     58  H   UNL A   1      33.248  20.530  23.829  1.00  0.00     0.049 H 
ATOM     59  H   UNL A   1      33.026  19.023  24.715  1.00  0.00     0.049 H 
BRANCH  57  60
ATOM     60  C   UNL A   1      34.382  20.378  25.630  1.00  0.00    -0.036 C 
ATOM     61  H   UNL A   1      34.632  19.497  26.183  1.00  0.00     0.028 H 
ATOM     62  H   UNL A   1      34.145  21.208  26.263  1.00  0.00     0.028 H 
BRANCH  60  63
ATOM     63  C   UNL A   1      35.601  20.788  24.798  1.00  0.00    -0.052 C 
ATOM     64  H   UNL A   1      35.659  20.136  23.952  1.00  0.00     0.027 H 
ATOM     65  H   UNL A   1      36.445  20.716  25.450  1.00  0.00     0.027 H 
BRANCH  63  66
ATOM     66  C   UNL A   1      35.581  22.234  24.283  1.00  0.00    -0.052 C 
ATOM     67  H   UNL A   1      34.623  22.412  23.842  1.00  0.00     0.027 H 
ATOM     68  H   UNL A   1      36.396  22.310  23.593  1.00  0.00     0.027 H 
BRANCH  66  69
ATOM     69  C   UNL A   1      35.823  23.316  25.341  1.00  0.00    -0.036 C 
ATOM     70  H   UNL A   1      35.691  22.873  26.306  1.00  0.00     0.028 H 
ATOM     71  H   UNL A   1      35.124  24.098  25.135  1.00  0.00     0.028 H 
BRANCH  69  72
ATOM     72  C   UNL A   1      37.209  23.955  25.297  1.00  0.00     0.018 C 
ATOM     73  H   UNL A   1      37.245  24.754  26.008  1.00  0.00     0.049 H 
ATOM     74  H   UNL A   1      37.376  24.316  24.303  1.00  0.00     0.049 H 
BRANCH  72  75
ATOM     75  N   UNL A   1      38.258  22.997  25.612  1.00  0.00    -0.352 N 
ATOM     76  C   UNL A   1      39.470  23.190  26.226  1.00  0.00     0.251 C 
ATOM     77  H   UNL A   1      38.070  22.070  25.342  1.00  0.00     0.163 HD
ATOM     78  O   UNL A   1      40.319  22.305  26.201  1.00  0.00    -0.269 OA
BRANCH  76  79
ATOM     79  C   UNL A   1      39.763  24.464  26.915  1.00  0.00     0.039 A 
ATOM     80  C   UNL A   1      39.305  24.645  28.223  1.00  0.00    -0.049 A 
ATOM     81  C   UNL A   1      40.447  25.494  26.264  1.00  0.00    -0.049 A 
ATOM     82  C   UNL A   1      39.581  25.838  28.897  1.00  0.00    -0.053 A 
ATOM     83  H   UNL A   1      38.765  23.900  28.691  1.00  0.00     0.063 H 
ATOM     84  C   UNL A   1      40.778  26.656  26.957  1.00  0.00    -0.053 A 
ATOM     85  H   UNL A   1      40.708  25.394  25.270  1.00  0.00     0.063 H 
ATOM     86  C   UNL A   1      40.343  26.841  28.279  1.00  0.00    -0.014 A 
ATOM     87  H   UNL A   1      39.221  25.981  29.854  1.00  0.00     0.063 H 
ATOM     88  H   UNL A   1      41.344  27.385  26.496  1.00  0.00     0.063 H 
BRANCH  86  89
ATOM     89  C   UNL A   1      40.699  28.089  28.999  1.00  0.00     0.031 A 
ATOM     90  C   UNL A   1      42.054  28.240  29.631  1.00  0.00     0.074 A 
ATOM     91  C   UNL A   1      39.774  29.056  29.147  1.00  0.00     0.049 A 
ATOM     92  N   UNL A   1      42.523  29.221  30.362  1.00  0.00    -0.248 NA
ATOM     93  C   UNL A   1      42.998  27.129  29.440  1.00  0.00    -0.034 C 
ATOM     94  C   UNL A   1      38.406  29.001  28.629  1.00  0.00    -0.036 A 
ATOM     95  N   UNL A   1      39.837  30.265  29.794  1.00  0.00    -0.354 N 
ATOM     96  C   UNL A   1      43.804  28.834  30.734  1.00  0.00     0.074 A 
ATOM     97  C   UNL A   1      44.023  27.513  30.187  1.00  0.00    -0.034 C 
ATOM     98  H   UNL A   1      42.890  26.274  28.873  1.00  0.00     0.065 H 
ATOM     99  C   UNL A   1      37.762  30.129  28.971  1.00  0.00    -0.036 A 
ATOM    100  H   UNL A   1      38.001  28.221  28.089  1.00  0.00     0.065 H 
ATOM    101  C   UNL A   1      38.659  30.970  29.757  1.00  0.00     0.049 A 
ATOM    102  H   UNL A   1      40.649  30.596  30.241  1.00  0.00     0.167 HD
ATOM    103  C   UNL A   1      44.719  29.528  31.452  1.00  0.00     0.037 A 
ATOM    104  H   UNL A   1      44.867  26.943  30.357  1.00  0.00     0.065 H 
ATOM    105  H   UNL A   1      36.790  30.363  28.718  1.00  0.00     0.065 H 
ATOM    106  C   UNL A   1      38.335  32.156  30.305  1.00  0.00     0.037 A 
ATOM    107  C   UNL A   1      44.508  30.856  31.966  1.00  0.00     0.049 A 
ATOM    108  C   UNL A   1      39.377  32.918  31.077  1.00  0.00     0.074 A 
ATOM    109  C   UNL A   1      45.402  31.677  32.630  1.00  0.00    -0.036 A 
ATOM    110  N   UNL A   1      43.313  31.556  31.878  1.00  0.00    -0.354 N 
ATOM    111  N   UNL A   1      40.613  32.580  31.353  1.00  0.00    -0.248 NA
ATOM    112  C   UNL A   1      38.983  34.231  31.607  1.00  0.00    -0.034 C 
ATOM    113  C   UNL A   1      44.735  32.854  32.985  1.00  0.00    -0.036 A 
ATOM    114  H   UNL A   1      46.391  31.459  32.830  1.00  0.00     0.065 H 
ATOM    115  C   UNL A   1      43.439  32.788  32.499  1.00  0.00     0.049 A 
ATOM    116  H   UNL A   1      42.496  31.225  31.439  1.00  0.00     0.167 HD
ATOM    117  C   UNL A   1      41.150  33.642  32.068  1.00  0.00     0.074 A 
ATOM    118  C   UNL A   1      40.109  34.645  32.169  1.00  0.00    -0.034 C 
ATOM    119  H   UNL A   1      38.068  34.707  31.553  1.00  0.00     0.065 H 
ATOM    120  H   UNL A   1      45.140  33.641  33.518  1.00  0.00     0.065 H 
ATOM    121  C   UNL A   1      42.393  33.774  32.594  1.00  0.00     0.037 A 
ATOM    122  H   UNL A   1      40.230  35.564  32.621  1.00  0.00     0.065 H 
BRANCH 103 123
ATOM    123  C   UNL A   1      46.037  28.861  31.726  1.00  0.00     0.064 A 
ATOM    124  C   UNL A   1      46.248  28.087  32.877  1.00  0.00     0.173 A 
ATOM    125  C   UNL A   1      47.093  28.973  30.809  1.00  0.00     0.173 A 
ATOM    126  F   UNL A   1      45.273  27.956  33.790  1.00  0.00    -0.203 F 
ATOM    127  C   UNL A   1      47.476  27.477  33.116  1.00  0.00     0.198 A 
ATOM    128  C   UNL A   1      48.310  28.337  31.036  1.00  0.00     0.198 A 
ATOM    129  F   UNL A   1      46.943  29.695  29.688  1.00  0.00    -0.203 F 
ATOM    130  F   UNL A   1      47.671  26.786  34.248  1.00  0.00    -0.200 F 
ATOM    131  C   UNL A   1      48.505  27.597  32.194  1.00  0.00     0.200 A 
ATOM    132  F   UNL A   1      49.299  28.443  30.137  1.00  0.00    -0.200 F 
ATOM    133  F   UNL A   1      49.685  27.007  32.423  1.00  0.00    -0.200 F 
ENDBRANCH 103 123
BRANCH 106 134
ATOM    134  C   UNL A   1      36.967  32.702  30.121  1.00  0.00     0.064 A 
ATOM    135  C   UNL A   1      36.009  32.608  31.139  1.00  0.00     0.173 A 
ATOM    136  C   UNL A   1      36.595  33.346  28.931  1.00  0.00     0.173 A 
ATOM    137  F   UNL A   1      36.313  31.984  32.287  1.00  0.00    -0.203 F 
ATOM    138  C   UNL A   1      34.725  33.121  30.970  1.00  0.00     0.198 A 
ATOM    139  C   UNL A   1      35.320  33.883  28.773  1.00  0.00     0.198 A 
ATOM    140  F   UNL A   1      37.478  33.468  27.929  1.00  0.00    -0.203 F 
ATOM    141  F   UNL A   1      33.817  32.986  31.945  1.00  0.00    -0.200 F 
ATOM    142  C   UNL A   1      34.384  33.765  29.789  1.00  0.00     0.200 A 
ATOM    143  F   UNL A   1      34.999  34.518  27.637  1.00  0.00    -0.200 F 
ATOM    144  F   UNL A   1      33.153  34.269  29.630  1.00  0.00    -0.200 F 
ENDBRANCH 106 134
BRANCH 121 145
ATOM    145  C   UNL A   1      42.702  35.056  33.309  1.00  0.00     0.064 A 
ATOM    146  C   UNL A   1      42.504  35.193  34.690  1.00  0.00     0.173 A 
ATOM    147  C   UNL A   1      43.242  36.147  32.610  1.00  0.00     0.173 A 
ATOM    148  F   UNL A   1      41.976  34.184  35.399  1.00  0.00    -0.203 F 
ATOM    149  C   UNL A   1      42.814  36.383  35.343  1.00  0.00     0.198 A 
ATOM    150  C   UNL A   1      43.578  37.326  33.270  1.00  0.00     0.198 A 
ATOM    151  F   UNL A   1      43.456  36.065  31.288  1.00  0.00    -0.203 F 
ATOM    152  F   UNL A   1      42.575  36.507  36.656  1.00  0.00    -0.200 F 
ATOM    153  C   UNL A   1      43.357  37.445  34.634  1.00  0.00     0.200 A 
ATOM    154  F   UNL A   1      44.113  38.346  32.587  1.00  0.00    -0.200 F 
ATOM    155  F   UNL A   1      43.661  38.586  35.266  1.00  0.00    -0.200 F 
ENDBRANCH 121 145
ENDBRANCH  86  89
ENDBRANCH  76  79
ENDBRANCH  72  75
ENDBRANCH  69  72
ENDBRANCH  66  69
ENDBRANCH  63  66
ENDBRANCH  60  63
ENDBRANCH  57  60
ENDBRANCH   3  57
TORSDOF 25
ENDMDL
MODEL 5
REMARK VINA RESULT:     -10.2      4.748     11.256
REMARK SMILES CCCCCCNC(=O)Oc1cccc(-c2ccc([C@@H](C)C(=O)NCCCCCCNC(=O)c3ccc(-c4c5nc(c(-c6c(F)c(F)c(F)c(F)c6F)c6ccc([nH]6)c(-c6c(F)c(F)c(F)c(F)c6F)c6nc(c(-c7c(F)c(F)c(F)c(F)c7F)c7ccc4[nH]7)C=C6)C=C5)cc3)cc2[N+](=O)[O-])c1
REMARK SMILES IDX 22 1 23 2 24 3 20 5 19 7 16 8 17 9 98 10 18 11 97 13 15 16
REMARK SMILES IDX 11 17 12 18 102 19 13 20 14 23 10 26 8 27 7 28 9 30 6 31
REMARK SMILES IDX 5 34 4 37 3 40 2 43 1 46 99 50 100 51 101 52 21 53 25 57
REMARK SMILES IDX 26 60 27 63 28 66 29 69 30 72 31 75 32 76 33 78 34 79 35 80
REMARK SMILES IDX 96 81 36 82 95 84 37 86 38 89 39 90 89 91 40 92 94 93 88 94
REMARK SMILES IDX 90 95 41 96 93 97 87 99 86 101 42 103 74 106 54 107 73 108
REMARK SMILES IDX 55 109 58 110 72 111 91 112 56 113 57 115 71 117 92 118
REMARK SMILES IDX 59 121 43 123 44 124 52 125 45 126 46 127 50 128 53 129
REMARK SMILES IDX 47 130 48 131 51 132 49 133 75 134 76 135 84 136 77 137
REMARK SMILES IDX 78 138 82 139 85 140 79 141 80 142 83 143 81 144 60 145
REMARK SMILES IDX 61 146 69 147 62 148 63 149 67 150 70 151 64 152 65 153
REMARK SMILES IDX 68 154 66 155
REMARK H PARENT 24 4 20 6 17 12 18 14 97 15 12 21 102 22 13 24 14 25 7 29 6 32
REMARK H PARENT 6 33 5 35 5 36 4 38 4 39 3 41 3 42 2 44 2 45 1 47 1 48 1 49
REMARK H PARENT 21 54 21 55 21 56 25 58 25 59 26 61 26 62 27 64 27 65 28 67
REMARK H PARENT 28 68 29 70 29 71 30 73 30 74 31 77 35 83 96 85 36 87 95 88
REMARK H PARENT 94 98 88 100 90 102 93 104 87 105 55 114 58 116 91 119 56 120
REMARK H PARENT 92 122
REMARK Flexibility Score: inf
ROOT
ATOM      1  C   UNL A   1      30.694  22.964  25.869  1.00  0.00     0.227 C 
ATOM      2  O   UNL A   1      30.153  23.057  26.979  1.00  0.00    -0.274 OA
ATOM      3  N   UNL A   1      31.313  21.784  25.602  1.00  0.00    -0.356 N 
ATOM      4  H   UNL A   1      31.197  21.101  26.301  1.00  0.00     0.163 HD
ENDROOT
BRANCH   1   5
ATOM      5  C   UNL A   1      30.616  24.140  24.881  1.00  0.00     0.060 C 
ATOM      6  H   UNL A   1      29.624  24.525  24.986  1.00  0.00     0.045 H 
BRANCH   5   7
ATOM      7  C   UNL A   1      31.489  25.327  25.262  1.00  0.00    -0.029 A 
ATOM      8  C   UNL A   1      32.970  27.655  26.052  1.00  0.00     0.060 A 
ATOM      9  C   UNL A   1      33.193  26.394  26.633  1.00  0.00    -0.047 A 
ATOM     10  C   UNL A   1      32.039  27.703  24.996  1.00  0.00     0.277 A 
ATOM     11  C   UNL A   1      32.502  25.251  26.218  1.00  0.00    -0.057 A 
ATOM     12  H   UNL A   1      33.889  26.309  27.391  1.00  0.00     0.063 H 
ATOM     13  C   UNL A   1      31.280  26.569  24.641  1.00  0.00     0.021 A 
ATOM     14  H   UNL A   1      32.747  24.335  26.625  1.00  0.00     0.063 H 
ATOM     15  H   UNL A   1      30.556  26.653  23.911  1.00  0.00     0.070 H 
BRANCH   8  16
ATOM     16  C   UNL A   1      33.677  28.828  26.609  1.00  0.00    -0.008 A 
ATOM     17  C   UNL A   1      33.676  30.935  27.821  1.00  0.00     0.133 A 
ATOM     18  C   UNL A   1      35.057  31.050  27.688  1.00  0.00    -0.019 A 
ATOM     19  C   UNL A   1      32.987  29.836  27.305  1.00  0.00    -0.011 A 
ATOM     20  C   UNL A   1      35.761  30.048  27.031  1.00  0.00    -0.058 A 
ATOM     21  H   UNL A   1      35.552  31.869  28.074  1.00  0.00     0.066 H 
ATOM     22  H   UNL A   1      31.965  29.764  27.433  1.00  0.00     0.067 H 
ATOM     23  C   UNL A   1      35.075  28.956  26.487  1.00  0.00    -0.054 A 
ATOM     24  H   UNL A   1      36.787  30.108  26.943  1.00  0.00     0.062 H 
ATOM     25  H   UNL A   1      35.606  28.227  25.985  1.00  0.00     0.063 H 
BRANCH  17  26
ATOM     26  O   UNL A   1      32.999  32.047  28.349  1.00  0.00    -0.410 OA
BRANCH  26  27
ATOM     27  C   UNL A   1      32.399  32.953  27.487  1.00  0.00     0.412 C 
ATOM     28  N   UNL A   1      32.901  34.220  27.618  1.00  0.00    -0.321 N 
ATOM     29  H   UNL A   1      32.494  34.916  27.054  1.00  0.00     0.167 HD
ATOM     30  O   UNL A   1      31.511  32.701  26.684  1.00  0.00    -0.224 OA
BRANCH  28  31
ATOM     31  C   UNL A   1      33.971  34.641  28.501  1.00  0.00     0.021 C 
ATOM     32  H   UNL A   1      34.189  33.845  29.183  1.00  0.00     0.049 H 
ATOM     33  H   UNL A   1      34.823  34.878  27.898  1.00  0.00     0.049 H 
BRANCH  31  34
ATOM     34  C   UNL A   1      33.599  35.889  29.302  1.00  0.00    -0.036 C 
ATOM     35  H   UNL A   1      34.496  36.437  29.500  1.00  0.00     0.028 H 
ATOM     36  H   UNL A   1      32.895  36.429  28.704  1.00  0.00     0.028 H 
BRANCH  34  37
ATOM     37  C   UNL A   1      32.903  35.613  30.641  1.00  0.00    -0.052 C 
ATOM     38  H   UNL A   1      32.605  36.553  31.057  1.00  0.00     0.027 H 
ATOM     39  H   UNL A   1      32.084  34.961  30.417  1.00  0.00     0.027 H 
BRANCH  37  40
ATOM     40  C   UNL A   1      33.750  34.881  31.687  1.00  0.00    -0.054 C 
ATOM     41  H   UNL A   1      33.084  34.403  32.374  1.00  0.00     0.027 H 
ATOM     42  H   UNL A   1      34.367  34.199  31.141  1.00  0.00     0.027 H 
BRANCH  40  43
ATOM     43  C   UNL A   1      34.707  35.763  32.492  1.00  0.00    -0.056 C 
ATOM     44  H   UNL A   1      35.157  35.166  33.257  1.00  0.00     0.026 H 
ATOM     45  H   UNL A   1      35.430  36.153  31.807  1.00  0.00     0.026 H 
BRANCH  43  46
ATOM     46  C   UNL A   1      34.021  36.952  33.147  1.00  0.00    -0.065 C 
ATOM     47  H   UNL A   1      33.216  37.285  32.527  1.00  0.00     0.023 H 
ATOM     48  H   UNL A   1      34.727  37.746  33.272  1.00  0.00     0.023 H 
ATOM     49  H   UNL A   1      33.638  36.661  34.104  1.00  0.00     0.023 H 
ENDBRANCH  43  46
ENDBRANCH  40  43
ENDBRANCH  37  40
ENDBRANCH  34  37
ENDBRANCH  31  34
ENDBRANCH  28  31
ENDBRANCH  26  27
ENDBRANCH  17  26
ENDBRANCH   8  16
BRANCH  10  50
ATOM     50  N   UNL A   1      31.867  28.893  24.194  1.00  0.00     0.063 N 
ATOM     51  O   UNL A   1      30.866  29.572  24.300  1.00  0.00    -0.258 OA
ATOM     52  O   UNL A   1      32.753  29.214  23.193  1.00  0.00    -0.258 OA
ENDBRANCH  10  50
ENDBRANCH   5   7
BRANCH   5  53
ATOM     53  C   UNL A   1      30.668  23.725  23.411  1.00  0.00    -0.049 C 
ATOM     54  H   UNL A   1      31.404  24.312  22.901  1.00  0.00     0.024 H 
ATOM     55  H   UNL A   1      29.710  23.883  22.962  1.00  0.00     0.024 H 
ATOM     56  H   UNL A   1      30.928  22.689  23.342  1.00  0.00     0.024 H 
ENDBRANCH   5  53
ENDBRANCH   1   5
BRANCH   3  57
ATOM     57  C   UNL A   1      32.113  21.344  24.478  1.00  0.00     0.017 C 
ATOM     58  H   UNL A   1      31.882  21.953  23.629  1.00  0.00     0.049 H 
ATOM     59  H   UNL A   1      31.883  20.318  24.285  1.00  0.00     0.049 H 
BRANCH  57  60
ATOM     60  C   UNL A   1      33.611  21.451  24.775  1.00  0.00    -0.036 C 
ATOM     61  H   UNL A   1      34.074  20.523  24.508  1.00  0.00     0.028 H 
ATOM     62  H   UNL A   1      33.707  21.673  25.817  1.00  0.00     0.028 H 
BRANCH  60  63
ATOM     63  C   UNL A   1      34.314  22.579  24.013  1.00  0.00    -0.052 C 
ATOM     64  H   UNL A   1      33.563  23.219  23.601  1.00  0.00     0.027 H 
ATOM     65  H   UNL A   1      34.923  22.103  23.272  1.00  0.00     0.027 H 
BRANCH  63  66
ATOM     66  C   UNL A   1      35.263  23.441  24.856  1.00  0.00    -0.052 C 
ATOM     67  H   UNL A   1      34.667  24.050  25.503  1.00  0.00     0.027 H 
ATOM     68  H   UNL A   1      35.851  23.998  24.158  1.00  0.00     0.027 H 
BRANCH  66  69
ATOM     69  C   UNL A   1      36.262  22.668  25.725  1.00  0.00    -0.036 C 
ATOM     70  H   UNL A   1      35.758  21.819  26.137  1.00  0.00     0.028 H 
ATOM     71  H   UNL A   1      36.609  23.356  26.467  1.00  0.00     0.028 H 
BRANCH  69  72
ATOM     72  C   UNL A   1      37.502  22.172  24.986  1.00  0.00     0.018 C 
ATOM     73  H   UNL A   1      38.144  23.005  24.787  1.00  0.00     0.049 H 
ATOM     74  H   UNL A   1      37.182  21.707  24.076  1.00  0.00     0.049 H 
BRANCH  72  75
ATOM     75  N   UNL A   1      38.238  21.186  25.762  1.00  0.00    -0.352 N 
ATOM     76  C   UNL A   1      39.394  21.321  26.489  1.00  0.00     0.251 C 
ATOM     77  H   UNL A   1      37.847  20.283  25.765  1.00  0.00     0.163 HD
ATOM     78  O   UNL A   1      39.989  20.326  26.889  1.00  0.00    -0.269 OA
BRANCH  76  79
ATOM     79  C   UNL A   1      39.934  22.664  26.788  1.00  0.00     0.039 A 
ATOM     80  C   UNL A   1      40.873  22.802  27.813  1.00  0.00    -0.049 A 
ATOM     81  C   UNL A   1      39.486  23.791  26.092  1.00  0.00    -0.049 A 
ATOM     82  C   UNL A   1      41.405  24.060  28.105  1.00  0.00    -0.053 A 
ATOM     83  H   UNL A   1      41.173  21.976  28.354  1.00  0.00     0.063 H 
ATOM     84  C   UNL A   1      40.064  25.034  26.339  1.00  0.00    -0.053 A 
ATOM     85  H   UNL A   1      38.729  23.703  25.396  1.00  0.00     0.063 H 
ATOM     86  C   UNL A   1      41.025  25.182  27.351  1.00  0.00    -0.014 A 
ATOM     87  H   UNL A   1      42.080  24.166  28.878  1.00  0.00     0.063 H 
ATOM     88  H   UNL A   1      39.783  25.852  25.775  1.00  0.00     0.063 H 
BRANCH  86  89
ATOM     89  C   UNL A   1      41.623  26.516  27.604  1.00  0.00     0.031 A 
ATOM     90  C   UNL A   1      43.025  26.817  27.154  1.00  0.00     0.074 A 
ATOM     91  C   UNL A   1      40.929  27.432  28.306  1.00  0.00     0.049 A 
ATOM     92  N   UNL A   1      43.745  27.894  27.348  1.00  0.00    -0.248 NA
ATOM     93  C   UNL A   1      43.722  25.754  26.413  1.00  0.00    -0.034 C 
ATOM     94  C   UNL A   1      39.583  27.238  28.846  1.00  0.00    -0.036 A 
ATOM     95  N   UNL A   1      41.268  28.701  28.703  1.00  0.00    -0.354 N 
ATOM     96  C   UNL A   1      44.981  27.629  26.773  1.00  0.00     0.074 A 
ATOM     97  C   UNL A   1      44.930  26.277  26.263  1.00  0.00    -0.034 C 
ATOM     98  H   UNL A   1      43.363  24.841  26.093  1.00  0.00     0.065 H 
ATOM     99  C   UNL A   1      39.207  28.350  29.497  1.00  0.00    -0.036 A 
ATOM    100  H   UNL A   1      39.014  26.383  28.743  1.00  0.00     0.065 H 
ATOM    101  C   UNL A   1      40.295  29.323  29.447  1.00  0.00     0.049 A 
ATOM    102  H   UNL A   1      42.126  29.127  28.477  1.00  0.00     0.167 HD
ATOM    103  C   UNL A   1      46.055  28.449  26.666  1.00  0.00     0.037 A 
ATOM    104  H   UNL A   1      45.731  25.782  25.838  1.00  0.00     0.065 H 
ATOM    105  H   UNL A   1      38.295  28.496  29.957  1.00  0.00     0.065 H 
ATOM    106  C   UNL A   1      40.285  30.535  30.033  1.00  0.00     0.037 A 
ATOM    107  C   UNL A   1      46.089  29.806  27.146  1.00  0.00     0.049 A 
ATOM    108  C   UNL A   1      41.479  31.435  29.878  1.00  0.00     0.074 A 
ATOM    109  C   UNL A   1      47.096  30.745  27.009  1.00  0.00    -0.036 A 
ATOM    110  N   UNL A   1      45.069  30.415  27.863  1.00  0.00    -0.354 N 
ATOM    111  N   UNL A   1      42.612  31.207  29.261  1.00  0.00    -0.248 NA
ATOM    112  C   UNL A   1      41.390  32.766  30.493  1.00  0.00    -0.034 C 
ATOM    113  C   UNL A   1      46.705  31.907  27.683  1.00  0.00    -0.036 A 
ATOM    114  H   UNL A   1      47.982  30.611  26.498  1.00  0.00     0.065 H 
ATOM    115  C   UNL A   1      45.433  31.709  28.199  1.00  0.00     0.049 A 
ATOM    116  H   UNL A   1      44.212  29.990  28.099  1.00  0.00     0.167 HD
ATOM    117  C   UNL A   1      43.362  32.367  29.394  1.00  0.00     0.074 A 
ATOM    118  C   UNL A   1      42.547  33.306  30.138  1.00  0.00    -0.034 C 
ATOM    119  H   UNL A   1      40.626  33.175  31.055  1.00  0.00     0.065 H 
ATOM    120  H   UNL A   1      47.268  32.767  27.780  1.00  0.00     0.065 H 
ATOM    121  C   UNL A   1      44.613  32.630  28.942  1.00  0.00     0.037 A 
ATOM    122  H   UNL A   1      42.832  34.272  30.362  1.00  0.00     0.065 H 
BRANCH 103 123
ATOM    123  C   UNL A   1      47.285  27.899  26.002  1.00  0.00     0.064 A 
ATOM    124  C   UNL A   1      47.400  27.824  24.606  1.00  0.00     0.173 A 
ATOM    125  C   UNL A   1      48.375  27.468  26.774  1.00  0.00     0.173 A 
ATOM    126  F   UNL A   1      46.382  28.214  23.823  1.00  0.00    -0.203 F 
ATOM    127  C   UNL A   1      48.546  27.309  24.008  1.00  0.00     0.198 A 
ATOM    128  C   UNL A   1      49.531  26.982  26.171  1.00  0.00     0.198 A 
ATOM    129  F   UNL A   1      48.321  27.525  28.113  1.00  0.00    -0.203 F 
ATOM    130  F   UNL A   1      48.612  27.198  22.673  1.00  0.00    -0.200 F 
ATOM    131  C   UNL A   1      49.613  26.893  24.789  1.00  0.00     0.200 A 
ATOM    132  F   UNL A   1      50.567  26.593  26.928  1.00  0.00    -0.200 F 
ATOM    133  F   UNL A   1      50.718  26.402  24.213  1.00  0.00    -0.200 F 
ENDBRANCH 103 123
BRANCH 106 134
ATOM    134  C   UNL A   1      39.091  30.970  30.800  1.00  0.00     0.064 A 
ATOM    135  C   UNL A   1      38.018  31.610  30.165  1.00  0.00     0.173 A 
ATOM    136  C   UNL A   1      38.990  30.739  32.180  1.00  0.00     0.173 A 
ATOM    137  F   UNL A   1      38.078  31.870  28.851  1.00  0.00    -0.203 F 
ATOM    138  C   UNL A   1      36.896  32.017  30.883  1.00  0.00     0.198 A 
ATOM    139  C   UNL A   1      37.856  31.122  32.892  1.00  0.00     0.198 A 
ATOM    140  F   UNL A   1      39.987  30.124  32.833  1.00  0.00    -0.203 F 
ATOM    141  F   UNL A   1      35.900  32.659  30.258  1.00  0.00    -0.200 F 
ATOM    142  C   UNL A   1      36.812  31.766  32.245  1.00  0.00     0.200 A 
ATOM    143  F   UNL A   1      37.772  30.864  34.205  1.00  0.00    -0.200 F 
ATOM    144  F   UNL A   1      35.728  32.148  32.933  1.00  0.00    -0.200 F 
ENDBRANCH 106 134
BRANCH 121 145
ATOM    145  C   UNL A   1      45.170  33.995  29.222  1.00  0.00     0.064 A 
ATOM    146  C   UNL A   1      45.933  34.256  30.368  1.00  0.00     0.173 A 
ATOM    147  C   UNL A   1      44.972  35.044  28.310  1.00  0.00     0.173 A 
ATOM    148  F   UNL A   1      46.136  33.291  31.278  1.00  0.00    -0.203 F 
ATOM    149  C   UNL A   1      46.459  35.523  30.605  1.00  0.00     0.198 A 
ATOM    150  C   UNL A   1      45.523  36.302  28.535  1.00  0.00     0.198 A 
ATOM    151  F   UNL A   1      44.253  34.844  27.194  1.00  0.00    -0.203 F 
ATOM    152  F   UNL A   1      47.148  35.762  31.730  1.00  0.00    -0.200 F 
ATOM    153  C   UNL A   1      46.260  36.542  29.685  1.00  0.00     0.200 A 
ATOM    154  F   UNL A   1      45.341  37.282  27.640  1.00  0.00    -0.200 F 
ATOM    155  F   UNL A   1      46.774  37.759  29.911  1.00  0.00    -0.200 F 
ENDBRANCH 121 145
ENDBRANCH  86  89
ENDBRANCH  76  79
ENDBRANCH  72  75
ENDBRANCH  69  72
ENDBRANCH  66  69
ENDBRANCH  63  66
ENDBRANCH  60  63
ENDBRANCH  57  60
ENDBRANCH   3  57
TORSDOF 25
ENDMDL
MODEL 6
REMARK VINA RESULT:     -10.2      6.246      9.713
REMARK SMILES CCCCCCNC(=O)Oc1cccc(-c2ccc([C@@H](C)C(=O)NCCCCCCNC(=O)c3ccc(-c4c5nc(c(-c6c(F)c(F)c(F)c(F)c6F)c6ccc([nH]6)c(-c6c(F)c(F)c(F)c(F)c6F)c6nc(c(-c7c(F)c(F)c(F)c(F)c7F)c7ccc4[nH]7)C=C6)C=C5)cc3)cc2[N+](=O)[O-])c1
REMARK SMILES IDX 22 1 23 2 24 3 20 5 19 7 16 8 17 9 98 10 18 11 97 13 15 16
REMARK SMILES IDX 11 17 12 18 102 19 13 20 14 23 10 26 8 27 7 28 9 30 6 31
REMARK SMILES IDX 5 34 4 37 3 40 2 43 1 46 99 50 100 51 101 52 21 53 25 57
REMARK SMILES IDX 26 60 27 63 28 66 29 69 30 72 31 75 32 76 33 78 34 79 35 80
REMARK SMILES IDX 96 81 36 82 95 84 37 86 38 89 39 90 89 91 40 92 94 93 88 94
REMARK SMILES IDX 90 95 41 96 93 97 87 99 86 101 42 103 74 106 54 107 73 108
REMARK SMILES IDX 55 109 58 110 72 111 91 112 56 113 57 115 71 117 92 118
REMARK SMILES IDX 59 121 43 123 44 124 52 125 45 126 46 127 50 128 53 129
REMARK SMILES IDX 47 130 48 131 51 132 49 133 75 134 76 135 84 136 77 137
REMARK SMILES IDX 78 138 82 139 85 140 79 141 80 142 83 143 81 144 60 145
REMARK SMILES IDX 61 146 69 147 62 148 63 149 67 150 70 151 64 152 65 153
REMARK SMILES IDX 68 154 66 155
REMARK H PARENT 24 4 20 6 17 12 18 14 97 15 12 21 102 22 13 24 14 25 7 29 6 32
REMARK H PARENT 6 33 5 35 5 36 4 38 4 39 3 41 3 42 2 44 2 45 1 47 1 48 1 49
REMARK H PARENT 21 54 21 55 21 56 25 58 25 59 26 61 26 62 27 64 27 65 28 67
REMARK H PARENT 28 68 29 70 29 71 30 73 30 74 31 77 35 83 96 85 36 87 95 88
REMARK H PARENT 94 98 88 100 90 102 93 104 87 105 55 114 58 116 91 119 56 120
REMARK H PARENT 92 122
REMARK Flexibility Score: inf
ROOT
ATOM      1  C   UNL A   1      35.973  33.292  30.470  1.00  0.00     0.227 C 
ATOM      2  O   UNL A   1      35.428  33.347  29.360  1.00  0.00    -0.274 OA
ATOM      3  N   UNL A   1      36.461  34.464  30.957  1.00  0.00    -0.356 N 
ATOM      4  H   UNL A   1      36.257  35.247  30.397  1.00  0.00     0.163 HD
ENDROOT
BRANCH   1   5
ATOM      5  C   UNL A   1      36.042  31.951  31.221  1.00  0.00     0.060 C 
ATOM      6  H   UNL A   1      35.226  31.377  30.837  1.00  0.00     0.045 H 
BRANCH   5   7
ATOM      7  C   UNL A   1      37.257  31.106  30.866  1.00  0.00    -0.029 A 
ATOM      8  C   UNL A   1      39.428  29.404  30.075  1.00  0.00     0.060 A 
ATOM      9  C   UNL A   1      39.403  30.776  29.767  1.00  0.00    -0.047 A 
ATOM     10  C   UNL A   1      38.372  28.921  30.872  1.00  0.00     0.277 A 
ATOM     11  C   UNL A   1      38.367  31.614  30.190  1.00  0.00    -0.057 A 
ATOM     12  H   UNL A   1      40.175  31.177  29.210  1.00  0.00     0.063 H 
ATOM     13  C   UNL A   1      37.283  29.748  31.219  1.00  0.00     0.021 A 
ATOM     14  H   UNL A   1      38.424  32.626  29.998  1.00  0.00     0.063 H 
ATOM     15  H   UNL A   1      36.490  29.346  31.743  1.00  0.00     0.070 H 
BRANCH   8  16
ATOM     16  C   UNL A   1      40.514  28.570  29.516  1.00  0.00    -0.008 A 
ATOM     17  C   UNL A   1      41.546  27.384  27.662  1.00  0.00     0.133 A 
ATOM     18  C   UNL A   1      42.617  26.997  28.463  1.00  0.00    -0.019 A 
ATOM     19  C   UNL A   1      40.510  28.172  28.167  1.00  0.00    -0.011 A 
ATOM     20  C   UNL A   1      42.654  27.407  29.790  1.00  0.00    -0.058 A 
ATOM     21  H   UNL A   1      43.375  26.414  28.075  1.00  0.00     0.066 H 
ATOM     22  H   UNL A   1      39.737  28.463  27.549  1.00  0.00     0.067 H 
ATOM     23  C   UNL A   1      41.607  28.174  30.312  1.00  0.00    -0.054 A 
ATOM     24  H   UNL A   1      43.452  27.147  30.390  1.00  0.00     0.062 H 
ATOM     25  H   UNL A   1      41.636  28.458  31.304  1.00  0.00     0.063 H 
BRANCH  17  26
ATOM     26  O   UNL A   1      41.477  26.811  26.381  1.00  0.00    -0.410 OA
BRANCH  26  27
ATOM     27  C   UNL A   1      42.306  27.286  25.376  1.00  0.00     0.412 C 
ATOM     28  N   UNL A   1      43.211  26.350  24.951  1.00  0.00    -0.321 N 
ATOM     29  H   UNL A   1      43.849  26.637  24.259  1.00  0.00     0.167 HD
ATOM     30  O   UNL A   1      42.278  28.409  24.892  1.00  0.00    -0.224 OA
BRANCH  28  31
ATOM     31  C   UNL A   1      43.325  24.981  25.415  1.00  0.00     0.021 C 
ATOM     32  H   UNL A   1      42.631  24.830  26.216  1.00  0.00     0.049 H 
ATOM     33  H   UNL A   1      43.110  24.334  24.589  1.00  0.00     0.049 H 
BRANCH  31  34
ATOM     34  C   UNL A   1      44.733  24.658  25.913  1.00  0.00    -0.036 C 
ATOM     35  H   UNL A   1      44.766  23.619  26.165  1.00  0.00     0.028 H 
ATOM     36  H   UNL A   1      45.400  24.923  25.119  1.00  0.00     0.028 H 
BRANCH  34  37
ATOM     37  C   UNL A   1      45.185  25.460  27.139  1.00  0.00    -0.052 C 
ATOM     38  H   UNL A   1      46.013  26.071  26.846  1.00  0.00     0.027 H 
ATOM     39  H   UNL A   1      44.328  26.018  27.457  1.00  0.00     0.027 H 
BRANCH  37  40
ATOM     40  C   UNL A   1      45.618  24.629  28.351  1.00  0.00    -0.054 C 
ATOM     41  H   UNL A   1      46.650  24.379  28.229  1.00  0.00     0.027 H 
ATOM     42  H   UNL A   1      45.420  25.236  29.210  1.00  0.00     0.027 H 
BRANCH  40  43
ATOM     43  C   UNL A   1      44.840  23.328  28.567  1.00  0.00    -0.056 C 
ATOM     44  H   UNL A   1      44.594  22.917  27.611  1.00  0.00     0.026 H 
ATOM     45  H   UNL A   1      45.466  22.676  29.139  1.00  0.00     0.026 H 
BRANCH  43  46
ATOM     46  C   UNL A   1      43.554  23.521  29.355  1.00  0.00    -0.065 C 
ATOM     47  H   UNL A   1      42.798  22.871  28.967  1.00  0.00     0.023 H 
ATOM     48  H   UNL A   1      43.231  24.537  29.266  1.00  0.00     0.023 H 
ATOM     49  H   UNL A   1      43.728  23.291  30.386  1.00  0.00     0.023 H 
ENDBRANCH  43  46
ENDBRANCH  40  43
ENDBRANCH  37  40
ENDBRANCH  34  37
ENDBRANCH  31  34
ENDBRANCH  28  31
ENDBRANCH  26  27
ENDBRANCH  17  26
ENDBRANCH   8  16
BRANCH  10  50
ATOM     50  N   UNL A   1      38.386  27.581  31.415  1.00  0.00     0.063 N 
ATOM     51  O   UNL A   1      38.400  27.400  32.615  1.00  0.00    -0.258 OA
ATOM     52  O   UNL A   1      38.528  26.482  30.601  1.00  0.00    -0.258 OA
ENDBRANCH  10  50
ENDBRANCH   5   7
BRANCH   5  53
ATOM     53  C   UNL A   1      35.720  32.052  32.711  1.00  0.00    -0.049 C 
ATOM     54  H   UNL A   1      34.928  32.757  32.857  1.00  0.00     0.024 H 
ATOM     55  H   UNL A   1      36.589  32.376  33.243  1.00  0.00     0.024 H 
ATOM     56  H   UNL A   1      35.415  31.093  33.076  1.00  0.00     0.024 H 
ENDBRANCH   5  53
ENDBRANCH   1   5
BRANCH   3  57
ATOM     57  C   UNL A   1      37.224  34.774  32.147  1.00  0.00     0.017 C 
ATOM     58  H   UNL A   1      36.905  34.131  32.941  1.00  0.00     0.049 H 
ATOM     59  H   UNL A   1      37.054  35.800  32.396  1.00  0.00     0.049 H 
BRANCH  57  60
ATOM     60  C   UNL A   1      38.725  34.578  31.923  1.00  0.00    -0.036 C 
ATOM     61  H   UNL A   1      39.167  35.536  31.743  1.00  0.00     0.028 H 
ATOM     62  H   UNL A   1      38.831  33.914  31.090  1.00  0.00     0.028 H 
BRANCH  60  63
ATOM     63  C   UNL A   1      39.450  33.927  33.105  1.00  0.00    -0.052 C 
ATOM     64  H   UNL A   1      40.389  33.554  32.754  1.00  0.00     0.027 H 
ATOM     65  H   UNL A   1      38.797  33.162  33.470  1.00  0.00     0.027 H 
BRANCH  63  66
ATOM     66  C   UNL A   1      39.723  34.858  34.294  1.00  0.00    -0.052 C 
ATOM     67  H   UNL A   1      39.515  35.860  33.981  1.00  0.00     0.027 H 
ATOM     68  H   UNL A   1      40.744  34.692  34.567  1.00  0.00     0.027 H 
BRANCH  66  69
ATOM     69  C   UNL A   1      38.899  34.578  35.556  1.00  0.00    -0.036 C 
ATOM     70  H   UNL A   1      38.570  35.515  35.953  1.00  0.00     0.028 H 
ATOM     71  H   UNL A   1      39.541  34.038  36.220  1.00  0.00     0.028 H 
BRANCH  69  72
ATOM     72  C   UNL A   1      37.671  33.698  35.336  1.00  0.00     0.018 C 
ATOM     73  H   UNL A   1      37.749  33.227  34.378  1.00  0.00     0.049 H 
ATOM     74  H   UNL A   1      36.802  34.322  35.389  1.00  0.00     0.049 H 
BRANCH  72  75
ATOM     75  N   UNL A   1      37.551  32.669  36.357  1.00  0.00    -0.352 N 
ATOM     76  C   UNL A   1      38.176  31.451  36.457  1.00  0.00     0.251 C 
ATOM     77  H   UNL A   1      36.926  32.878  37.087  1.00  0.00     0.163 HD
ATOM     78  O   UNL A   1      37.778  30.621  37.268  1.00  0.00    -0.269 OA
BRANCH  76  79
ATOM     79  C   UNL A   1      39.325  31.129  35.586  1.00  0.00     0.039 A 
ATOM     80  C   UNL A   1      40.606  31.519  35.985  1.00  0.00    -0.049 A 
ATOM     81  C   UNL A   1      39.140  30.483  34.361  1.00  0.00    -0.049 A 
ATOM     82  C   UNL A   1      41.708  31.214  35.182  1.00  0.00    -0.053 A 
ATOM     83  H   UNL A   1      40.738  32.032  36.872  1.00  0.00     0.063 H 
ATOM     84  C   UNL A   1      40.245  30.122  33.592  1.00  0.00    -0.053 A 
ATOM     85  H   UNL A   1      38.187  30.273  34.025  1.00  0.00     0.063 H 
ATOM     86  C   UNL A   1      41.539  30.489  33.993  1.00  0.00    -0.014 A 
ATOM     87  H   UNL A   1      42.651  31.525  35.465  1.00  0.00     0.063 H 
ATOM     88  H   UNL A   1      40.111  29.583  32.722  1.00  0.00     0.063 H 
BRANCH  86  89
ATOM     89  C   UNL A   1      42.702  30.102  33.157  1.00  0.00     0.031 A 
ATOM     90  C   UNL A   1      43.109  30.949  31.985  1.00  0.00     0.074 A 
ATOM     91  C   UNL A   1      43.345  28.946  33.409  1.00  0.00     0.049 A 
ATOM     92  N   UNL A   1      44.047  30.738  31.095  1.00  0.00    -0.248 NA
ATOM     93  C   UNL A   1      42.341  32.184  31.766  1.00  0.00    -0.034 C 
ATOM     94  C   UNL A   1      43.007  28.010  34.482  1.00  0.00    -0.036 A 
ATOM     95  N   UNL A   1      44.404  28.351  32.769  1.00  0.00    -0.354 N 
ATOM     96  C   UNL A   1      43.966  31.799  30.203  1.00  0.00     0.074 A 
ATOM     97  C   UNL A   1      42.861  32.629  30.631  1.00  0.00    -0.034 C 
ATOM     98  H   UNL A   1      41.593  32.597  32.345  1.00  0.00     0.065 H 
ATOM     99  C   UNL A   1      43.847  26.963  34.432  1.00  0.00    -0.036 A 
ATOM    100  H   UNL A   1      42.245  28.134  35.167  1.00  0.00     0.065 H 
ATOM    101  C   UNL A   1      44.760  27.139  33.307  1.00  0.00     0.049 A 
ATOM    102  H   UNL A   1      44.864  28.755  31.999  1.00  0.00     0.167 HD
ATOM    103  C   UNL A   1      44.755  32.065  29.134  1.00  0.00     0.037 A 
ATOM    104  H   UNL A   1      42.521  33.459  30.119  1.00  0.00     0.065 H 
ATOM    105  H   UNL A   1      43.847  26.164  35.084  1.00  0.00     0.065 H 
ATOM    106  C   UNL A   1      45.708  26.262  32.928  1.00  0.00     0.037 A 
ATOM    107  C   UNL A   1      45.875  31.253  28.732  1.00  0.00     0.049 A 
ATOM    108  C   UNL A   1      46.587  26.591  31.753  1.00  0.00     0.074 A 
ATOM    109  C   UNL A   1      46.787  31.483  27.718  1.00  0.00    -0.036 A 
ATOM    110  N   UNL A   1      46.229  30.049  29.323  1.00  0.00    -0.354 N 
ATOM    111  N   UNL A   1      46.556  27.639  30.965  1.00  0.00    -0.248 NA
ATOM    112  C   UNL A   1      47.639  25.622  31.419  1.00  0.00    -0.034 C 
ATOM    113  C   UNL A   1      47.666  30.396  27.665  1.00  0.00    -0.036 A 
ATOM    114  H   UNL A   1      46.815  32.313  27.105  1.00  0.00     0.065 H 
ATOM    115  C   UNL A   1      47.331  29.511  28.678  1.00  0.00     0.049 A 
ATOM    116  H   UNL A   1      45.766  29.638  30.089  1.00  0.00     0.167 HD
ATOM    117  C   UNL A   1      47.592  27.466  30.059  1.00  0.00     0.074 A 
ATOM    118  C   UNL A   1      48.245  26.220  30.404  1.00  0.00    -0.034 C 
ATOM    119  H   UNL A   1      47.852  24.713  31.861  1.00  0.00     0.065 H 
ATOM    120  H   UNL A   1      48.434  30.273  26.986  1.00  0.00     0.065 H 
ATOM    121  C   UNL A   1      47.968  28.268  29.032  1.00  0.00     0.037 A 
ATOM    122  H   UNL A   1      49.076  25.847  29.920  1.00  0.00     0.065 H 
BRANCH 103 123
ATOM    123  C   UNL A   1      44.434  33.286  28.321  1.00  0.00     0.064 A 
ATOM    124  C   UNL A   1      43.840  33.195  27.054  1.00  0.00     0.173 A 
ATOM    125  C   UNL A   1      44.699  34.567  28.831  1.00  0.00     0.173 A 
ATOM    126  F   UNL A   1      43.575  31.993  26.518  1.00  0.00    -0.203 F 
ATOM    127  C   UNL A   1      43.551  34.338  26.313  1.00  0.00     0.198 A 
ATOM    128  C   UNL A   1      44.381  35.708  28.100  1.00  0.00     0.198 A 
ATOM    129  F   UNL A   1      45.260  34.712  30.040  1.00  0.00    -0.203 F 
ATOM    130  F   UNL A   1      43.031  34.224  25.083  1.00  0.00    -0.200 F 
ATOM    131  C   UNL A   1      43.816  35.593  26.838  1.00  0.00     0.200 A 
ATOM    132  F   UNL A   1      44.625  36.922  28.614  1.00  0.00    -0.200 F 
ATOM    133  F   UNL A   1      43.533  36.693  26.126  1.00  0.00    -0.200 F 
ENDBRANCH 103 123
BRANCH 106 134
ATOM    134  C   UNL A   1      45.886  24.998  33.687  1.00  0.00     0.064 A 
ATOM    135  C   UNL A   1      45.056  23.893  33.453  1.00  0.00     0.173 A 
ATOM    136  C   UNL A   1      46.899  24.862  34.647  1.00  0.00     0.173 A 
ATOM    137  F   UNL A   1      44.061  23.982  32.558  1.00  0.00    -0.203 F 
ATOM    138  C   UNL A   1      45.223  22.705  34.161  1.00  0.00     0.198 A 
ATOM    139  C   UNL A   1      47.082  23.666  35.335  1.00  0.00     0.198 A 
ATOM    140  F   UNL A   1      47.724  25.889  34.902  1.00  0.00    -0.203 F 
ATOM    141  F   UNL A   1      44.393  21.676  33.944  1.00  0.00    -0.200 F 
ATOM    142  C   UNL A   1      46.241  22.590  35.097  1.00  0.00     0.200 A 
ATOM    143  F   UNL A   1      48.076  23.553  36.227  1.00  0.00    -0.200 F 
ATOM    144  F   UNL A   1      46.407  21.444  35.771  1.00  0.00    -0.200 F 
ENDBRANCH 106 134
BRANCH 121 145
ATOM    145  C   UNL A   1      49.152  27.832  28.219  1.00  0.00     0.064 A 
ATOM    146  C   UNL A   1      48.998  27.121  27.021  1.00  0.00     0.173 A 
ATOM    147  C   UNL A   1      50.453  28.167  28.624  1.00  0.00     0.173 A 
ATOM    148  F   UNL A   1      47.775  26.764  26.600  1.00  0.00    -0.203 F 
ATOM    149  C   UNL A   1      50.105  26.740  26.268  1.00  0.00     0.198 A 
ATOM    150  C   UNL A   1      51.557  27.810  27.854  1.00  0.00     0.198 A 
ATOM    151  F   UNL A   1      50.654  28.852  29.760  1.00  0.00    -0.203 F 
ATOM    152  F   UNL A   1      49.938  26.022  25.149  1.00  0.00    -0.200 F 
ATOM    153  C   UNL A   1      51.383  27.091  26.681  1.00  0.00     0.200 A 
ATOM    154  F   UNL A   1      52.788  28.159  28.248  1.00  0.00    -0.200 F 
ATOM    155  F   UNL A   1      52.446  26.730  25.951  1.00  0.00    -0.200 F 
ENDBRANCH 121 145
ENDBRANCH  86  89
ENDBRANCH  76  79
ENDBRANCH  72  75
ENDBRANCH  69  72
ENDBRANCH  66  69
ENDBRANCH  63  66
ENDBRANCH  60  63
ENDBRANCH  57  60
ENDBRANCH   3  57
TORSDOF 25
ENDMDL
MODEL 7
REMARK VINA RESULT:     -10.1      4.821     10.034
REMARK SMILES CCCCCCNC(=O)Oc1cccc(-c2ccc([C@@H](C)C(=O)NCCCCCCNC(=O)c3ccc(-c4c5nc(c(-c6c(F)c(F)c(F)c(F)c6F)c6ccc([nH]6)c(-c6c(F)c(F)c(F)c(F)c6F)c6nc(c(-c7c(F)c(F)c(F)c(F)c7F)c7ccc4[nH]7)C=C6)C=C5)cc3)cc2[N+](=O)[O-])c1
REMARK SMILES IDX 22 1 23 2 24 3 20 5 19 7 16 8 17 9 98 10 18 11 97 13 15 16
REMARK SMILES IDX 11 17 12 18 102 19 13 20 14 23 10 26 8 27 7 28 9 30 6 31
REMARK SMILES IDX 5 34 4 37 3 40 2 43 1 46 99 50 100 51 101 52 21 53 25 57
REMARK SMILES IDX 26 60 27 63 28 66 29 69 30 72 31 75 32 76 33 78 34 79 35 80
REMARK SMILES IDX 96 81 36 82 95 84 37 86 38 89 39 90 89 91 40 92 94 93 88 94
REMARK SMILES IDX 90 95 41 96 93 97 87 99 86 101 42 103 74 106 54 107 73 108
REMARK SMILES IDX 55 109 58 110 72 111 91 112 56 113 57 115 71 117 92 118
REMARK SMILES IDX 59 121 43 123 44 124 52 125 45 126 46 127 50 128 53 129
REMARK SMILES IDX 47 130 48 131 51 132 49 133 75 134 76 135 84 136 77 137
REMARK SMILES IDX 78 138 82 139 85 140 79 141 80 142 83 143 81 144 60 145
REMARK SMILES IDX 61 146 69 147 62 148 63 149 67 150 70 151 64 152 65 153
REMARK SMILES IDX 68 154 66 155
REMARK H PARENT 24 4 20 6 17 12 18 14 97 15 12 21 102 22 13 24 14 25 7 29 6 32
REMARK H PARENT 6 33 5 35 5 36 4 38 4 39 3 41 3 42 2 44 2 45 1 47 1 48 1 49
REMARK H PARENT 21 54 21 55 21 56 25 58 25 59 26 61 26 62 27 64 27 65 28 67
REMARK H PARENT 28 68 29 70 29 71 30 73 30 74 31 77 35 83 96 85 36 87 95 88
REMARK H PARENT 94 98 88 100 90 102 93 104 87 105 55 114 58 116 91 119 56 120
REMARK H PARENT 92 122
REMARK Flexibility Score: inf
ROOT
ATOM      1  C   UNL A   1      32.867  18.059  25.102  1.00  0.00     0.227 C 
ATOM      2  O   UNL A   1      32.178  17.555  25.998  1.00  0.00    -0.274 OA
ATOM      3  N   UNL A   1      34.199  18.161  25.356  1.00  0.00    -0.356 N 
ATOM      4  H   UNL A   1      34.478  17.749  26.206  1.00  0.00     0.163 HD
ENDROOT
BRANCH   1   5
ATOM      5  C   UNL A   1      32.205  18.505  23.788  1.00  0.00     0.060 C 
ATOM      6  H   UNL A   1      31.169  18.268  23.906  1.00  0.00     0.045 H 
BRANCH   5   7
ATOM      7  C   UNL A   1      32.193  20.012  23.581  1.00  0.00    -0.029 A 
ATOM      8  C   UNL A   1      32.354  22.862  23.276  1.00  0.00     0.060 A 
ATOM      9  C   UNL A   1      32.312  21.993  22.171  1.00  0.00    -0.047 A 
ATOM     10  C   UNL A   1      32.225  22.268  24.546  1.00  0.00     0.277 A 
ATOM     11  C   UNL A   1      32.189  20.608  22.319  1.00  0.00    -0.057 A 
ATOM     12  H   UNL A   1      32.373  22.391  21.220  1.00  0.00     0.063 H 
ATOM     13  C   UNL A   1      32.193  20.866  24.696  1.00  0.00     0.021 A 
ATOM     14  H   UNL A   1      32.094  20.015  21.479  1.00  0.00     0.063 H 
ATOM     15  H   UNL A   1      32.170  20.459  25.643  1.00  0.00     0.070 H 
BRANCH   8  16
ATOM     16  C   UNL A   1      32.574  24.304  23.036  1.00  0.00    -0.008 A 
ATOM     17  C   UNL A   1      31.732  26.565  22.736  1.00  0.00     0.133 A 
ATOM     18  C   UNL A   1      33.025  27.064  22.605  1.00  0.00    -0.019 A 
ATOM     19  C   UNL A   1      31.499  25.207  22.963  1.00  0.00    -0.011 A 
ATOM     20  C   UNL A   1      34.102  26.192  22.706  1.00  0.00    -0.058 A 
ATOM     21  H   UNL A   1      33.181  28.070  22.436  1.00  0.00     0.066 H 
ATOM     22  H   UNL A   1      30.533  24.863  23.076  1.00  0.00     0.067 H 
ATOM     23  C   UNL A   1      33.877  24.826  22.907  1.00  0.00    -0.054 A 
ATOM     24  H   UNL A   1      35.067  26.552  22.632  1.00  0.00     0.062 H 
ATOM     25  H   UNL A   1      34.684  24.186  22.962  1.00  0.00     0.063 H 
BRANCH  17  26
ATOM     26  O   UNL A   1      30.680  27.456  22.466  1.00  0.00    -0.410 OA
BRANCH  26  27
ATOM     27  C   UNL A   1      29.717  27.689  23.436  1.00  0.00     0.412 C 
ATOM     28  N   UNL A   1      30.162  28.512  24.436  1.00  0.00    -0.321 N 
ATOM     29  H   UNL A   1      29.534  28.691  25.171  1.00  0.00     0.167 HD
ATOM     30  O   UNL A   1      28.583  27.229  23.448  1.00  0.00    -0.224 OA
BRANCH  28  31
ATOM     31  C   UNL A   1      31.463  29.147  24.521  1.00  0.00     0.021 C 
ATOM     32  H   UNL A   1      32.186  28.413  24.808  1.00  0.00     0.049 H 
ATOM     33  H   UNL A   1      31.691  29.562  23.561  1.00  0.00     0.049 H 
BRANCH  31  34
ATOM     34  C   UNL A   1      31.482  30.285  25.542  1.00  0.00    -0.036 C 
ATOM     35  H   UNL A   1      31.494  31.211  25.007  1.00  0.00     0.028 H 
ATOM     36  H   UNL A   1      30.610  30.157  26.149  1.00  0.00     0.028 H 
BRANCH  34  37
ATOM     37  C   UNL A   1      32.679  30.272  26.501  1.00  0.00    -0.052 C 
ATOM     38  H   UNL A   1      33.223  31.182  26.361  1.00  0.00     0.027 H 
ATOM     39  H   UNL A   1      32.267  30.162  27.483  1.00  0.00     0.027 H 
BRANCH  37  40
ATOM     40  C   UNL A   1      33.656  29.105  26.322  1.00  0.00    -0.054 C 
ATOM     41  H   UNL A   1      33.121  28.196  26.499  1.00  0.00     0.027 H 
ATOM     42  H   UNL A   1      34.039  29.192  25.327  1.00  0.00     0.027 H 
BRANCH  40  43
ATOM     43  C   UNL A   1      34.876  29.123  27.246  1.00  0.00    -0.056 C 
ATOM     44  H   UNL A   1      34.648  28.551  28.121  1.00  0.00     0.026 H 
ATOM     45  H   UNL A   1      35.696  28.710  26.696  1.00  0.00     0.026 H 
BRANCH  43  46
ATOM     46  C   UNL A   1      35.283  30.523  27.676  1.00  0.00    -0.065 C 
ATOM     47  H   UNL A   1      35.053  31.217  26.895  1.00  0.00     0.023 H 
ATOM     48  H   UNL A   1      36.335  30.544  27.873  1.00  0.00     0.023 H 
ATOM     49  H   UNL A   1      34.749  30.794  28.563  1.00  0.00     0.023 H 
ENDBRANCH  43  46
ENDBRANCH  40  43
ENDBRANCH  37  40
ENDBRANCH  34  37
ENDBRANCH  31  34
ENDBRANCH  28  31
ENDBRANCH  26  27
ENDBRANCH  17  26
ENDBRANCH   8  16
BRANCH  10  50
ATOM     50  N   UNL A   1      32.060  23.065  25.741  1.00  0.00     0.063 N 
ATOM     51  O   UNL A   1      32.996  23.267  26.485  1.00  0.00    -0.258 OA
ATOM     52  O   UNL A   1      30.818  23.497  26.143  1.00  0.00    -0.258 OA
ENDBRANCH  10  50
ENDBRANCH   5   7
BRANCH   5  53
ATOM     53  C   UNL A   1      32.610  17.674  22.571  1.00  0.00    -0.049 C 
ATOM     54  H   UNL A   1      32.398  18.224  21.677  1.00  0.00     0.024 H 
ATOM     55  H   UNL A   1      32.058  16.757  22.566  1.00  0.00     0.024 H 
ATOM     56  H   UNL A   1      33.658  17.460  22.618  1.00  0.00     0.024 H 
ENDBRANCH   5  53
ENDBRANCH   1   5
BRANCH   3  57
ATOM     57  C   UNL A   1      35.284  18.761  24.610  1.00  0.00     0.017 C 
ATOM     58  H   UNL A   1      35.063  18.696  23.564  1.00  0.00     0.049 H 
ATOM     59  H   UNL A   1      36.184  18.233  24.843  1.00  0.00     0.049 H 
BRANCH  57  60
ATOM     60  C   UNL A   1      35.481  20.233  24.985  1.00  0.00    -0.036 C 
ATOM     61  H   UNL A   1      35.445  20.316  26.051  1.00  0.00     0.028 H 
ATOM     62  H   UNL A   1      34.700  20.784  24.503  1.00  0.00     0.028 H 
BRANCH  60  63
ATOM     63  C   UNL A   1      36.808  20.824  24.499  1.00  0.00    -0.052 C 
ATOM     64  H   UNL A   1      37.145  20.241  23.668  1.00  0.00     0.027 H 
ATOM     65  H   UNL A   1      37.472  20.795  25.337  1.00  0.00     0.027 H 
BRANCH  63  66
ATOM     66  C   UNL A   1      36.744  22.291  24.056  1.00  0.00    -0.052 C 
ATOM     67  H   UNL A   1      36.065  22.356  23.231  1.00  0.00     0.027 H 
ATOM     68  H   UNL A   1      37.748  22.568  23.812  1.00  0.00     0.027 H 
BRANCH  66  69
ATOM     69  C   UNL A   1      36.282  23.286  25.126  1.00  0.00    -0.036 C 
ATOM     70  H   UNL A   1      35.489  22.831  25.683  1.00  0.00     0.028 H 
ATOM     71  H   UNL A   1      35.980  24.170  24.606  1.00  0.00     0.028 H 
BRANCH  69  72
ATOM     72  C   UNL A   1      37.367  23.716  26.110  1.00  0.00     0.018 C 
ATOM     73  H   UNL A   1      36.927  23.849  27.076  1.00  0.00     0.049 H 
ATOM     74  H   UNL A   1      37.796  24.629  25.753  1.00  0.00     0.049 H 
BRANCH  72  75
ATOM     75  N   UNL A   1      38.430  22.728  26.211  1.00  0.00    -0.352 N 
ATOM     76  C   UNL A   1      39.769  22.898  26.458  1.00  0.00     0.251 C 
ATOM     77  H   UNL A   1      38.146  21.795  26.081  1.00  0.00     0.163 HD
ATOM     78  O   UNL A   1      40.551  21.968  26.279  1.00  0.00    -0.269 OA
BRANCH  76  79
ATOM     79  C   UNL A   1      40.281  24.200  26.932  1.00  0.00     0.039 A 
ATOM     80  C   UNL A   1      40.386  25.257  26.023  1.00  0.00    -0.049 A 
ATOM     81  C   UNL A   1      40.697  24.372  28.255  1.00  0.00    -0.049 A 
ATOM     82  C   UNL A   1      40.857  26.500  26.452  1.00  0.00    -0.053 A 
ATOM     83  H   UNL A   1      40.117  25.118  25.036  1.00  0.00     0.063 H 
ATOM     84  C   UNL A   1      41.105  25.628  28.698  1.00  0.00    -0.053 A 
ATOM     85  H   UNL A   1      40.703  23.569  28.904  1.00  0.00     0.063 H 
ATOM     86  C   UNL A   1      41.193  26.703  27.799  1.00  0.00    -0.014 A 
ATOM     87  H   UNL A   1      40.957  27.272  25.775  1.00  0.00     0.063 H 
ATOM     88  H   UNL A   1      41.344  25.769  29.692  1.00  0.00     0.063 H 
BRANCH  86  89
ATOM     89  C   UNL A   1      41.637  28.032  28.289  1.00  0.00     0.031 A 
ATOM     90  C   UNL A   1      43.101  28.363  28.363  1.00  0.00     0.074 A 
ATOM     91  C   UNL A   1      40.722  28.913  28.737  1.00  0.00     0.049 A 
ATOM     92  N   UNL A   1      43.685  29.438  28.831  1.00  0.00    -0.248 NA
ATOM     93  C   UNL A   1      44.034  27.337  27.874  1.00  0.00    -0.034 C 
ATOM     94  C   UNL A   1      39.277  28.685  28.769  1.00  0.00    -0.036 A 
ATOM     95  N   UNL A   1      40.874  30.169  29.269  1.00  0.00    -0.354 N 
ATOM     96  C   UNL A   1      45.049  29.208  28.712  1.00  0.00     0.074 A 
ATOM     97  C   UNL A   1      45.208  27.876  28.171  1.00  0.00    -0.034 C 
ATOM     98  H   UNL A   1      43.829  26.434  27.419  1.00  0.00     0.065 H 
ATOM     99  C   UNL A   1      38.674  29.767  29.286  1.00  0.00    -0.036 A 
ATOM    100  H   UNL A   1      38.799  27.829  28.447  1.00  0.00     0.065 H 
ATOM    101  C   UNL A   1      39.690  30.751  29.649  1.00  0.00     0.049 A 
ATOM    102  H   UNL A   1      41.748  30.611  29.369  1.00  0.00     0.167 HD
ATOM    103  C   UNL A   1      46.074  30.042  29.011  1.00  0.00     0.037 A 
ATOM    104  H   UNL A   1      46.117  27.406  28.033  1.00  0.00     0.065 H 
ATOM    105  H   UNL A   1      37.656  29.886  29.406  1.00  0.00     0.065 H 
ATOM    106  C   UNL A   1      39.450  31.939  30.236  1.00  0.00     0.037 A 
ATOM    107  C   UNL A   1      45.910  31.379  29.519  1.00  0.00     0.049 A 
ATOM    108  C   UNL A   1      40.604  32.856  30.536  1.00  0.00     0.074 A 
ATOM    109  C   UNL A   1      46.880  32.332  29.771  1.00  0.00    -0.036 A 
ATOM    110  N   UNL A   1      44.691  31.950  29.858  1.00  0.00    -0.354 N 
ATOM    111  N   UNL A   1      41.886  32.663  30.342  1.00  0.00    -0.248 NA
ATOM    112  C   UNL A   1      40.277  34.161  31.126  1.00  0.00    -0.034 C 
ATOM    113  C   UNL A   1      46.254  33.463  30.307  1.00  0.00    -0.036 A 
ATOM    114  H   UNL A   1      47.892  32.227  29.595  1.00  0.00     0.065 H 
ATOM    115  C   UNL A   1      44.888  33.232  30.342  1.00  0.00     0.049 A 
ATOM    116  H   UNL A   1      43.816  31.508  29.767  1.00  0.00     0.167 HD
ATOM    117  C   UNL A   1      42.516  33.823  30.766  1.00  0.00     0.074 A 
ATOM    118  C   UNL A   1      41.473  34.725  31.212  1.00  0.00    -0.034 C 
ATOM    119  H   UNL A   1      39.357  34.540  31.402  1.00  0.00     0.065 H 
ATOM    120  H   UNL A   1      46.730  34.324  30.622  1.00  0.00     0.065 H 
ATOM    121  C   UNL A   1      43.840  34.116  30.785  1.00  0.00     0.037 A 
ATOM    122  H   UNL A   1      41.642  35.684  31.554  1.00  0.00     0.065 H 
BRANCH 103 123
ATOM    123  C   UNL A   1      47.470  29.529  28.797  1.00  0.00     0.064 A 
ATOM    124  C   UNL A   1      48.188  28.893  29.820  1.00  0.00     0.173 A 
ATOM    125  C   UNL A   1      48.086  29.651  27.542  1.00  0.00     0.173 A 
ATOM    126  F   UNL A   1      47.648  28.760  31.042  1.00  0.00    -0.203 F 
ATOM    127  C   UNL A   1      49.482  28.426  29.605  1.00  0.00     0.198 A 
ATOM    128  C   UNL A   1      49.368  29.155  27.322  1.00  0.00     0.198 A 
ATOM    129  F   UNL A   1      47.441  30.244  26.526  1.00  0.00    -0.203 F 
ATOM    130  F   UNL A   1      50.168  27.868  30.613  1.00  0.00    -0.200 F 
ATOM    131  C   UNL A   1      50.069  28.552  28.356  1.00  0.00     0.200 A 
ATOM    132  F   UNL A   1      49.929  29.266  26.110  1.00  0.00    -0.200 F 
ATOM    133  F   UNL A   1      51.312  28.098  28.148  1.00  0.00    -0.200 F 
ENDBRANCH 103 123
BRANCH 106 134
ATOM    134  C   UNL A   1      38.055  32.333  30.556  1.00  0.00     0.064 A 
ATOM    135  C   UNL A   1      37.283  33.062  29.642  1.00  0.00     0.173 A 
ATOM    136  C   UNL A   1      37.459  31.971  31.774  1.00  0.00     0.173 A 
ATOM    137  F   UNL A   1      37.817  33.447  28.474  1.00  0.00    -0.203 F 
ATOM    138  C   UNL A   1      35.973  33.430  29.939  1.00  0.00     0.198 A 
ATOM    139  C   UNL A   1      36.140  32.316  32.059  1.00  0.00     0.198 A 
ATOM    140  F   UNL A   1      38.154  31.267  32.679  1.00  0.00    -0.203 F 
ATOM    141  F   UNL A   1      35.269  34.159  29.063  1.00  0.00    -0.200 F 
ATOM    142  C   UNL A   1      35.400  33.051  31.145  1.00  0.00     0.200 A 
ATOM    143  F   UNL A   1      35.585  31.934  33.217  1.00  0.00    -0.200 F 
ATOM    144  F   UNL A   1      34.136  33.395  31.426  1.00  0.00    -0.200 F 
ENDBRANCH 106 134
BRANCH 121 145
ATOM    145  C   UNL A   1      44.235  35.474  31.287  1.00  0.00     0.064 A 
ATOM    146  C   UNL A   1      44.243  36.595  30.444  1.00  0.00     0.173 A 
ATOM    147  C   UNL A   1      44.570  35.664  32.637  1.00  0.00     0.173 A 
ATOM    148  F   UNL A   1      43.947  36.462  29.142  1.00  0.00    -0.203 F 
ATOM    149  C   UNL A   1      44.593  37.852  30.928  1.00  0.00     0.198 A 
ATOM    150  C   UNL A   1      44.892  36.927  33.125  1.00  0.00     0.198 A 
ATOM    151  F   UNL A   1      44.572  34.624  33.485  1.00  0.00    -0.203 F 
ATOM    152  F   UNL A   1      44.638  38.901  30.095  1.00  0.00    -0.200 F 
ATOM    153  C   UNL A   1      44.910  38.018  32.269  1.00  0.00     0.200 A 
ATOM    154  F   UNL A   1      45.186  37.088  34.421  1.00  0.00    -0.200 F 
ATOM    155  F   UNL A   1      45.240  39.230  32.735  1.00  0.00    -0.200 F 
ENDBRANCH 121 145
ENDBRANCH  86  89
ENDBRANCH  76  79
ENDBRANCH  72  75
ENDBRANCH  69  72
ENDBRANCH  66  69
ENDBRANCH  63  66
ENDBRANCH  60  63
ENDBRANCH  57  60
ENDBRANCH   3  57
TORSDOF 25
ENDMDL
MODEL 8
REMARK VINA RESULT:     -10.1      4.889     10.081
REMARK SMILES CCCCCCNC(=O)Oc1cccc(-c2ccc([C@@H](C)C(=O)NCCCCCCNC(=O)c3ccc(-c4c5nc(c(-c6c(F)c(F)c(F)c(F)c6F)c6ccc([nH]6)c(-c6c(F)c(F)c(F)c(F)c6F)c6nc(c(-c7c(F)c(F)c(F)c(F)c7F)c7ccc4[nH]7)C=C6)C=C5)cc3)cc2[N+](=O)[O-])c1
REMARK SMILES IDX 22 1 23 2 24 3 20 5 19 7 16 8 17 9 98 10 18 11 97 13 15 16
REMARK SMILES IDX 11 17 12 18 102 19 13 20 14 23 10 26 8 27 7 28 9 30 6 31
REMARK SMILES IDX 5 34 4 37 3 40 2 43 1 46 99 50 100 51 101 52 21 53 25 57
REMARK SMILES IDX 26 60 27 63 28 66 29 69 30 72 31 75 32 76 33 78 34 79 35 80
REMARK SMILES IDX 96 81 36 82 95 84 37 86 38 89 39 90 89 91 40 92 94 93 88 94
REMARK SMILES IDX 90 95 41 96 93 97 87 99 86 101 42 103 74 106 54 107 73 108
REMARK SMILES IDX 55 109 58 110 72 111 91 112 56 113 57 115 71 117 92 118
REMARK SMILES IDX 59 121 43 123 44 124 52 125 45 126 46 127 50 128 53 129
REMARK SMILES IDX 47 130 48 131 51 132 49 133 75 134 76 135 84 136 77 137
REMARK SMILES IDX 78 138 82 139 85 140 79 141 80 142 83 143 81 144 60 145
REMARK SMILES IDX 61 146 69 147 62 148 63 149 67 150 70 151 64 152 65 153
REMARK SMILES IDX 68 154 66 155
REMARK H PARENT 24 4 20 6 17 12 18 14 97 15 12 21 102 22 13 24 14 25 7 29 6 32
REMARK H PARENT 6 33 5 35 5 36 4 38 4 39 3 41 3 42 2 44 2 45 1 47 1 48 1 49
REMARK H PARENT 21 54 21 55 21 56 25 58 25 59 26 61 26 62 27 64 27 65 28 67
REMARK H PARENT 28 68 29 70 29 71 30 73 30 74 31 77 35 83 96 85 36 87 95 88
REMARK H PARENT 94 98 88 100 90 102 93 104 87 105 55 114 58 116 91 119 56 120
REMARK H PARENT 92 122
REMARK Flexibility Score: inf
ROOT
ATOM      1  C   UNL A   1      32.968  17.858  25.156  1.00  0.00     0.227 C 
ATOM      2  O   UNL A   1      32.313  17.238  26.003  1.00  0.00    -0.274 OA
ATOM      3  N   UNL A   1      34.321  17.788  25.277  1.00  0.00    -0.356 N 
ATOM      4  H   UNL A   1      34.630  17.184  25.990  1.00  0.00     0.163 HD
ENDROOT
BRANCH   1   5
ATOM      5  C   UNL A   1      32.242  18.625  24.040  1.00  0.00     0.060 C 
ATOM      6  H   UNL A   1      31.203  18.422  24.195  1.00  0.00     0.045 H 
BRANCH   5   7
ATOM      7  C   UNL A   1      32.322  20.139  24.176  1.00  0.00    -0.029 A 
ATOM      8  C   UNL A   1      32.639  22.967  24.545  1.00  0.00     0.060 A 
ATOM      9  C   UNL A   1      32.752  22.361  23.281  1.00  0.00    -0.047 A 
ATOM     10  C   UNL A   1      32.273  22.126  25.614  1.00  0.00     0.277 A 
ATOM     11  C   UNL A   1      32.554  20.989  23.094  1.00  0.00    -0.057 A 
ATOM     12  H   UNL A   1      32.989  22.948  22.465  1.00  0.00     0.063 H 
ATOM     13  C   UNL A   1      32.164  20.731  25.439  1.00  0.00     0.021 A 
ATOM     14  H   UNL A   1      32.581  20.599  22.139  1.00  0.00     0.063 H 
ATOM     15  H   UNL A   1      31.965  20.133  26.256  1.00  0.00     0.070 H 
BRANCH   8  16
ATOM     16  C   UNL A   1      32.950  24.407  24.672  1.00  0.00    -0.008 A 
ATOM     17  C   UNL A   1      32.748  26.704  23.902  1.00  0.00     0.133 A 
ATOM     18  C   UNL A   1      33.538  27.161  24.954  1.00  0.00    -0.019 A 
ATOM     19  C   UNL A   1      32.440  25.350  23.762  1.00  0.00    -0.011 A 
ATOM     20  C   UNL A   1      34.026  26.248  25.881  1.00  0.00    -0.058 A 
ATOM     21  H   UNL A   1      33.758  28.165  25.043  1.00  0.00     0.066 H 
ATOM     22  H   UNL A   1      31.835  25.038  22.985  1.00  0.00     0.067 H 
ATOM     23  C   UNL A   1      33.744  24.886  25.733  1.00  0.00    -0.054 A 
ATOM     24  H   UNL A   1      34.595  26.574  26.678  1.00  0.00     0.062 H 
ATOM     25  H   UNL A   1      34.127  24.215  26.418  1.00  0.00     0.063 H 
BRANCH  17  26
ATOM     26  O   UNL A   1      32.417  27.641  22.908  1.00  0.00    -0.410 OA
BRANCH  26  27
ATOM     27  C   UNL A   1      31.310  27.420  22.104  1.00  0.00     0.412 C 
ATOM     28  N   UNL A   1      30.504  28.521  21.999  1.00  0.00    -0.321 N 
ATOM     29  H   UNL A   1      29.684  28.418  21.465  1.00  0.00     0.167 HD
ATOM     30  O   UNL A   1      31.034  26.373  21.533  1.00  0.00    -0.224 OA
BRANCH  28  31
ATOM     31  C   UNL A   1      30.734  29.823  22.593  1.00  0.00     0.021 C 
ATOM     32  H   UNL A   1      31.775  29.918  22.823  1.00  0.00     0.049 H 
ATOM     33  H   UNL A   1      30.422  30.567  21.889  1.00  0.00     0.049 H 
BRANCH  31  34
ATOM     34  C   UNL A   1      29.926  30.022  23.876  1.00  0.00    -0.036 C 
ATOM     35  H   UNL A   1      29.333  29.146  24.034  1.00  0.00     0.028 H 
ATOM     36  H   UNL A   1      30.639  30.198  24.654  1.00  0.00     0.028 H 
BRANCH  34  37
ATOM     37  C   UNL A   1      28.990  31.237  23.868  1.00  0.00    -0.052 C 
ATOM     38  H   UNL A   1      28.778  31.496  24.884  1.00  0.00     0.027 H 
ATOM     39  H   UNL A   1      29.508  32.002  23.327  1.00  0.00     0.027 H 
BRANCH  37  40
ATOM     40  C   UNL A   1      27.655  31.038  23.142  1.00  0.00    -0.054 C 
ATOM     41  H   UNL A   1      27.277  30.074  23.406  1.00  0.00     0.027 H 
ATOM     42  H   UNL A   1      27.028  31.847  23.454  1.00  0.00     0.027 H 
BRANCH  40  43
ATOM     43  C   UNL A   1      27.719  31.119  21.615  1.00  0.00    -0.056 C 
ATOM     44  H   UNL A   1      28.483  30.454  21.271  1.00  0.00     0.026 H 
ATOM     45  H   UNL A   1      26.753  30.851  21.243  1.00  0.00     0.026 H 
BRANCH  43  46
ATOM     46  C   UNL A   1      28.028  32.516  21.100  1.00  0.00    -0.065 C 
ATOM     47  H   UNL A   1      27.121  32.987  20.783  1.00  0.00     0.023 H 
ATOM     48  H   UNL A   1      28.703  32.450  20.273  1.00  0.00     0.023 H 
ATOM     49  H   UNL A   1      28.476  33.094  21.881  1.00  0.00     0.023 H 
ENDBRANCH  43  46
ENDBRANCH  40  43
ENDBRANCH  37  40
ENDBRANCH  34  37
ENDBRANCH  31  34
ENDBRANCH  28  31
ENDBRANCH  26  27
ENDBRANCH  17  26
ENDBRANCH   8  16
BRANCH  10  50
ATOM     50  N   UNL A   1      31.937  22.659  26.915  1.00  0.00     0.063 N 
ATOM     51  O   UNL A   1      32.641  22.434  27.877  1.00  0.00    -0.258 OA
ATOM     52  O   UNL A   1      30.746  23.312  27.132  1.00  0.00    -0.258 OA
ENDBRANCH  10  50
ENDBRANCH   5   7
BRANCH   5  53
ATOM     53  C   UNL A   1      32.493  18.074  22.637  1.00  0.00    -0.049 C 
ATOM     54  H   UNL A   1      32.350  17.013  22.640  1.00  0.00     0.024 H 
ATOM     55  H   UNL A   1      33.496  18.298  22.340  1.00  0.00     0.024 H 
ATOM     56  H   UNL A   1      31.808  18.524  21.948  1.00  0.00     0.024 H 
ENDBRANCH   5  53
ENDBRANCH   1   5
BRANCH   3  57
ATOM     57  C   UNL A   1      35.392  18.436  24.551  1.00  0.00     0.017 C 
ATOM     58  H   UNL A   1      35.160  18.424  23.506  1.00  0.00     0.049 H 
ATOM     59  H   UNL A   1      36.299  17.905  24.747  1.00  0.00     0.049 H 
BRANCH  57  60
ATOM     60  C   UNL A   1      35.581  19.888  25.000  1.00  0.00    -0.036 C 
ATOM     61  H   UNL A   1      35.419  19.937  26.057  1.00  0.00     0.028 H 
ATOM     62  H   UNL A   1      34.878  20.478  24.449  1.00  0.00     0.028 H 
BRANCH  60  63
ATOM     63  C   UNL A   1      36.972  20.454  24.698  1.00  0.00    -0.052 C 
ATOM     64  H   UNL A   1      37.367  19.929  23.853  1.00  0.00     0.027 H 
ATOM     65  H   UNL A   1      37.548  20.322  25.589  1.00  0.00     0.027 H 
BRANCH  63  66
ATOM     66  C   UNL A   1      37.010  21.956  24.383  1.00  0.00    -0.052 C 
ATOM     67  H   UNL A   1      36.270  22.153  23.636  1.00  0.00     0.027 H 
ATOM     68  H   UNL A   1      38.011  22.164  24.068  1.00  0.00     0.027 H 
BRANCH  66  69
ATOM     69  C   UNL A   1      36.741  22.886  25.571  1.00  0.00    -0.036 C 
ATOM     70  H   UNL A   1      36.312  22.304  26.359  1.00  0.00     0.028 H 
ATOM     71  H   UNL A   1      36.090  23.654  25.210  1.00  0.00     0.028 H 
BRANCH  69  72
ATOM     72  C   UNL A   1      37.976  23.594  26.121  1.00  0.00     0.018 C 
ATOM     73  H   UNL A   1      37.745  23.998  27.085  1.00  0.00     0.049 H 
ATOM     74  H   UNL A   1      38.248  24.369  25.434  1.00  0.00     0.049 H 
BRANCH  72  75
ATOM     75  N   UNL A   1      39.108  22.689  26.249  1.00  0.00    -0.352 N 
ATOM     76  C   UNL A   1      40.428  22.961  26.509  1.00  0.00     0.251 C 
ATOM     77  H   UNL A   1      38.894  21.736  26.132  1.00  0.00     0.163 HD
ATOM     78  O   UNL A   1      41.277  22.089  26.354  1.00  0.00    -0.269 OA
BRANCH  76  79
ATOM     79  C   UNL A   1      40.836  24.305  26.968  1.00  0.00     0.039 A 
ATOM     80  C   UNL A   1      40.806  25.367  26.060  1.00  0.00    -0.049 A 
ATOM     81  C   UNL A   1      41.289  24.513  28.273  1.00  0.00    -0.049 A 
ATOM     82  C   UNL A   1      41.177  26.648  26.475  1.00  0.00    -0.053 A 
ATOM     83  H   UNL A   1      40.510  25.205  25.084  1.00  0.00     0.063 H 
ATOM     84  C   UNL A   1      41.597  25.801  28.705  1.00  0.00    -0.053 A 
ATOM     85  H   UNL A   1      41.395  23.714  28.918  1.00  0.00     0.063 H 
ATOM     86  C   UNL A   1      41.549  26.880  27.808  1.00  0.00    -0.014 A 
ATOM     87  H   UNL A   1      41.179  27.427  25.799  1.00  0.00     0.063 H 
ATOM     88  H   UNL A   1      41.863  25.963  29.689  1.00  0.00     0.063 H 
BRANCH  86  89
ATOM     89  C   UNL A   1      41.888  28.244  28.286  1.00  0.00     0.031 A 
ATOM     90  C   UNL A   1      43.320  28.698  28.330  1.00  0.00     0.074 A 
ATOM     91  C   UNL A   1      40.911  29.046  28.750  1.00  0.00     0.049 A 
ATOM     92  N   UNL A   1      43.819  29.821  28.783  1.00  0.00    -0.248 NA
ATOM     93  C   UNL A   1      44.327  27.753  27.824  1.00  0.00    -0.034 C 
ATOM     94  C   UNL A   1      39.492  28.697  28.812  1.00  0.00    -0.036 A 
ATOM     95  N   UNL A   1      40.967  30.313  29.276  1.00  0.00    -0.354 N 
ATOM     96  C   UNL A   1      45.196  29.707  28.637  1.00  0.00     0.074 A 
ATOM     97  C   UNL A   1      45.457  28.391  28.095  1.00  0.00    -0.034 C 
ATOM     98  H   UNL A   1      44.190  26.834  27.375  1.00  0.00     0.065 H 
ATOM     99  C   UNL A   1      38.809  29.726  29.339  1.00  0.00    -0.036 A 
ATOM    100  H   UNL A   1      39.081  27.802  28.502  1.00  0.00     0.065 H 
ATOM    101  C   UNL A   1      39.745  30.794  29.679  1.00  0.00     0.049 A 
ATOM    102  H   UNL A   1      41.802  30.827  29.357  1.00  0.00     0.167 HD
ATOM    103  C   UNL A   1      46.153  30.626  28.913  1.00  0.00     0.037 A 
ATOM    104  H   UNL A   1      46.399  27.999  27.941  1.00  0.00     0.065 H 
ATOM    105  H   UNL A   1      37.787  29.758  29.479  1.00  0.00     0.065 H 
ATOM    106  C   UNL A   1      39.418  31.959  30.267  1.00  0.00     0.037 A 
ATOM    107  C   UNL A   1      45.885  31.946  29.421  1.00  0.00     0.049 A 
ATOM    108  C   UNL A   1      40.495  32.972  30.541  1.00  0.00     0.074 A 
ATOM    109  C   UNL A   1      46.777  32.979  29.651  1.00  0.00    -0.036 A 
ATOM    110  N   UNL A   1      44.630  32.413  29.783  1.00  0.00    -0.354 N 
ATOM    111  N   UNL A   1      41.784  32.888  30.322  1.00  0.00    -0.248 NA
ATOM    112  C   UNL A   1      40.071  34.247  31.135  1.00  0.00    -0.034 C 
ATOM    113  C   UNL A   1      46.068  34.055  30.196  1.00  0.00    -0.036 A 
ATOM    114  H   UNL A   1      47.790  32.960  29.454  1.00  0.00     0.065 H 
ATOM    115  C   UNL A   1      44.727  33.710  30.260  1.00  0.00     0.049 A 
ATOM    116  H   UNL A   1      43.794  31.898  29.711  1.00  0.00     0.167 HD
ATOM    117  C   UNL A   1      42.322  34.099  30.731  1.00  0.00     0.074 A 
ATOM    118  C   UNL A   1      41.216  34.912  31.196  1.00  0.00    -0.034 C 
ATOM    119  H   UNL A   1      39.127  34.548  31.428  1.00  0.00     0.065 H 
ATOM    120  H   UNL A   1      46.474  34.954  30.499  1.00  0.00     0.065 H 
ATOM    121  C   UNL A   1      43.617  34.504  30.722  1.00  0.00     0.037 A 
ATOM    122  H   UNL A   1      41.309  35.882  31.531  1.00  0.00     0.065 H 
BRANCH 103 123
ATOM    123  C   UNL A   1      47.582  30.233  28.672  1.00  0.00     0.064 A 
ATOM    124  C   UNL A   1      48.262  30.601  27.501  1.00  0.00     0.173 A 
ATOM    125  C   UNL A   1      48.290  29.503  29.639  1.00  0.00     0.173 A 
ATOM    126  F   UNL A   1      47.627  31.291  26.541  1.00  0.00    -0.203 F 
ATOM    127  C   UNL A   1      49.587  30.226  27.293  1.00  0.00     0.198 A 
ATOM    128  C   UNL A   1      49.624  29.156  29.441  1.00  0.00     0.198 A 
ATOM    129  F   UNL A   1      47.691  29.132  30.780  1.00  0.00    -0.203 F 
ATOM    130  F   UNL A   1      50.199  30.544  26.144  1.00  0.00    -0.200 F 
ATOM    131  C   UNL A   1      50.268  29.509  28.265  1.00  0.00     0.200 A 
ATOM    132  F   UNL A   1      50.285  28.474  30.387  1.00  0.00    -0.200 F 
ATOM    133  F   UNL A   1      51.544  29.153  28.065  1.00  0.00    -0.200 F 
ENDBRANCH 103 123
BRANCH 106 134
ATOM    134  C   UNL A   1      38.000  32.235  30.615  1.00  0.00     0.064 A 
ATOM    135  C   UNL A   1      37.106  32.731  29.658  1.00  0.00     0.173 A 
ATOM    136  C   UNL A   1      37.508  31.990  31.905  1.00  0.00     0.173 A 
ATOM    137  F   UNL A   1      37.536  32.999  28.416  1.00  0.00    -0.203 F 
ATOM    138  C   UNL A   1      35.775  32.988  29.980  1.00  0.00     0.198 A 
ATOM    139  C   UNL A   1      36.171  32.221  32.220  1.00  0.00     0.198 A 
ATOM    140  F   UNL A   1      38.323  31.509  32.855  1.00  0.00    -0.203 F 
ATOM    141  F   UNL A   1      34.949  33.496  29.056  1.00  0.00    -0.200 F 
ATOM    142  C   UNL A   1      35.307  32.725  31.260  1.00  0.00     0.200 A 
ATOM    143  F   UNL A   1      35.718  31.952  33.453  1.00  0.00    -0.200 F 
ATOM    144  F   UNL A   1      34.024  32.962  31.568  1.00  0.00    -0.200 F 
ENDBRANCH 106 134
BRANCH 121 145
ATOM    145  C   UNL A   1      43.905  35.892  31.212  1.00  0.00     0.064 A 
ATOM    146  C   UNL A   1      44.280  36.139  32.540  1.00  0.00     0.173 A 
ATOM    147  C   UNL A   1      43.845  36.983  30.331  1.00  0.00     0.173 A 
ATOM    148  F   UNL A   1      44.336  35.132  33.424  1.00  0.00    -0.203 F 
ATOM    149  C   UNL A   1      44.563  37.431  32.976  1.00  0.00     0.198 A 
ATOM    150  C   UNL A   1      44.156  38.270  30.762  1.00  0.00     0.198 A 
ATOM    151  F   UNL A   1      43.497  36.799  29.049  1.00  0.00    -0.203 F 
ATOM    152  F   UNL A   1      44.876  37.650  34.260  1.00  0.00    -0.200 F 
ATOM    153  C   UNL A   1      44.508  38.494  32.085  1.00  0.00     0.200 A 
ATOM    154  F   UNL A   1      44.115  39.293  29.899  1.00  0.00    -0.200 F 
ATOM    155  F   UNL A   1      44.788  39.735  32.504  1.00  0.00    -0.200 F 
ENDBRANCH 121 145
ENDBRANCH  86  89
ENDBRANCH  76  79
ENDBRANCH  72  75
ENDBRANCH  69  72
ENDBRANCH  66  69
ENDBRANCH  63  66
ENDBRANCH  60  63
ENDBRANCH  57  60
ENDBRANCH   3  57
TORSDOF 25
ENDMDL
MODEL 9
REMARK VINA RESULT:     -10.1      5.217     10.232
REMARK SMILES CCCCCCNC(=O)Oc1cccc(-c2ccc([C@@H](C)C(=O)NCCCCCCNC(=O)c3ccc(-c4c5nc(c(-c6c(F)c(F)c(F)c(F)c6F)c6ccc([nH]6)c(-c6c(F)c(F)c(F)c(F)c6F)c6nc(c(-c7c(F)c(F)c(F)c(F)c7F)c7ccc4[nH]7)C=C6)C=C5)cc3)cc2[N+](=O)[O-])c1
REMARK SMILES IDX 22 1 23 2 24 3 20 5 19 7 16 8 17 9 98 10 18 11 97 13 15 16
REMARK SMILES IDX 11 17 12 18 102 19 13 20 14 23 10 26 8 27 7 28 9 30 6 31
REMARK SMILES IDX 5 34 4 37 3 40 2 43 1 46 99 50 100 51 101 52 21 53 25 57
REMARK SMILES IDX 26 60 27 63 28 66 29 69 30 72 31 75 32 76 33 78 34 79 35 80
REMARK SMILES IDX 96 81 36 82 95 84 37 86 38 89 39 90 89 91 40 92 94 93 88 94
REMARK SMILES IDX 90 95 41 96 93 97 87 99 86 101 42 103 74 106 54 107 73 108
REMARK SMILES IDX 55 109 58 110 72 111 91 112 56 113 57 115 71 117 92 118
REMARK SMILES IDX 59 121 43 123 44 124 52 125 45 126 46 127 50 128 53 129
REMARK SMILES IDX 47 130 48 131 51 132 49 133 75 134 76 135 84 136 77 137
REMARK SMILES IDX 78 138 82 139 85 140 79 141 80 142 83 143 81 144 60 145
REMARK SMILES IDX 61 146 69 147 62 148 63 149 67 150 70 151 64 152 65 153
REMARK SMILES IDX 68 154 66 155
REMARK H PARENT 24 4 20 6 17 12 18 14 97 15 12 21 102 22 13 24 14 25 7 29 6 32
REMARK H PARENT 6 33 5 35 5 36 4 38 4 39 3 41 3 42 2 44 2 45 1 47 1 48 1 49
REMARK H PARENT 21 54 21 55 21 56 25 58 25 59 26 61 26 62 27 64 27 65 28 67
REMARK H PARENT 28 68 29 70 29 71 30 73 30 74 31 77 35 83 96 85 36 87 95 88
REMARK H PARENT 94 98 88 100 90 102 93 104 87 105 55 114 58 116 91 119 56 120
REMARK H PARENT 92 122
REMARK Flexibility Score: inf
ROOT
ATOM      1  C   UNL A   1      47.912  27.759  27.854  1.00  0.00     0.227 C 
ATOM      2  O   UNL A   1      48.993  27.847  27.256  1.00  0.00    -0.274 OA
ATOM      3  N   UNL A   1      47.976  27.783  29.212  1.00  0.00    -0.356 N 
ATOM      4  H   UNL A   1      48.879  27.943  29.569  1.00  0.00     0.163 HD
ENDROOT
BRANCH   1   5
ATOM      5  C   UNL A   1      46.603  27.657  27.054  1.00  0.00     0.060 C 
ATOM      6  H   UNL A   1      46.854  27.990  26.069  1.00  0.00     0.045 H 
BRANCH   5   7
ATOM      7  C   UNL A   1      46.128  26.230  26.826  1.00  0.00    -0.029 A 
ATOM      8  C   UNL A   1      45.041  23.609  26.392  1.00  0.00     0.060 A 
ATOM      9  C   UNL A   1      45.864  24.243  25.444  1.00  0.00    -0.047 A 
ATOM     10  C   UNL A   1      44.846  24.290  27.609  1.00  0.00     0.277 A 
ATOM     11  C   UNL A   1      46.429  25.501  25.674  1.00  0.00    -0.057 A 
ATOM     12  H   UNL A   1      46.057  23.764  24.550  1.00  0.00     0.063 H 
ATOM     13  C   UNL A   1      45.342  25.596  27.801  1.00  0.00     0.021 A 
ATOM     14  H   UNL A   1      47.080  25.899  24.979  1.00  0.00     0.063 H 
ATOM     15  H   UNL A   1      45.122  26.097  28.676  1.00  0.00     0.070 H 
BRANCH   8  16
ATOM     16  C   UNL A   1      44.412  22.319  26.036  1.00  0.00    -0.008 A 
ATOM     17  C   UNL A   1      42.444  20.956  25.611  1.00  0.00     0.133 A 
ATOM     18  C   UNL A   1      43.234  19.846  25.325  1.00  0.00    -0.019 A 
ATOM     19  C   UNL A   1      43.015  22.185  25.949  1.00  0.00    -0.011 A 
ATOM     20  C   UNL A   1      44.617  19.967  25.376  1.00  0.00    -0.058 A 
ATOM     21  H   UNL A   1      42.796  18.945  25.079  1.00  0.00     0.066 H 
ATOM     22  H   UNL A   1      42.409  22.999  26.137  1.00  0.00     0.067 H 
ATOM     23  C   UNL A   1      45.197  21.187  25.739  1.00  0.00    -0.054 A 
ATOM     24  H   UNL A   1      45.216  19.159  25.145  1.00  0.00     0.062 H 
ATOM     25  H   UNL A   1      46.226  21.260  25.791  1.00  0.00     0.063 H 
BRANCH  17  26
ATOM     26  O   UNL A   1      41.059  20.739  25.703  1.00  0.00    -0.410 OA
BRANCH  26  27
ATOM     27  C   UNL A   1      40.402  21.017  26.892  1.00  0.00     0.412 C 
ATOM     28  N   UNL A   1      39.211  21.663  26.700  1.00  0.00    -0.321 N 
ATOM     29  H   UNL A   1      38.711  21.915  27.509  1.00  0.00     0.167 HD
ATOM     30  O   UNL A   1      40.803  20.742  28.016  1.00  0.00    -0.224 OA
BRANCH  28  31
ATOM     31  C   UNL A   1      38.610  22.013  25.428  1.00  0.00     0.021 C 
ATOM     32  H   UNL A   1      38.161  22.981  25.514  1.00  0.00     0.049 H 
ATOM     33  H   UNL A   1      39.382  22.008  24.686  1.00  0.00     0.049 H 
BRANCH  31  34
ATOM     34  C   UNL A   1      37.539  21.009  25.001  1.00  0.00    -0.036 C 
ATOM     35  H   UNL A   1      37.683  20.791  23.964  1.00  0.00     0.028 H 
ATOM     36  H   UNL A   1      37.661  20.154  25.634  1.00  0.00     0.028 H 
BRANCH  34  37
ATOM     37  C   UNL A   1      36.094  21.484  25.193  1.00  0.00    -0.052 C 
ATOM     38  H   UNL A   1      35.529  21.174  24.339  1.00  0.00     0.027 H 
ATOM     39  H   UNL A   1      35.761  21.048  26.112  1.00  0.00     0.027 H 
BRANCH  37  40
ATOM     40  C   UNL A   1      35.913  22.997  25.356  1.00  0.00    -0.054 C 
ATOM     41  H   UNL A   1      35.313  23.166  26.224  1.00  0.00     0.027 H 
ATOM     42  H   UNL A   1      36.899  23.406  25.427  1.00  0.00     0.027 H 
BRANCH  40  43
ATOM     43  C   UNL A   1      35.247  23.709  24.175  1.00  0.00    -0.056 C 
ATOM     44  H   UNL A   1      34.708  24.554  24.549  1.00  0.00     0.026 H 
ATOM     45  H   UNL A   1      36.024  23.994  23.498  1.00  0.00     0.026 H 
BRANCH  43  46
ATOM     46  C   UNL A   1      34.282  22.823  23.406  1.00  0.00    -0.065 C 
ATOM     47  H   UNL A   1      34.284  23.104  22.374  1.00  0.00     0.023 H 
ATOM     48  H   UNL A   1      33.295  22.939  23.804  1.00  0.00     0.023 H 
ATOM     49  H   UNL A   1      34.584  21.800  23.497  1.00  0.00     0.023 H 
ENDBRANCH  43  46
ENDBRANCH  40  43
ENDBRANCH  37  40
ENDBRANCH  34  37
ENDBRANCH  31  34
ENDBRANCH  28  31
ENDBRANCH  26  27
ENDBRANCH  17  26
ENDBRANCH   8  16
BRANCH  10  50
ATOM     50  N   UNL A   1      44.185  23.660  28.731  1.00  0.00     0.063 N 
ATOM     51  O   UNL A   1      43.004  23.847  28.938  1.00  0.00    -0.258 OA
ATOM     52  O   UNL A   1      44.896  22.953  29.672  1.00  0.00    -0.258 OA
ENDBRANCH  10  50
ENDBRANCH   5   7
BRANCH   5  53
ATOM     53  C   UNL A   1      45.527  28.651  27.488  1.00  0.00    -0.049 C 
ATOM     54  H   UNL A   1      44.585  28.148  27.560  1.00  0.00     0.024 H 
ATOM     55  H   UNL A   1      45.457  29.438  26.767  1.00  0.00     0.024 H 
ATOM     56  H   UNL A   1      45.785  29.062  28.442  1.00  0.00     0.024 H 
ENDBRANCH   5  53
ENDBRANCH   1   5
BRANCH   3  57
ATOM     57  C   UNL A   1      46.961  27.616  30.230  1.00  0.00     0.017 C 
ATOM     58  H   UNL A   1      45.997  27.740  29.783  1.00  0.00     0.049 H 
ATOM     59  H   UNL A   1      47.126  28.349  30.991  1.00  0.00     0.049 H 
BRANCH  57  60
ATOM     60  C   UNL A   1      47.033  26.231  30.878  1.00  0.00    -0.036 C 
ATOM     61  H   UNL A   1      47.924  25.745  30.537  1.00  0.00     0.028 H 
ATOM     62  H   UNL A   1      46.144  25.707  30.593  1.00  0.00     0.028 H 
BRANCH  60  63
ATOM     63  C   UNL A   1      47.058  26.263  32.410  1.00  0.00    -0.052 C 
ATOM     64  H   UNL A   1      46.445  27.078  32.734  1.00  0.00     0.027 H 
ATOM     65  H   UNL A   1      48.085  26.366  32.689  1.00  0.00     0.027 H 
BRANCH  63  66
ATOM     66  C   UNL A   1      46.555  24.986  33.096  1.00  0.00    -0.052 C 
ATOM     67  H   UNL A   1      46.448  24.230  32.347  1.00  0.00     0.027 H 
ATOM     68  H   UNL A   1      45.636  25.254  33.575  1.00  0.00     0.027 H 
BRANCH  66  69
ATOM     69  C   UNL A   1      47.459  24.430  34.202  1.00  0.00    -0.036 C 
ATOM     70  H   UNL A   1      48.098  23.690  33.768  1.00  0.00     0.028 H 
ATOM     71  H   UNL A   1      46.807  24.039  34.954  1.00  0.00     0.028 H 
BRANCH  69  72
ATOM     72  C   UNL A   1      48.337  25.470  34.893  1.00  0.00     0.018 C 
ATOM     73  H   UNL A   1      48.209  26.413  34.404  1.00  0.00     0.049 H 
ATOM     74  H   UNL A   1      49.353  25.139  34.832  1.00  0.00     0.049 H 
BRANCH  72  75
ATOM     75  N   UNL A   1      47.995  25.620  36.299  1.00  0.00    -0.352 N 
ATOM     76  C   UNL A   1      47.001  26.359  36.889  1.00  0.00     0.251 C 
ATOM     77  H   UNL A   1      48.565  25.115  36.923  1.00  0.00     0.163 HD
ATOM     78  O   UNL A   1      47.009  26.544  38.102  1.00  0.00    -0.269 OA
BRANCH  76  79
ATOM     79  C   UNL A   1      45.919  26.944  36.069  1.00  0.00     0.039 A 
ATOM     80  C   UNL A   1      44.711  26.251  35.951  1.00  0.00    -0.049 A 
ATOM     81  C   UNL A   1      46.106  28.147  35.384  1.00  0.00    -0.049 A 
ATOM     82  C   UNL A   1      43.672  26.791  35.190  1.00  0.00    -0.053 A 
ATOM     83  H   UNL A   1      44.587  25.342  36.425  1.00  0.00     0.063 H 
ATOM     84  C   UNL A   1      45.048  28.717  34.679  1.00  0.00    -0.053 A 
ATOM     85  H   UNL A   1      47.026  28.615  35.400  1.00  0.00     0.063 H 
ATOM     86  C   UNL A   1      43.822  28.041  34.570  1.00  0.00    -0.014 A 
ATOM     87  H   UNL A   1      42.789  26.267  35.082  1.00  0.00     0.063 H 
ATOM     88  H   UNL A   1      45.166  29.640  34.232  1.00  0.00     0.063 H 
BRANCH  86  89
ATOM     89  C   UNL A   1      42.709  28.661  33.808  1.00  0.00     0.031 A 
ATOM     90  C   UNL A   1      41.728  29.566  34.500  1.00  0.00     0.074 A 
ATOM     91  C   UNL A   1      42.540  28.348  32.510  1.00  0.00     0.049 A 
ATOM     92  N   UNL A   1      40.652  30.139  34.022  1.00  0.00    -0.248 NA
ATOM     93  C   UNL A   1      41.974  29.839  35.924  1.00  0.00    -0.034 C 
ATOM     94  C   UNL A   1      43.391  27.437  31.744  1.00  0.00    -0.036 A 
ATOM     95  N   UNL A   1      41.582  28.745  31.611  1.00  0.00    -0.354 N 
ATOM     96  C   UNL A   1      40.083  30.820  35.091  1.00  0.00     0.074 A 
ATOM     97  C   UNL A   1      40.907  30.554  36.249  1.00  0.00    -0.034 C 
ATOM     98  H   UNL A   1      42.769  29.550  36.514  1.00  0.00     0.065 H 
ATOM     99  C   UNL A   1      42.924  27.351  30.488  1.00  0.00    -0.036 A 
ATOM    100  H   UNL A   1      44.218  26.940  32.110  1.00  0.00     0.065 H 
ATOM    101  C   UNL A   1      41.724  28.174  30.369  1.00  0.00     0.049 A 
ATOM    102  H   UNL A   1      40.862  29.378  31.833  1.00  0.00     0.167 HD
ATOM    103  C   UNL A   1      38.983  31.611  35.097  1.00  0.00     0.037 A 
ATOM    104  H   UNL A   1      40.691  30.877  37.206  1.00  0.00     0.065 H 
ATOM    105  H   UNL A   1      43.345  26.794  29.729  1.00  0.00     0.065 H 
ATOM    106  C   UNL A   1      40.965  28.292  29.264  1.00  0.00     0.037 A 
ATOM    107  C   UNL A   1      38.186  31.900  33.934  1.00  0.00     0.049 A 
ATOM    108  C   UNL A   1      39.763  29.195  29.290  1.00  0.00     0.074 A 
ATOM    109  C   UNL A   1      37.105  32.756  33.819  1.00  0.00    -0.036 A 
ATOM    110  N   UNL A   1      38.381  31.332  32.683  1.00  0.00    -0.354 N 
ATOM    111  N   UNL A   1      39.281  29.901  30.283  1.00  0.00    -0.248 NA
ATOM    112  C   UNL A   1      39.004  29.326  28.039  1.00  0.00    -0.034 C 
ATOM    113  C   UNL A   1      36.618  32.671  32.510  1.00  0.00    -0.036 A 
ATOM    114  H   UNL A   1      36.724  33.354  34.568  1.00  0.00     0.065 H 
ATOM    115  C   UNL A   1      37.425  31.799  31.796  1.00  0.00     0.049 A 
ATOM    116  H   UNL A   1      39.095  30.692  32.458  1.00  0.00     0.167 HD
ATOM    117  C   UNL A   1      38.179  30.573  29.776  1.00  0.00     0.074 A 
ATOM    118  C   UNL A   1      38.072  30.205  28.378  1.00  0.00    -0.034 C 
ATOM    119  H   UNL A   1      39.157  28.857  27.131  1.00  0.00     0.065 H 
ATOM    120  H   UNL A   1      35.795  33.174  32.138  1.00  0.00     0.065 H 
ATOM    121  C   UNL A   1      37.330  31.421  30.409  1.00  0.00     0.037 A 
ATOM    122  H   UNL A   1      37.361  30.579  27.732  1.00  0.00     0.065 H 
BRANCH 103 123
ATOM    123  C   UNL A   1      38.575  32.222  36.408  1.00  0.00     0.064 A 
ATOM    124  C   UNL A   1      38.916  33.540  36.746  1.00  0.00     0.173 A 
ATOM    125  C   UNL A   1      37.808  31.487  37.324  1.00  0.00     0.173 A 
ATOM    126  F   UNL A   1      39.656  34.282  35.908  1.00  0.00    -0.203 F 
ATOM    127  C   UNL A   1      38.531  34.089  37.966  1.00  0.00     0.198 A 
ATOM    128  C   UNL A   1      37.400  32.049  38.531  1.00  0.00     0.198 A 
ATOM    129  F   UNL A   1      37.449  30.224  37.048  1.00  0.00    -0.203 F 
ATOM    130  F   UNL A   1      38.913  35.333  38.290  1.00  0.00    -0.200 F 
ATOM    131  C   UNL A   1      37.769  33.346  38.855  1.00  0.00     0.200 A 
ATOM    132  F   UNL A   1      36.652  31.334  39.383  1.00  0.00    -0.200 F 
ATOM    133  F   UNL A   1      37.396  33.877  40.027  1.00  0.00    -0.200 F 
ENDBRANCH 103 123
BRANCH 106 134
ATOM    134  C   UNL A   1      41.338  27.549  28.034  1.00  0.00     0.064 A 
ATOM    135  C   UNL A   1      40.893  26.237  27.820  1.00  0.00     0.173 A 
ATOM    136  C   UNL A   1      42.131  28.140  27.039  1.00  0.00     0.173 A 
ATOM    137  F   UNL A   1      40.149  25.624  28.752  1.00  0.00    -0.203 F 
ATOM    138  C   UNL A   1      41.240  25.539  26.665  1.00  0.00     0.198 A 
ATOM    139  C   UNL A   1      42.455  27.451  25.873  1.00  0.00     0.198 A 
ATOM    140  F   UNL A   1      42.576  29.396  27.194  1.00  0.00    -0.203 F 
ATOM    141  F   UNL A   1      40.831  24.274  26.502  1.00  0.00    -0.200 F 
ATOM    142  C   UNL A   1      42.015  26.149  25.689  1.00  0.00     0.200 A 
ATOM    143  F   UNL A   1      43.190  28.049  24.925  1.00  0.00    -0.200 F 
ATOM    144  F   UNL A   1      42.338  25.481  24.574  1.00  0.00    -0.200 F 
ENDBRANCH 106 134
BRANCH 121 145
ATOM    145  C   UNL A   1      36.224  32.022  29.593  1.00  0.00     0.064 A 
ATOM    146  C   UNL A   1      36.208  33.386  29.271  1.00  0.00     0.173 A 
ATOM    147  C   UNL A   1      35.190  31.215  29.094  1.00  0.00     0.173 A 
ATOM    148  F   UNL A   1      37.164  34.202  29.738  1.00  0.00    -0.203 F 
ATOM    149  C   UNL A   1      35.184  33.926  28.496  1.00  0.00     0.198 A 
ATOM    150  C   UNL A   1      34.184  31.752  28.295  1.00  0.00     0.198 A 
ATOM    151  F   UNL A   1      35.163  29.902  29.369  1.00  0.00    -0.203 F 
ATOM    152  F   UNL A   1      35.164  35.241  28.237  1.00  0.00    -0.200 F 
ATOM    153  C   UNL A   1      34.178  33.107  28.003  1.00  0.00     0.200 A 
ATOM    154  F   UNL A   1      33.220  30.958  27.810  1.00  0.00    -0.200 F 
ATOM    155  F   UNL A   1      33.198  33.627  27.252  1.00  0.00    -0.200 F 
ENDBRANCH 121 145
ENDBRANCH  86  89
ENDBRANCH  76  79
ENDBRANCH  72  75
ENDBRANCH  69  72
ENDBRANCH  66  69
ENDBRANCH  63  66
ENDBRANCH  60  63
ENDBRANCH  57  60
ENDBRANCH   3  57
TORSDOF 25
ENDMDL
MODEL 10
REMARK VINA RESULT:     -10.1      4.804      9.576
REMARK SMILES CCCCCCNC(=O)Oc1cccc(-c2ccc([C@@H](C)C(=O)NCCCCCCNC(=O)c3ccc(-c4c5nc(c(-c6c(F)c(F)c(F)c(F)c6F)c6ccc([nH]6)c(-c6c(F)c(F)c(F)c(F)c6F)c6nc(c(-c7c(F)c(F)c(F)c(F)c7F)c7ccc4[nH]7)C=C6)C=C5)cc3)cc2[N+](=O)[O-])c1
REMARK SMILES IDX 22 1 23 2 24 3 20 5 19 7 16 8 17 9 98 10 18 11 97 13 15 16
REMARK SMILES IDX 11 17 12 18 102 19 13 20 14 23 10 26 8 27 7 28 9 30 6 31
REMARK SMILES IDX 5 34 4 37 3 40 2 43 1 46 99 50 100 51 101 52 21 53 25 57
REMARK SMILES IDX 26 60 27 63 28 66 29 69 30 72 31 75 32 76 33 78 34 79 35 80
REMARK SMILES IDX 96 81 36 82 95 84 37 86 38 89 39 90 89 91 40 92 94 93 88 94
REMARK SMILES IDX 90 95 41 96 93 97 87 99 86 101 42 103 74 106 54 107 73 108
REMARK SMILES IDX 55 109 58 110 72 111 91 112 56 113 57 115 71 117 92 118
REMARK SMILES IDX 59 121 43 123 44 124 52 125 45 126 46 127 50 128 53 129
REMARK SMILES IDX 47 130 48 131 51 132 49 133 75 134 76 135 84 136 77 137
REMARK SMILES IDX 78 138 82 139 85 140 79 141 80 142 83 143 81 144 60 145
REMARK SMILES IDX 61 146 69 147 62 148 63 149 67 150 70 151 64 152 65 153
REMARK SMILES IDX 68 154 66 155
REMARK H PARENT 24 4 20 6 17 12 18 14 97 15 12 21 102 22 13 24 14 25 7 29 6 32
REMARK H PARENT 6 33 5 35 5 36 4 38 4 39 3 41 3 42 2 44 2 45 1 47 1 48 1 49
REMARK H PARENT 21 54 21 55 21 56 25 58 25 59 26 61 26 62 27 64 27 65 28 67
REMARK H PARENT 28 68 29 70 29 71 30 73 30 74 31 77 35 83 96 85 36 87 95 88
REMARK H PARENT 94 98 88 100 90 102 93 104 87 105 55 114 58 116 91 119 56 120
REMARK H PARENT 92 122
REMARK Flexibility Score: inf
ROOT
ATOM      1  C   UNL A   1      32.897  18.054  24.997  1.00  0.00     0.227 C 
ATOM      2  O   UNL A   1      32.214  17.416  25.808  1.00  0.00    -0.274 OA
ATOM      3  N   UNL A   1      34.246  17.965  25.148  1.00  0.00    -0.356 N 
ATOM      4  H   UNL A   1      34.530  17.336  25.850  1.00  0.00     0.163 HD
ENDROOT
BRANCH   1   5
ATOM      5  C   UNL A   1      32.206  18.864  23.887  1.00  0.00     0.060 C 
ATOM      6  H   UNL A   1      31.165  18.645  23.992  1.00  0.00     0.045 H 
BRANCH   5   7
ATOM      7  C   UNL A   1      32.264  20.370  24.093  1.00  0.00    -0.029 A 
ATOM      8  C   UNL A   1      32.537  23.183  24.597  1.00  0.00     0.060 A 
ATOM      9  C   UNL A   1      32.701  22.634  23.313  1.00  0.00    -0.047 A 
ATOM     10  C   UNL A   1      32.144  22.291  25.614  1.00  0.00     0.277 A 
ATOM     11  C   UNL A   1      32.525  21.271  23.059  1.00  0.00    -0.057 A 
ATOM     12  H   UNL A   1      32.960  23.259  22.532  1.00  0.00     0.063 H 
ATOM     13  C   UNL A   1      32.057  20.904  25.375  1.00  0.00     0.021 A 
ATOM     14  H   UNL A   1      32.590  20.923  22.089  1.00  0.00     0.063 H 
ATOM     15  H   UNL A   1      31.836  20.268  26.157  1.00  0.00     0.070 H 
BRANCH   8  16
ATOM     16  C   UNL A   1      32.827  24.619  24.799  1.00  0.00    -0.008 A 
ATOM     17  C   UNL A   1      32.190  26.960  24.655  1.00  0.00     0.133 A 
ATOM     18  C   UNL A   1      33.397  27.358  25.220  1.00  0.00    -0.019 A 
ATOM     19  C   UNL A   1      31.892  25.610  24.455  1.00  0.00    -0.011 A 
ATOM     20  C   UNL A   1      34.322  26.391  25.595  1.00  0.00    -0.058 A 
ATOM     21  H   UNL A   1      33.603  28.360  25.360  1.00  0.00     0.066 H 
ATOM     22  H   UNL A   1      30.981  25.338  24.052  1.00  0.00     0.067 H 
ATOM     23  C   UNL A   1      34.044  25.038  25.374  1.00  0.00    -0.054 A 
ATOM     24  H   UNL A   1      35.213  26.670  26.035  1.00  0.00     0.062 H 
ATOM     25  H   UNL A   1      34.746  24.329  25.641  1.00  0.00     0.063 H 
BRANCH  17  26
ATOM     26  O   UNL A   1      31.364  27.978  24.148  1.00  0.00    -0.410 OA
BRANCH  26  27
ATOM     27  C   UNL A   1      30.878  27.881  22.853  1.00  0.00     0.412 C 
ATOM     28  N   UNL A   1      29.878  28.780  22.595  1.00  0.00    -0.321 N 
ATOM     29  H   UNL A   1      29.470  28.740  21.700  1.00  0.00     0.167 HD
ATOM     30  O   UNL A   1      31.260  27.092  21.999  1.00  0.00    -0.224 OA
BRANCH  28  31
ATOM     31  C   UNL A   1      29.360  29.785  23.502  1.00  0.00     0.021 C 
ATOM     32  H   UNL A   1      29.342  29.378  24.492  1.00  0.00     0.049 H 
ATOM     33  H   UNL A   1      30.000  30.641  23.447  1.00  0.00     0.049 H 
BRANCH  31  34
ATOM     34  C   UNL A   1      27.947  30.228  23.125  1.00  0.00    -0.036 C 
ATOM     35  H   UNL A   1      27.800  30.022  22.086  1.00  0.00     0.028 H 
ATOM     36  H   UNL A   1      27.282  29.684  23.763  1.00  0.00     0.028 H 
BRANCH  34  37
ATOM     37  C   UNL A   1      27.651  31.714  23.364  1.00  0.00    -0.052 C 
ATOM     38  H   UNL A   1      26.593  31.826  23.470  1.00  0.00     0.027 H 
ATOM     39  H   UNL A   1      28.204  31.986  24.239  1.00  0.00     0.027 H 
BRANCH  37  40
ATOM     40  C   UNL A   1      28.118  32.667  22.258  1.00  0.00    -0.054 C 
ATOM     41  H   UNL A   1      27.360  33.408  22.119  1.00  0.00     0.027 H 
ATOM     42  H   UNL A   1      29.055  33.065  22.589  1.00  0.00     0.027 H 
BRANCH  40  43
ATOM     43  C   UNL A   1      28.395  32.014  20.902  1.00  0.00    -0.056 C 
ATOM     44  H   UNL A   1      29.445  32.068  20.707  1.00  0.00     0.026 H 
ATOM     45  H   UNL A   1      28.046  31.004  20.959  1.00  0.00     0.026 H 
BRANCH  43  46
ATOM     46  C   UNL A   1      27.655  32.680  19.753  1.00  0.00    -0.065 C 
ATOM     47  H   UNL A   1      28.082  33.643  19.564  1.00  0.00     0.023 H 
ATOM     48  H   UNL A   1      26.623  32.792  20.010  1.00  0.00     0.023 H 
ATOM     49  H   UNL A   1      27.740  32.074  18.874  1.00  0.00     0.023 H 
ENDBRANCH  43  46
ENDBRANCH  40  43
ENDBRANCH  37  40
ENDBRANCH  34  37
ENDBRANCH  31  34
ENDBRANCH  28  31
ENDBRANCH  26  27
ENDBRANCH  17  26
ENDBRANCH   8  16
BRANCH  10  50
ATOM     50  N   UNL A   1      31.757  22.763  26.925  1.00  0.00     0.063 N 
ATOM     51  O   UNL A   1      32.540  22.731  27.851  1.00  0.00    -0.258 OA
ATOM     52  O   UNL A   1      30.459  23.125  27.198  1.00  0.00    -0.258 OA
ENDBRANCH  10  50
ENDBRANCH   5   7
BRANCH   5  53
ATOM     53  C   UNL A   1      32.518  18.377  22.473  1.00  0.00    -0.049 C 
ATOM     54  H   UNL A   1      33.286  18.990  22.046  1.00  0.00     0.024 H 
ATOM     55  H   UNL A   1      31.636  18.440  21.871  1.00  0.00     0.024 H 
ATOM     56  H   UNL A   1      32.853  17.361  22.510  1.00  0.00     0.024 H 
ENDBRANCH   5  53
ENDBRANCH   1   5
BRANCH   3  57
ATOM     57  C   UNL A   1      35.340  18.623  24.469  1.00  0.00     0.017 C 
ATOM     58  H   UNL A   1      35.115  18.684  23.424  1.00  0.00     0.049 H 
ATOM     59  H   UNL A   1      36.229  18.053  24.635  1.00  0.00     0.049 H 
BRANCH  57  60
ATOM     60  C   UNL A   1      35.572  20.037  25.009  1.00  0.00    -0.036 C 
ATOM     61  H   UNL A   1      35.424  20.021  26.069  1.00  0.00     0.028 H 
ATOM     62  H   UNL A   1      34.879  20.679  24.507  1.00  0.00     0.028 H 
BRANCH  60  63
ATOM     63  C   UNL A   1      36.974  20.587  24.726  1.00  0.00    -0.052 C 
ATOM     64  H   UNL A   1      37.367  20.069  23.877  1.00  0.00     0.027 H 
ATOM     65  H   UNL A   1      37.540  20.434  25.619  1.00  0.00     0.027 H 
BRANCH  63  66
ATOM     66  C   UNL A   1      37.035  22.092  24.433  1.00  0.00    -0.052 C 
ATOM     67  H   UNL A   1      36.269  22.321  23.723  1.00  0.00     0.027 H 
ATOM     68  H   UNL A   1      38.027  22.281  24.077  1.00  0.00     0.027 H 
BRANCH  66  69
ATOM     69  C   UNL A   1      36.843  23.010  25.646  1.00  0.00    -0.036 C 
ATOM     70  H   UNL A   1      36.422  22.428  26.440  1.00  0.00     0.028 H 
ATOM     71  H   UNL A   1      36.207  23.806  25.322  1.00  0.00     0.028 H 
BRANCH  69  72
ATOM     72  C   UNL A   1      38.122  23.664  26.163  1.00  0.00     0.018 C 
ATOM     73  H   UNL A   1      37.968  23.976  27.175  1.00  0.00     0.049 H 
ATOM     74  H   UNL A   1      38.346  24.499  25.532  1.00  0.00     0.049 H 
BRANCH  72  75
ATOM     75  N   UNL A   1      39.254  22.750  26.119  1.00  0.00    -0.352 N 
ATOM     76  C   UNL A   1      40.590  22.994  26.317  1.00  0.00     0.251 C 
ATOM     77  H   UNL A   1      39.026  21.815  25.917  1.00  0.00     0.163 HD
ATOM     78  O   UNL A   1      41.421  22.144  26.015  1.00  0.00    -0.269 OA
BRANCH  76  79
ATOM     79  C   UNL A   1      41.037  24.282  26.886  1.00  0.00     0.039 A 
ATOM     80  C   UNL A   1      41.077  25.409  26.060  1.00  0.00    -0.049 A 
ATOM     81  C   UNL A   1      41.456  24.375  28.216  1.00  0.00    -0.049 A 
ATOM     82  C   UNL A   1      41.486  26.639  26.580  1.00  0.00    -0.053 A 
ATOM     83  H   UNL A   1      40.806  25.331  25.066  1.00  0.00     0.063 H 
ATOM     84  C   UNL A   1      41.801  25.614  28.752  1.00  0.00    -0.053 A 
ATOM     85  H   UNL A   1      41.510  23.527  28.802  1.00  0.00     0.063 H 
ATOM     86  C   UNL A   1      41.824  26.757  27.937  1.00  0.00    -0.014 A 
ATOM     87  H   UNL A   1      41.540  27.464  25.963  1.00  0.00     0.063 H 
ATOM     88  H   UNL A   1      42.042  25.692  29.752  1.00  0.00     0.063 H 
BRANCH  86  89
ATOM     89  C   UNL A   1      42.202  28.067  28.524  1.00  0.00     0.031 A 
ATOM     90  C   UNL A   1      41.140  29.023  28.990  1.00  0.00     0.074 A 
ATOM     91  C   UNL A   1      43.499  28.425  28.568  1.00  0.00     0.049 A 
ATOM     92  N   UNL A   1      41.269  30.239  29.459  1.00  0.00    -0.248 NA
ATOM     93  C   UNL A   1      39.747  28.563  28.887  1.00  0.00    -0.034 C 
ATOM     94  C   UNL A   1      44.616  27.607  28.094  1.00  0.00    -0.036 A 
ATOM     95  N   UNL A   1      44.096  29.577  29.015  1.00  0.00    -0.354 N 
ATOM     96  C   UNL A   1      39.977  30.694  29.686  1.00  0.00     0.074 A 
ATOM     97  C   UNL A   1      39.078  29.644  29.262  1.00  0.00    -0.034 C 
ATOM     98  H   UNL A   1      39.386  27.641  28.599  1.00  0.00     0.065 H 
ATOM     99  C   UNL A   1      45.763  28.279  28.282  1.00  0.00    -0.036 A 
ATOM    100  H   UNL A   1      44.535  26.665  27.680  1.00  0.00     0.065 H 
ATOM    101  C   UNL A   1      45.460  29.585  28.860  1.00  0.00     0.049 A 
ATOM    102  H   UNL A   1      43.594  30.326  29.409  1.00  0.00     0.167 HD
ATOM    103  C   UNL A   1      39.579  31.876  30.217  1.00  0.00     0.037 A 
ATOM    104  H   UNL A   1      38.048  29.724  29.252  1.00  0.00     0.065 H 
ATOM    105  H   UNL A   1      46.707  27.929  28.055  1.00  0.00     0.065 H 
ATOM    106  C   UNL A   1      46.365  30.541  29.141  1.00  0.00     0.037 A 
ATOM    107  C   UNL A   1      40.480  32.905  30.668  1.00  0.00     0.049 A 
ATOM    108  C   UNL A   1      45.900  31.834  29.752  1.00  0.00     0.074 A 
ATOM    109  C   UNL A   1      40.179  34.099  31.298  1.00  0.00    -0.036 A 
ATOM    110  N   UNL A   1      41.859  32.863  30.529  1.00  0.00    -0.354 N 
ATOM    111  N   UNL A   1      44.682  32.223  30.040  1.00  0.00    -0.248 NA
ATOM    112  C   UNL A   1      46.937  32.820  30.088  1.00  0.00    -0.034 C 
ATOM    113  C   UNL A   1      41.372  34.800  31.499  1.00  0.00    -0.036 A 
ATOM    114  H   UNL A   1      39.237  34.418  31.574  1.00  0.00     0.065 H 
ATOM    115  C   UNL A   1      42.422  34.022  31.038  1.00  0.00     0.049 A 
ATOM    116  H   UNL A   1      42.364  32.119  30.127  1.00  0.00     0.167 HD
ATOM    117  C   UNL A   1      44.805  33.483  30.607  1.00  0.00     0.074 A 
ATOM    118  C   UNL A   1      46.221  33.789  30.639  1.00  0.00    -0.034 C 
ATOM    119  H   UNL A   1      47.958  32.770  29.935  1.00  0.00     0.065 H 
ATOM    120  H   UNL A   1      41.458  35.740  31.921  1.00  0.00     0.065 H 
ATOM    121  C   UNL A   1      43.833  34.313  31.060  1.00  0.00     0.037 A 
ATOM    122  H   UNL A   1      46.620  34.652  31.039  1.00  0.00     0.065 H 
BRANCH 103 123
ATOM    123  C   UNL A   1      38.102  32.120  30.339  1.00  0.00     0.064 A 
ATOM    124  C   UNL A   1      37.350  31.587  31.396  1.00  0.00     0.173 A 
ATOM    125  C   UNL A   1      37.436  32.923  29.400  1.00  0.00     0.173 A 
ATOM    126  F   UNL A   1      37.938  30.805  32.315  1.00  0.00    -0.203 F 
ATOM    127  C   UNL A   1      35.981  31.821  31.493  1.00  0.00     0.198 A 
ATOM    128  C   UNL A   1      36.073  33.180  29.516  1.00  0.00     0.198 A 
ATOM    129  F   UNL A   1      38.108  33.464  28.373  1.00  0.00    -0.203 F 
ATOM    130  F   UNL A   1      35.274  31.258  32.482  1.00  0.00    -0.200 F 
ATOM    131  C   UNL A   1      35.345  32.622  30.557  1.00  0.00     0.200 A 
ATOM    132  F   UNL A   1      35.461  33.965  28.618  1.00  0.00    -0.200 F 
ATOM    133  F   UNL A   1      34.028  32.851  30.652  1.00  0.00    -0.200 F 
ENDBRANCH 103 123
BRANCH 106 134
ATOM    134  C   UNL A   1      47.803  30.297  28.865  1.00  0.00     0.064 A 
ATOM    135  C   UNL A   1      48.401  30.764  27.687  1.00  0.00     0.173 A 
ATOM    136  C   UNL A   1      48.613  29.609  29.781  1.00  0.00     0.173 A 
ATOM    137  F   UNL A   1      47.662  31.410  26.773  1.00  0.00    -0.203 F 
ATOM    138  C   UNL A   1      49.751  30.539  27.427  1.00  0.00     0.198 A 
ATOM    139  C   UNL A   1      49.968  29.408  29.533  1.00  0.00     0.198 A 
ATOM    140  F   UNL A   1      48.089  29.149  30.927  1.00  0.00    -0.203 F 
ATOM    141  F   UNL A   1      50.290  30.964  26.277  1.00  0.00    -0.200 F 
ATOM    142  C   UNL A   1      50.536  29.867  28.354  1.00  0.00     0.200 A 
ATOM    143  F   UNL A   1      50.726  28.773  30.438  1.00  0.00    -0.200 F 
ATOM    144  F   UNL A   1      51.836  29.660  28.109  1.00  0.00    -0.200 F 
ENDBRANCH 106 134
BRANCH 121 145
ATOM    145  C   UNL A   1      44.268  35.624  31.646  1.00  0.00     0.064 A 
ATOM    146  C   UNL A   1      44.290  36.799  30.882  1.00  0.00     0.173 A 
ATOM    147  C   UNL A   1      44.629  35.712  33.000  1.00  0.00     0.173 A 
ATOM    148  F   UNL A   1      43.971  36.763  29.580  1.00  0.00    -0.203 F 
ATOM    149  C   UNL A   1      44.678  38.012  31.446  1.00  0.00     0.198 A 
ATOM    150  C   UNL A   1      44.988  36.931  33.568  1.00  0.00     0.198 A 
ATOM    151  F   UNL A   1      44.618  34.616  33.775  1.00  0.00    -0.203 F 
ATOM    152  F   UNL A   1      44.735  39.114  30.686  1.00  0.00    -0.200 F 
ATOM    153  C   UNL A   1      45.020  38.077  32.789  1.00  0.00     0.200 A 
ATOM    154  F   UNL A   1      45.306  36.995  34.867  1.00  0.00    -0.200 F 
ATOM    155  F   UNL A   1      45.386  39.247  33.331  1.00  0.00    -0.200 F 
ENDBRANCH 121 145
ENDBRANCH  86  89
ENDBRANCH  76  79
ENDBRANCH  72  75
ENDBRANCH  69  72
ENDBRANCH  66  69
ENDBRANCH  63  66
ENDBRANCH  60  63
ENDBRANCH  57  60
ENDBRANCH   3  57
TORSDOF 25
ENDMDL
