MODEL 1
REMARK VINA RESULT:     -12.4      0.000      0.000
REMARK SMILES C[C@@H](C(=O)NCCCCCCNC(=O)c1ccc(-c2c3nc(c(-c4c(F)c(F)c(F)c(F)c4F)c4ccc([nH]4)c(-c4c(F)c(F)c(F)c(F)c4F)c4nc(c(-c5c(F)c(F)c(F)c(F)c5F)c5ccc2[nH]5)C=C4)C=C3)cc1)c1ccccc1-c1ccn(C(F)F)c(=O)c1
REMARK SMILES IDX 8 1 7 4 6 7 5 10 3 11 4 12 2 14 1 16 78 20 79 21 83 22 80 23
REMARK SMILES IDX 82 25 81 26 84 30 85 31 93 32 86 33 91 35 87 37 92 39 88 40
REMARK SMILES IDX 89 41 90 42 9 44 10 47 11 50 12 53 13 54 14 56 15 57 16 58
REMARK SMILES IDX 77 59 17 60 76 62 18 64 19 67 20 68 70 69 21 70 75 71 69 72
REMARK SMILES IDX 71 73 22 74 74 75 68 77 67 79 23 81 55 84 35 85 54 86 36 87
REMARK SMILES IDX 39 88 53 89 72 90 37 91 38 93 52 95 73 96 40 99 24 101
REMARK SMILES IDX 25 102 33 103 26 104 27 105 31 106 34 107 28 108 29 109
REMARK SMILES IDX 32 110 30 111 56 112 57 113 65 114 58 115 59 116 63 117
REMARK SMILES IDX 66 118 60 119 61 120 64 121 62 122 41 123 42 124 50 125
REMARK SMILES IDX 43 126 44 127 48 128 51 129 45 130 46 131 49 132 47 133
REMARK H PARENT 8 2 8 3 7 5 7 6 6 8 6 9 5 13 2 15 1 17 1 18 1 19 79 24 80 27
REMARK H PARENT 82 28 81 29 85 34 93 36 86 38 88 43 9 45 9 46 10 48 10 49
REMARK H PARENT 11 51 11 52 12 55 16 61 77 63 17 65 76 66 75 76 69 78 71 80
REMARK H PARENT 74 82 68 83 36 92 39 94 72 97 37 98 73 100
REMARK Flexibility Score: inf
ROOT
ATOM      1  C   UNL A   1      34.826  32.519  27.942  1.00  0.00    -0.052 C 
ATOM      2  H   UNL A   1      34.376  32.973  27.083  1.00  0.00     0.027 H 
ATOM      3  H   UNL A   1      35.895  32.559  27.926  1.00  0.00     0.027 H 
ENDROOT
BRANCH   1   4
ATOM      4  C   UNL A   1      34.447  31.030  27.951  1.00  0.00    -0.036 C 
ATOM      5  H   UNL A   1      35.252  30.472  27.519  1.00  0.00     0.028 H 
ATOM      6  H   UNL A   1      34.266  30.754  28.969  1.00  0.00     0.028 H 
BRANCH   4   7
ATOM      7  C   UNL A   1      33.168  30.726  27.165  1.00  0.00     0.017 C 
ATOM      8  H   UNL A   1      32.509  30.134  27.765  1.00  0.00     0.049 H 
ATOM      9  H   UNL A   1      32.676  31.640  26.903  1.00  0.00     0.049 H 
BRANCH   7  10
ATOM     10  N   UNL A   1      33.520  29.995  25.964  1.00  0.00    -0.356 N 
ATOM     11  C   UNL A   1      33.083  28.769  25.555  1.00  0.00     0.227 C 
ATOM     12  O   UNL A   1      33.819  28.136  24.796  1.00  0.00    -0.274 OA
ATOM     13  H   UNL A   1      34.160  30.442  25.365  1.00  0.00     0.163 HD
BRANCH  11  14
ATOM     14  C   UNL A   1      31.700  28.273  25.997  1.00  0.00     0.061 C 
ATOM     15  H   UNL A   1      30.921  28.890  25.599  1.00  0.00     0.045 H 
BRANCH  14  16
ATOM     16  C   UNL A   1      31.606  28.376  27.527  1.00  0.00    -0.049 C 
ATOM     17  H   UNL A   1      31.472  29.399  27.808  1.00  0.00     0.024 H 
ATOM     18  H   UNL A   1      32.506  28.000  27.966  1.00  0.00     0.024 H 
ATOM     19  H   UNL A   1      30.773  27.800  27.872  1.00  0.00     0.024 H 
ENDBRANCH  14  16
BRANCH  14  20
ATOM     20  C   UNL A   1      31.416  26.876  25.421  1.00  0.00    -0.028 A 
ATOM     21  C   UNL A   1      31.921  25.726  26.062  1.00  0.00    -0.058 A 
ATOM     22  C   UNL A   1      30.679  26.697  24.219  1.00  0.00    -0.014 A 
ATOM     23  C   UNL A   1      31.721  24.448  25.538  1.00  0.00    -0.062 A 
ATOM     24  H   UNL A   1      32.453  25.831  26.940  1.00  0.00     0.063 H 
ATOM     25  C   UNL A   1      30.510  25.402  23.693  1.00  0.00    -0.054 A 
ATOM     26  C   UNL A   1      31.025  24.286  24.350  1.00  0.00    -0.062 A 
ATOM     27  H   UNL A   1      32.091  23.623  26.035  1.00  0.00     0.062 H 
ATOM     28  H   UNL A   1      29.995  25.276  22.808  1.00  0.00     0.063 H 
ATOM     29  H   UNL A   1      30.889  23.343  23.953  1.00  0.00     0.062 H 
BRANCH  22  30
ATOM     30  C   UNL A   1      30.045  27.808  23.468  1.00  0.00    -0.011 A 
ATOM     31  C   UNL A   1      30.775  28.712  22.600  1.00  0.00    -0.038 A 
ATOM     32  C   UNL A   1      28.713  27.955  23.579  1.00  0.00     0.012 A 
ATOM     33  C   UNL A   1      30.162  29.757  22.032  1.00  0.00     0.013 A 
ATOM     34  H   UNL A   1      31.778  28.548  22.419  1.00  0.00     0.064 H 
ATOM     35  C   UNL A   1      28.001  29.065  22.885  1.00  0.00     0.255 A 
ATOM     36  H   UNL A   1      28.176  27.288  24.153  1.00  0.00     0.069 H 
ATOM     37  N   UNL A   1      28.805  29.960  22.196  1.00  0.00    -0.258 N 
ATOM     38  H   UNL A   1      30.711  30.422  21.464  1.00  0.00     0.082 H 
ATOM     39  O   UNL A   1      26.781  29.131  22.985  1.00  0.00    -0.269 OA
BRANCH  37  40
ATOM     40  C   UNL A   1      28.154  31.092  21.590  1.00  0.00     0.321 C 
ATOM     41  F   UNL A   1      29.023  32.112  21.400  1.00  0.00    -0.185 F 
ATOM     42  F   UNL A   1      27.621  30.763  20.387  1.00  0.00    -0.185 F 
ATOM     43  H   UNL A   1      27.378  31.396  22.261  1.00  0.00     0.131 H 
ENDBRANCH  37  40
ENDBRANCH  22  30
ENDBRANCH  14  20
ENDBRANCH  11  14
ENDBRANCH   7  10
ENDBRANCH   4   7
ENDBRANCH   1   4
BRANCH   1  44
ATOM     44  C   UNL A   1      34.382  33.299  29.183  1.00  0.00    -0.052 C 
ATOM     45  H   UNL A   1      35.227  33.838  29.559  1.00  0.00     0.027 H 
ATOM     46  H   UNL A   1      34.004  32.579  29.878  1.00  0.00     0.027 H 
BRANCH  44  47
ATOM     47  C   UNL A   1      33.252  34.297  28.933  1.00  0.00    -0.036 C 
ATOM     48  H   UNL A   1      32.388  33.971  29.472  1.00  0.00     0.028 H 
ATOM     49  H   UNL A   1      33.092  34.325  27.875  1.00  0.00     0.028 H 
BRANCH  47  50
ATOM     50  C   UNL A   1      33.578  35.722  29.366  1.00  0.00     0.018 C 
ATOM     51  H   UNL A   1      33.503  36.367  28.515  1.00  0.00     0.049 H 
ATOM     52  H   UNL A   1      34.570  35.727  29.768  1.00  0.00     0.049 H 
BRANCH  50  53
ATOM     53  N   UNL A   1      32.672  36.198  30.398  1.00  0.00    -0.352 N 
ATOM     54  C   UNL A   1      32.652  35.877  31.736  1.00  0.00     0.251 C 
ATOM     55  H   UNL A   1      31.981  36.833  30.101  1.00  0.00     0.163 HD
ATOM     56  O   UNL A   1      31.718  36.202  32.449  1.00  0.00    -0.269 OA
BRANCH  54  57
ATOM     57  C   UNL A   1      33.783  35.106  32.293  1.00  0.00     0.039 A 
ATOM     58  C   UNL A   1      33.550  33.832  32.813  1.00  0.00    -0.049 A 
ATOM     59  C   UNL A   1      35.074  35.639  32.259  1.00  0.00    -0.049 A 
ATOM     60  C   UNL A   1      34.630  33.059  33.244  1.00  0.00    -0.053 A 
ATOM     61  H   UNL A   1      32.588  33.464  32.877  1.00  0.00     0.063 H 
ATOM     62  C   UNL A   1      36.152  34.842  32.620  1.00  0.00    -0.053 A 
ATOM     63  H   UNL A   1      35.225  36.616  31.967  1.00  0.00     0.063 H 
ATOM     64  C   UNL A   1      35.940  33.546  33.120  1.00  0.00    -0.014 A 
ATOM     65  H   UNL A   1      34.464  32.127  33.657  1.00  0.00     0.063 H 
ATOM     66  H   UNL A   1      37.114  35.203  32.523  1.00  0.00     0.063 H 
BRANCH  64  67
ATOM     67  C   UNL A   1      37.119  32.737  33.515  1.00  0.00     0.031 A 
ATOM     68  C   UNL A   1      37.839  33.056  34.794  1.00  0.00     0.074 A 
ATOM     69  C   UNL A   1      37.609  31.807  32.675  1.00  0.00     0.049 A 
ATOM     70  N   UNL A   1      38.979  32.598  35.241  1.00  0.00    -0.248 NA
ATOM     71  C   UNL A   1      37.206  34.057  35.666  1.00  0.00    -0.034 C 
ATOM     72  C   UNL A   1      37.023  31.441  31.385  1.00  0.00    -0.036 A 
ATOM     73  N   UNL A   1      38.732  31.023  32.766  1.00  0.00    -0.354 N 
ATOM     74  C   UNL A   1      39.216  33.278  36.428  1.00  0.00     0.074 A 
ATOM     75  C   UNL A   1      38.125  34.212  36.606  1.00  0.00    -0.034 C 
ATOM     76  H   UNL A   1      36.288  34.517  35.571  1.00  0.00     0.065 H 
ATOM     77  C   UNL A   1      37.793  30.509  30.803  1.00  0.00    -0.036 A 
ATOM     78  H   UNL A   1      36.156  31.836  30.987  1.00  0.00     0.065 H 
ATOM     79  C   UNL A   1      38.948  30.244  31.656  1.00  0.00     0.049 A 
ATOM     80  H   UNL A   1      39.325  31.020  33.552  1.00  0.00     0.167 HD
ATOM     81  C   UNL A   1      40.241  33.122  37.299  1.00  0.00     0.037 A 
ATOM     82  H   UNL A   1      38.072  34.909  37.365  1.00  0.00     0.065 H 
ATOM     83  H   UNL A   1      37.600  30.052  29.897  1.00  0.00     0.065 H 
ATOM     84  C   UNL A   1      39.976  29.429  31.349  1.00  0.00     0.037 A 
ATOM     85  C   UNL A   1      41.305  32.169  37.126  1.00  0.00     0.049 A 
ATOM     86  C   UNL A   1      41.103  29.264  32.331  1.00  0.00     0.074 A 
ATOM     87  C   UNL A   1      42.347  31.875  37.986  1.00  0.00    -0.036 A 
ATOM     88  N   UNL A   1      41.463  31.358  36.010  1.00  0.00    -0.354 N 
ATOM     89  N   UNL A   1      41.284  29.857  33.486  1.00  0.00    -0.248 NA
ATOM     90  C   UNL A   1      42.166  28.315  31.972  1.00  0.00    -0.034 C 
ATOM     91  C   UNL A   1      43.167  30.925  37.368  1.00  0.00    -0.036 A 
ATOM     92  H   UNL A   1      42.495  32.284  38.921  1.00  0.00     0.065 H 
ATOM     93  C   UNL A   1      42.603  30.584  36.147  1.00  0.00     0.049 A 
ATOM     94  H   UNL A   1      40.855  31.337  35.236  1.00  0.00     0.167 HD
ATOM     95  C   UNL A   1      42.460  29.335  34.005  1.00  0.00     0.074 A 
ATOM     96  C   UNL A   1      42.953  28.375  33.039  1.00  0.00    -0.034 C 
ATOM     97  H   UNL A   1      42.273  27.749  31.116  1.00  0.00     0.065 H 
ATOM     98  H   UNL A   1      44.044  30.543  37.754  1.00  0.00     0.065 H 
ATOM     99  C   UNL A   1      43.074  29.623  35.180  1.00  0.00     0.037 A 
ATOM    100  H   UNL A   1      43.806  27.809  33.165  1.00  0.00     0.065 H 
BRANCH  81 101
ATOM    101  C   UNL A   1      40.265  34.019  38.504  1.00  0.00     0.064 A 
ATOM    102  C   UNL A   1      40.951  35.243  38.505  1.00  0.00     0.173 A 
ATOM    103  C   UNL A   1      39.591  33.645  39.677  1.00  0.00     0.173 A 
ATOM    104  F   UNL A   1      41.619  35.643  37.412  1.00  0.00    -0.203 F 
ATOM    105  C   UNL A   1      41.003  36.035  39.648  1.00  0.00     0.198 A 
ATOM    106  C   UNL A   1      39.616  34.457  40.808  1.00  0.00     0.198 A 
ATOM    107  F   UNL A   1      38.914  32.489  39.731  1.00  0.00    -0.203 F 
ATOM    108  F   UNL A   1      41.724  37.165  39.645  1.00  0.00    -0.200 F 
ATOM    109  C   UNL A   1      40.333  35.645  40.796  1.00  0.00     0.200 A 
ATOM    110  F   UNL A   1      38.955  34.086  41.913  1.00  0.00    -0.200 F 
ATOM    111  F   UNL A   1      40.387  36.407  41.898  1.00  0.00    -0.200 F 
ENDBRANCH  81 101
BRANCH  84 112
ATOM    112  C   UNL A   1      39.967  28.705  30.052  1.00  0.00     0.064 A 
ATOM    113  C   UNL A   1      40.566  29.260  28.913  1.00  0.00     0.173 A 
ATOM    114  C   UNL A   1      39.401  27.426  29.936  1.00  0.00     0.173 A 
ATOM    115  F   UNL A   1      41.103  30.487  28.970  1.00  0.00    -0.203 F 
ATOM    116  C   UNL A   1      40.594  28.565  27.706  1.00  0.00     0.198 A 
ATOM    117  C   UNL A   1      39.454  26.722  28.736  1.00  0.00     0.198 A 
ATOM    118  F   UNL A   1      38.824  26.849  31.001  1.00  0.00    -0.203 F 
ATOM    119  F   UNL A   1      41.150  29.128  26.624  1.00  0.00    -0.200 F 
ATOM    120  C   UNL A   1      40.047  27.294  27.621  1.00  0.00     0.200 A 
ATOM    121  F   UNL A   1      38.940  25.487  28.664  1.00  0.00    -0.200 F 
ATOM    122  F   UNL A   1      40.091  26.618  26.464  1.00  0.00    -0.200 F 
ENDBRANCH  84 112
BRANCH  99 123
ATOM    123  C   UNL A   1      44.325  28.868  35.517  1.00  0.00     0.064 A 
ATOM    124  C   UNL A   1      45.594  29.354  35.176  1.00  0.00     0.173 A 
ATOM    125  C   UNL A   1      44.254  27.687  36.273  1.00  0.00     0.173 A 
ATOM    126  F   UNL A   1      45.716  30.471  34.442  1.00  0.00    -0.203 F 
ATOM    127  C   UNL A   1      46.747  28.682  35.574  1.00  0.00     0.198 A 
ATOM    128  C   UNL A   1      45.407  27.033  36.693  1.00  0.00     0.198 A 
ATOM    129  F   UNL A   1      43.061  27.185  36.630  1.00  0.00    -0.203 F 
ATOM    130  F   UNL A   1      47.951  29.150  35.216  1.00  0.00    -0.200 F 
ATOM    131  C   UNL A   1      46.653  27.530  36.342  1.00  0.00     0.200 A 
ATOM    132  F   UNL A   1      45.314  25.929  37.447  1.00  0.00    -0.200 F 
ATOM    133  F   UNL A   1      47.765  26.898  36.744  1.00  0.00    -0.200 F 
ENDBRANCH  99 123
ENDBRANCH  64  67
ENDBRANCH  54  57
ENDBRANCH  50  53
ENDBRANCH  47  50
ENDBRANCH  44  47
ENDBRANCH   1  44
TORSDOF 17
ENDMDL
MODEL 2
REMARK VINA RESULT:     -12.4      2.863      8.560
REMARK SMILES C[C@@H](C(=O)NCCCCCCNC(=O)c1ccc(-c2c3nc(c(-c4c(F)c(F)c(F)c(F)c4F)c4ccc([nH]4)c(-c4c(F)c(F)c(F)c(F)c4F)c4nc(c(-c5c(F)c(F)c(F)c(F)c5F)c5ccc2[nH]5)C=C4)C=C3)cc1)c1ccccc1-c1ccn(C(F)F)c(=O)c1
REMARK SMILES IDX 8 1 7 4 6 7 5 10 3 11 4 12 2 14 1 16 78 20 79 21 83 22 80 23
REMARK SMILES IDX 82 25 81 26 84 30 85 31 93 32 86 33 91 35 87 37 92 39 88 40
REMARK SMILES IDX 89 41 90 42 9 44 10 47 11 50 12 53 13 54 14 56 15 57 16 58
REMARK SMILES IDX 77 59 17 60 76 62 18 64 19 67 20 68 70 69 21 70 75 71 69 72
REMARK SMILES IDX 71 73 22 74 74 75 68 77 67 79 23 81 55 84 35 85 54 86 36 87
REMARK SMILES IDX 39 88 53 89 72 90 37 91 38 93 52 95 73 96 40 99 24 101
REMARK SMILES IDX 25 102 33 103 26 104 27 105 31 106 34 107 28 108 29 109
REMARK SMILES IDX 32 110 30 111 56 112 57 113 65 114 58 115 59 116 63 117
REMARK SMILES IDX 66 118 60 119 61 120 64 121 62 122 41 123 42 124 50 125
REMARK SMILES IDX 43 126 44 127 48 128 51 129 45 130 46 131 49 132 47 133
REMARK H PARENT 8 2 8 3 7 5 7 6 6 8 6 9 5 13 2 15 1 17 1 18 1 19 79 24 80 27
REMARK H PARENT 82 28 81 29 85 34 93 36 86 38 88 43 9 45 9 46 10 48 10 49
REMARK H PARENT 11 51 11 52 12 55 16 61 77 63 17 65 76 66 75 76 69 78 71 80
REMARK H PARENT 74 82 68 83 36 92 39 94 72 97 37 98 73 100
REMARK Flexibility Score: inf
ROOT
ATOM      1  C   UNL A   1      33.980  26.107  25.115  1.00  0.00    -0.052 C 
ATOM      2  H   UNL A   1      33.606  25.600  24.250  1.00  0.00     0.027 H 
ATOM      3  H   UNL A   1      34.469  27.030  24.882  1.00  0.00     0.027 H 
ENDROOT
BRANCH   1   4
ATOM      4  C   UNL A   1      35.037  25.209  25.777  1.00  0.00    -0.036 C 
ATOM      5  H   UNL A   1      35.917  25.793  25.953  1.00  0.00     0.028 H 
ATOM      6  H   UNL A   1      34.613  24.836  26.686  1.00  0.00     0.028 H 
BRANCH   4   7
ATOM      7  C   UNL A   1      35.422  23.997  24.924  1.00  0.00     0.017 C 
ATOM      8  H   UNL A   1      34.737  23.898  24.109  1.00  0.00     0.049 H 
ATOM      9  H   UNL A   1      36.412  24.125  24.536  1.00  0.00     0.049 H 
BRANCH   7  10
ATOM     10  N   UNL A   1      35.370  22.809  25.752  1.00  0.00    -0.356 N 
ATOM     11  C   UNL A   1      34.299  22.278  26.411  1.00  0.00     0.227 C 
ATOM     12  O   UNL A   1      34.539  21.580  27.398  1.00  0.00    -0.274 OA
ATOM     13  H   UNL A   1      36.218  22.321  25.852  1.00  0.00     0.163 HD
BRANCH  11  14
ATOM     14  C   UNL A   1      32.883  22.515  25.869  1.00  0.00     0.061 C 
ATOM     15  H   UNL A   1      32.788  23.492  25.445  1.00  0.00     0.045 H 
BRANCH  14  16
ATOM     16  C   UNL A   1      31.890  22.442  27.038  1.00  0.00    -0.049 C 
ATOM     17  H   UNL A   1      31.798  21.427  27.365  1.00  0.00     0.024 H 
ATOM     18  H   UNL A   1      30.935  22.803  26.719  1.00  0.00     0.024 H 
ATOM     19  H   UNL A   1      32.248  23.045  27.847  1.00  0.00     0.024 H 
ENDBRANCH  14  16
BRANCH  14  20
ATOM     20  C   UNL A   1      32.584  21.559  24.702  1.00  0.00    -0.028 A 
ATOM     21  C   UNL A   1      32.750  20.167  24.861  1.00  0.00    -0.058 A 
ATOM     22  C   UNL A   1      32.174  22.037  23.428  1.00  0.00    -0.014 A 
ATOM     23  C   UNL A   1      32.532  19.278  23.808  1.00  0.00    -0.062 A 
ATOM     24  H   UNL A   1      33.040  19.797  25.779  1.00  0.00     0.063 H 
ATOM     25  C   UNL A   1      31.983  21.127  22.371  1.00  0.00    -0.054 A 
ATOM     26  C   UNL A   1      32.159  19.757  22.561  1.00  0.00    -0.062 A 
ATOM     27  H   UNL A   1      32.649  18.264  23.956  1.00  0.00     0.062 H 
ATOM     28  H   UNL A   1      31.708  21.478  21.441  1.00  0.00     0.063 H 
ATOM     29  H   UNL A   1      32.012  19.103  21.777  1.00  0.00     0.062 H 
BRANCH  22  30
ATOM     30  C   UNL A   1      31.909  23.466  23.131  1.00  0.00    -0.011 A 
ATOM     31  C   UNL A   1      30.797  24.211  23.689  1.00  0.00    -0.038 A 
ATOM     32  C   UNL A   1      32.773  24.106  22.324  1.00  0.00     0.012 A 
ATOM     33  C   UNL A   1      30.554  25.469  23.302  1.00  0.00     0.013 A 
ATOM     34  H   UNL A   1      30.186  23.767  24.393  1.00  0.00     0.064 H 
ATOM     35  C   UNL A   1      32.564  25.532  21.948  1.00  0.00     0.255 A 
ATOM     36  H   UNL A   1      33.596  23.601  21.961  1.00  0.00     0.069 H 
ATOM     37  N   UNL A   1      31.397  26.114  22.417  1.00  0.00    -0.258 N 
ATOM     38  H   UNL A   1      29.725  25.962  23.668  1.00  0.00     0.082 H 
ATOM     39  O   UNL A   1      33.402  26.082  21.243  1.00  0.00    -0.269 OA
BRANCH  37  40
ATOM     40  C   UNL A   1      31.123  27.464  21.997  1.00  0.00     0.321 C 
ATOM     41  F   UNL A   1      29.883  27.853  22.376  1.00  0.00    -0.185 F 
ATOM     42  F   UNL A   1      32.018  28.333  22.529  1.00  0.00    -0.185 F 
ATOM     43  H   UNL A   1      31.197  27.474  20.929  1.00  0.00     0.131 H 
ENDBRANCH  37  40
ENDBRANCH  22  30
ENDBRANCH  14  20
ENDBRANCH  11  14
ENDBRANCH   7  10
ENDBRANCH   4   7
ENDBRANCH   1   4
BRANCH   1  44
ATOM     44  C   UNL A   1      32.791  26.462  26.014  1.00  0.00    -0.052 C 
ATOM     45  H   UNL A   1      33.124  26.447  27.031  1.00  0.00     0.027 H 
ATOM     46  H   UNL A   1      32.030  25.737  25.814  1.00  0.00     0.027 H 
BRANCH  44  47
ATOM     47  C   UNL A   1      32.174  27.832  25.734  1.00  0.00    -0.036 C 
ATOM     48  H   UNL A   1      31.528  28.083  26.550  1.00  0.00     0.028 H 
ATOM     49  H   UNL A   1      31.651  27.752  24.804  1.00  0.00     0.028 H 
BRANCH  47  50
ATOM     50  C   UNL A   1      33.197  28.950  25.571  1.00  0.00     0.018 C 
ATOM     51  H   UNL A   1      33.505  28.989  24.547  1.00  0.00     0.049 H 
ATOM     52  H   UNL A   1      34.024  28.738  26.215  1.00  0.00     0.049 H 
BRANCH  50  53
ATOM     53  N   UNL A   1      32.653  30.244  25.948  1.00  0.00    -0.352 N 
ATOM     54  C   UNL A   1      33.109  31.120  26.906  1.00  0.00     0.251 C 
ATOM     55  H   UNL A   1      31.852  30.532  25.453  1.00  0.00     0.163 HD
ATOM     56  O   UNL A   1      32.445  32.083  27.248  1.00  0.00    -0.269 OA
BRANCH  54  57
ATOM     57  C   UNL A   1      34.421  30.857  27.533  1.00  0.00     0.039 A 
ATOM     58  C   UNL A   1      35.337  31.902  27.664  1.00  0.00    -0.049 A 
ATOM     59  C   UNL A   1      34.718  29.582  28.022  1.00  0.00    -0.049 A 
ATOM     60  C   UNL A   1      36.535  31.684  28.348  1.00  0.00    -0.053 A 
ATOM     61  H   UNL A   1      35.131  32.829  27.260  1.00  0.00     0.063 H 
ATOM     62  C   UNL A   1      35.875  29.387  28.764  1.00  0.00    -0.053 A 
ATOM     63  H   UNL A   1      34.081  28.793  27.834  1.00  0.00     0.063 H 
ATOM     64  C   UNL A   1      36.796  30.434  28.930  1.00  0.00    -0.014 A 
ATOM     65  H   UNL A   1      37.230  32.443  28.424  1.00  0.00     0.063 H 
ATOM     66  H   UNL A   1      36.061  28.467  29.194  1.00  0.00     0.063 H 
BRANCH  64  67
ATOM     67  C   UNL A   1      38.030  30.175  29.712  1.00  0.00     0.031 A 
ATOM     68  C   UNL A   1      39.051  29.210  29.182  1.00  0.00     0.074 A 
ATOM     69  C   UNL A   1      38.174  30.709  30.939  1.00  0.00     0.049 A 
ATOM     70  N   UNL A   1      40.105  28.709  29.772  1.00  0.00    -0.248 NA
ATOM     71  C   UNL A   1      38.830  28.712  27.816  1.00  0.00    -0.034 C 
ATOM     72  C   UNL A   1      37.228  31.623  31.579  1.00  0.00    -0.036 A 
ATOM     73  N   UNL A   1      39.156  30.530  31.881  1.00  0.00    -0.354 N 
ATOM     74  C   UNL A   1      40.653  27.814  28.863  1.00  0.00     0.074 A 
ATOM     75  C   UNL A   1      39.789  27.806  27.703  1.00  0.00    -0.034 C 
ATOM     76  H   UNL A   1      38.116  28.994  27.127  1.00  0.00     0.065 H 
ATOM     77  C   UNL A   1      37.673  31.922  32.809  1.00  0.00    -0.036 A 
ATOM     78  H   UNL A   1      36.359  31.981  31.152  1.00  0.00     0.065 H 
ATOM     79  C   UNL A   1      38.908  31.187  33.062  1.00  0.00     0.049 A 
ATOM     80  H   UNL A   1      39.960  29.984  31.725  1.00  0.00     0.167 HD
ATOM     81  C   UNL A   1      41.785  27.080  28.981  1.00  0.00     0.037 A 
ATOM     82  H   UNL A   1      39.904  27.176  26.894  1.00  0.00     0.065 H 
ATOM     83  H   UNL A   1      37.214  32.568  33.472  1.00  0.00     0.065 H 
ATOM     84  C   UNL A   1      39.588  31.175  34.225  1.00  0.00     0.037 A 
ATOM     85  C   UNL A   1      42.653  27.118  30.127  1.00  0.00     0.049 A 
ATOM     86  C   UNL A   1      40.845  30.359  34.335  1.00  0.00     0.074 A 
ATOM     87  C   UNL A   1      43.864  26.477  30.315  1.00  0.00    -0.036 A 
ATOM     88  N   UNL A   1      42.395  27.837  31.287  1.00  0.00    -0.354 N 
ATOM     89  N   UNL A   1      41.397  29.570  33.445  1.00  0.00    -0.248 NA
ATOM     90  C   UNL A   1      41.579  30.433  35.606  1.00  0.00    -0.034 C 
ATOM     91  C   UNL A   1      44.313  26.764  31.608  1.00  0.00    -0.036 A 
ATOM     92  H   UNL A   1      44.351  25.889  29.621  1.00  0.00     0.065 H 
ATOM     93  C   UNL A   1      43.411  27.632  32.205  1.00  0.00     0.049 A 
ATOM     94  H   UNL A   1      41.607  28.409  31.435  1.00  0.00     0.167 HD
ATOM     95  C   UNL A   1      42.554  29.078  34.033  1.00  0.00     0.074 A 
ATOM     96  C   UNL A   1      42.627  29.657  35.359  1.00  0.00    -0.034 C 
ATOM     97  H   UNL A   1      41.343  30.953  36.466  1.00  0.00     0.065 H 
ATOM     98  H   UNL A   1      45.171  26.392  32.044  1.00  0.00     0.065 H 
ATOM     99  C   UNL A   1      43.474  28.226  33.518  1.00  0.00     0.037 A 
ATOM    100  H   UNL A   1      43.396  29.488  36.026  1.00  0.00     0.065 H 
BRANCH  81 101
ATOM    101  C   UNL A   1      42.133  26.162  27.844  1.00  0.00     0.064 A 
ATOM    102  C   UNL A   1      41.542  24.898  27.704  1.00  0.00     0.173 A 
ATOM    103  C   UNL A   1      43.075  26.554  26.880  1.00  0.00     0.173 A 
ATOM    104  F   UNL A   1      40.642  24.470  28.603  1.00  0.00    -0.203 F 
ATOM    105  C   UNL A   1      41.915  24.041  26.672  1.00  0.00     0.198 A 
ATOM    106  C   UNL A   1      43.419  25.709  25.828  1.00  0.00     0.198 A 
ATOM    107  F   UNL A   1      43.667  27.755  26.960  1.00  0.00    -0.203 F 
ATOM    108  F   UNL A   1      41.387  22.811  26.601  1.00  0.00    -0.200 F 
ATOM    109  C   UNL A   1      42.849  24.448  25.733  1.00  0.00     0.200 A 
ATOM    110  F   UNL A   1      44.312  26.110  24.913  1.00  0.00    -0.200 F 
ATOM    111  F   UNL A   1      43.210  23.620  24.742  1.00  0.00    -0.200 F 
ENDBRANCH  81 101
BRANCH  84 112
ATOM    112  C   UNL A   1      39.082  31.977  35.369  1.00  0.00     0.064 A 
ATOM    113  C   UNL A   1      38.338  31.379  36.395  1.00  0.00     0.173 A 
ATOM    114  C   UNL A   1      39.372  33.345  35.483  1.00  0.00     0.173 A 
ATOM    115  F   UNL A   1      38.020  30.079  36.321  1.00  0.00    -0.203 F 
ATOM    116  C   UNL A   1      37.898  32.121  37.489  1.00  0.00     0.198 A 
ATOM    117  C   UNL A   1      38.954  34.079  36.591  1.00  0.00     0.198 A 
ATOM    118  F   UNL A   1      40.089  33.960  34.531  1.00  0.00    -0.203 F 
ATOM    119  F   UNL A   1      37.166  31.532  38.444  1.00  0.00    -0.200 F 
ATOM    120  C   UNL A   1      38.214  33.467  37.591  1.00  0.00     0.200 A 
ATOM    121  F   UNL A   1      39.278  35.375  36.693  1.00  0.00    -0.200 F 
ATOM    122  F   UNL A   1      37.806  34.176  38.653  1.00  0.00    -0.200 F 
ENDBRANCH  84 112
BRANCH  99 123
ATOM    123  C   UNL A   1      44.667  27.892  34.364  1.00  0.00     0.064 A 
ATOM    124  C   UNL A   1      44.691  26.762  35.192  1.00  0.00     0.173 A 
ATOM    125  C   UNL A   1      45.835  28.666  34.273  1.00  0.00     0.173 A 
ATOM    126  F   UNL A   1      43.596  25.998  35.325  1.00  0.00    -0.203 F 
ATOM    127  C   UNL A   1      45.839  26.422  35.903  1.00  0.00     0.198 A 
ATOM    128  C   UNL A   1      46.988  28.309  34.963  1.00  0.00     0.198 A 
ATOM    129  F   UNL A   1      45.864  29.755  33.488  1.00  0.00    -0.203 F 
ATOM    130  F   UNL A   1      45.833  25.351  36.709  1.00  0.00    -0.200 F 
ATOM    131  C   UNL A   1      46.990  27.187  35.778  1.00  0.00     0.200 A 
ATOM    132  F   UNL A   1      48.103  29.041  34.828  1.00  0.00    -0.200 F 
ATOM    133  F   UNL A   1      48.101  26.845  36.445  1.00  0.00    -0.200 F 
ENDBRANCH  99 123
ENDBRANCH  64  67
ENDBRANCH  54  57
ENDBRANCH  50  53
ENDBRANCH  47  50
ENDBRANCH  44  47
ENDBRANCH   1  44
TORSDOF 17
ENDMDL
MODEL 3
REMARK VINA RESULT:     -12.4      6.488     10.796
REMARK SMILES C[C@@H](C(=O)NCCCCCCNC(=O)c1ccc(-c2c3nc(c(-c4c(F)c(F)c(F)c(F)c4F)c4ccc([nH]4)c(-c4c(F)c(F)c(F)c(F)c4F)c4nc(c(-c5c(F)c(F)c(F)c(F)c5F)c5ccc2[nH]5)C=C4)C=C3)cc1)c1ccccc1-c1ccn(C(F)F)c(=O)c1
REMARK SMILES IDX 8 1 7 4 6 7 5 10 3 11 4 12 2 14 1 16 78 20 79 21 83 22 80 23
REMARK SMILES IDX 82 25 81 26 84 30 85 31 93 32 86 33 91 35 87 37 92 39 88 40
REMARK SMILES IDX 89 41 90 42 9 44 10 47 11 50 12 53 13 54 14 56 15 57 16 58
REMARK SMILES IDX 77 59 17 60 76 62 18 64 19 67 20 68 70 69 21 70 75 71 69 72
REMARK SMILES IDX 71 73 22 74 74 75 68 77 67 79 23 81 55 84 35 85 54 86 36 87
REMARK SMILES IDX 39 88 53 89 72 90 37 91 38 93 52 95 73 96 40 99 24 101
REMARK SMILES IDX 25 102 33 103 26 104 27 105 31 106 34 107 28 108 29 109
REMARK SMILES IDX 32 110 30 111 56 112 57 113 65 114 58 115 59 116 63 117
REMARK SMILES IDX 66 118 60 119 61 120 64 121 62 122 41 123 42 124 50 125
REMARK SMILES IDX 43 126 44 127 48 128 51 129 45 130 46 131 49 132 47 133
REMARK H PARENT 8 2 8 3 7 5 7 6 6 8 6 9 5 13 2 15 1 17 1 18 1 19 79 24 80 27
REMARK H PARENT 82 28 81 29 85 34 93 36 86 38 88 43 9 45 9 46 10 48 10 49
REMARK H PARENT 11 51 11 52 12 55 16 61 77 63 17 65 76 66 75 76 69 78 71 80
REMARK H PARENT 74 82 68 83 36 92 39 94 72 97 37 98 73 100
REMARK Flexibility Score: inf
ROOT
ATOM      1  C   UNL A   1      35.948  21.664  25.011  1.00  0.00    -0.052 C 
ATOM      2  H   UNL A   1      35.163  21.000  24.716  1.00  0.00     0.027 H 
ATOM      3  H   UNL A   1      36.131  21.654  26.066  1.00  0.00     0.027 H 
ENDROOT
BRANCH   1   4
ATOM      4  C   UNL A   1      35.523  23.097  24.657  1.00  0.00    -0.036 C 
ATOM      5  H   UNL A   1      36.384  23.632  24.314  1.00  0.00     0.028 H 
ATOM      6  H   UNL A   1      34.766  23.027  23.903  1.00  0.00     0.028 H 
BRANCH   4   7
ATOM      7  C   UNL A   1      34.916  23.859  25.838  1.00  0.00     0.017 C 
ATOM      8  H   UNL A   1      35.669  24.457  26.306  1.00  0.00     0.049 H 
ATOM      9  H   UNL A   1      34.127  24.496  25.494  1.00  0.00     0.049 H 
BRANCH   7  10
ATOM     10  N   UNL A   1      34.392  22.902  26.792  1.00  0.00    -0.356 N 
ATOM     11  C   UNL A   1      33.095  22.690  27.159  1.00  0.00     0.227 C 
ATOM     12  O   UNL A   1      32.902  22.199  28.273  1.00  0.00    -0.274 OA
ATOM     13  H   UNL A   1      35.061  22.331  27.234  1.00  0.00     0.163 HD
BRANCH  11  14
ATOM     14  C   UNL A   1      31.967  23.004  26.168  1.00  0.00     0.061 C 
ATOM     15  H   UNL A   1      32.076  23.984  25.753  1.00  0.00     0.045 H 
BRANCH  14  16
ATOM     16  C   UNL A   1      30.630  22.991  26.924  1.00  0.00    -0.049 C 
ATOM     17  H   UNL A   1      30.123  22.068  26.735  1.00  0.00     0.024 H 
ATOM     18  H   UNL A   1      30.023  23.806  26.591  1.00  0.00     0.024 H 
ATOM     19  H   UNL A   1      30.814  23.087  27.974  1.00  0.00     0.024 H 
ENDBRANCH  14  16
BRANCH  14  20
ATOM     20  C   UNL A   1      32.036  22.062  24.954  1.00  0.00    -0.028 A 
ATOM     21  C   UNL A   1      32.165  20.670  25.139  1.00  0.00    -0.058 A 
ATOM     22  C   UNL A   1      32.013  22.555  23.621  1.00  0.00    -0.014 A 
ATOM     23  C   UNL A   1      32.278  19.794  24.059  1.00  0.00    -0.062 A 
ATOM     24  H   UNL A   1      32.176  20.289  26.098  1.00  0.00     0.063 H 
ATOM     25  C   UNL A   1      32.153  21.658  22.545  1.00  0.00    -0.054 A 
ATOM     26  C   UNL A   1      32.282  20.288  22.762  1.00  0.00    -0.062 A 
ATOM     27  H   UNL A   1      32.358  18.779  24.224  1.00  0.00     0.062 H 
ATOM     28  H   UNL A   1      32.160  22.021  21.579  1.00  0.00     0.063 H 
ATOM     29  H   UNL A   1      32.381  19.643  21.963  1.00  0.00     0.062 H 
BRANCH  22  30
ATOM     30  C   UNL A   1      31.830  23.986  23.275  1.00  0.00    -0.011 A 
ATOM     31  C   UNL A   1      30.665  24.762  23.652  1.00  0.00    -0.038 A 
ATOM     32  C   UNL A   1      32.821  24.597  22.603  1.00  0.00     0.012 A 
ATOM     33  C   UNL A   1      30.513  26.020  23.222  1.00  0.00     0.013 A 
ATOM     34  H   UNL A   1      29.944  24.340  24.259  1.00  0.00     0.064 H 
ATOM     35  C   UNL A   1      32.705  26.022  22.188  1.00  0.00     0.255 A 
ATOM     36  H   UNL A   1      33.678  24.070  22.373  1.00  0.00     0.069 H 
ATOM     37  N   UNL A   1      31.495  26.636  22.470  1.00  0.00    -0.258 N 
ATOM     38  H   UNL A   1      29.650  26.536  23.454  1.00  0.00     0.082 H 
ATOM     39  O   UNL A   1      33.653  26.545  21.613  1.00  0.00    -0.269 OA
BRANCH  37  40
ATOM     40  C   UNL A   1      31.319  27.986  22.001  1.00  0.00     0.321 C 
ATOM     41  F   UNL A   1      30.013  28.340  22.005  1.00  0.00    -0.185 F 
ATOM     42  F   UNL A   1      31.997  28.866  22.781  1.00  0.00    -0.185 F 
ATOM     43  H   UNL A   1      31.702  28.017  21.002  1.00  0.00     0.131 H 
ENDBRANCH  37  40
ENDBRANCH  22  30
ENDBRANCH  14  20
ENDBRANCH  11  14
ENDBRANCH   7  10
ENDBRANCH   4   7
ENDBRANCH   1   4
BRANCH   1  44
ATOM     44  C   UNL A   1      37.245  21.198  24.342  1.00  0.00    -0.052 C 
ATOM     45  H   UNL A   1      37.941  22.012  24.361  1.00  0.00     0.027 H 
ATOM     46  H   UNL A   1      36.986  20.895  23.350  1.00  0.00     0.027 H 
BRANCH  44  47
ATOM     47  C   UNL A   1      37.904  19.992  25.010  1.00  0.00    -0.036 C 
ATOM     48  H   UNL A   1      38.176  19.292  24.248  1.00  0.00     0.028 H 
ATOM     49  H   UNL A   1      37.191  19.592  25.700  1.00  0.00     0.028 H 
BRANCH  47  50
ATOM     50  C   UNL A   1      39.153  20.334  25.813  1.00  0.00     0.018 C 
ATOM     51  H   UNL A   1      38.860  20.613  26.804  1.00  0.00     0.049 H 
ATOM     52  H   UNL A   1      39.654  21.139  25.318  1.00  0.00     0.049 H 
BRANCH  50  53
ATOM     53  N   UNL A   1      40.073  19.212  25.894  1.00  0.00    -0.352 N 
ATOM     54  C   UNL A   1      41.441  19.234  26.042  1.00  0.00     0.251 C 
ATOM     55  H   UNL A   1      39.665  18.318  25.833  1.00  0.00     0.163 HD
ATOM     56  O   UNL A   1      42.107  18.223  25.902  1.00  0.00    -0.269 OA
BRANCH  54  57
ATOM     57  C   UNL A   1      42.095  20.521  26.355  1.00  0.00     0.039 A 
ATOM     58  C   UNL A   1      42.510  21.349  25.310  1.00  0.00    -0.049 A 
ATOM     59  C   UNL A   1      42.258  20.916  27.685  1.00  0.00    -0.049 A 
ATOM     60  C   UNL A   1      43.033  22.611  25.599  1.00  0.00    -0.053 A 
ATOM     61  H   UNL A   1      42.429  21.031  24.331  1.00  0.00     0.063 H 
ATOM     62  C   UNL A   1      42.710  22.199  27.968  1.00  0.00    -0.053 A 
ATOM     63  H   UNL A   1      42.042  20.260  28.452  1.00  0.00     0.063 H 
ATOM     64  C   UNL A   1      43.106  23.056  26.928  1.00  0.00    -0.014 A 
ATOM     65  H   UNL A   1      43.368  23.217  24.834  1.00  0.00     0.063 H 
ATOM     66  H   UNL A   1      42.758  22.523  28.947  1.00  0.00     0.063 H 
BRANCH  64  67
ATOM     67  C   UNL A   1      43.604  24.409  27.277  1.00  0.00     0.031 A 
ATOM     68  C   UNL A   1      42.639  25.443  27.781  1.00  0.00     0.074 A 
ATOM     69  C   UNL A   1      44.885  24.740  27.029  1.00  0.00     0.049 A 
ATOM     70  N   UNL A   1      42.822  26.723  27.977  1.00  0.00    -0.248 NA
ATOM     71  C   UNL A   1      41.273  24.978  28.062  1.00  0.00    -0.034 C 
ATOM     72  C   UNL A   1      45.903  23.834  26.497  1.00  0.00    -0.036 A 
ATOM     73  N   UNL A   1      45.539  25.939  27.158  1.00  0.00    -0.354 N 
ATOM     74  C   UNL A   1      41.588  27.221  28.373  1.00  0.00     0.074 A 
ATOM     75  C   UNL A   1      40.655  26.115  28.342  1.00  0.00    -0.034 C 
ATOM     76  H   UNL A   1      40.894  24.019  28.045  1.00  0.00     0.065 H 
ATOM     77  C   UNL A   1      47.052  24.510  26.342  1.00  0.00    -0.036 A 
ATOM     78  H   UNL A   1      45.761  22.835  26.277  1.00  0.00     0.065 H 
ATOM     79  C   UNL A   1      46.839  25.905  26.719  1.00  0.00     0.049 A 
ATOM     80  H   UNL A   1      45.116  26.746  27.531  1.00  0.00     0.167 HD
ATOM     81  C   UNL A   1      41.268  28.483  28.746  1.00  0.00     0.037 A 
ATOM     82  H   UNL A   1      39.641  26.202  28.514  1.00  0.00     0.065 H 
ATOM     83  H   UNL A   1      47.943  24.109  26.008  1.00  0.00     0.065 H 
ATOM     84  C   UNL A   1      47.749  26.892  26.608  1.00  0.00     0.037 A 
ATOM     85  C   UNL A   1      42.211  29.568  28.801  1.00  0.00     0.049 A 
ATOM     86  C   UNL A   1      47.378  28.286  27.032  1.00  0.00     0.074 A 
ATOM     87  C   UNL A   1      42.009  30.864  29.241  1.00  0.00    -0.036 A 
ATOM     88  N   UNL A   1      43.536  29.482  28.396  1.00  0.00    -0.354 N 
ATOM     89  N   UNL A   1      46.228  28.735  27.474  1.00  0.00    -0.248 NA
ATOM     90  C   UNL A   1      48.428  29.310  26.949  1.00  0.00    -0.034 C 
ATOM     91  C   UNL A   1      43.198  31.578  29.051  1.00  0.00    -0.036 A 
ATOM     92  H   UNL A   1      41.135  31.240  29.639  1.00  0.00     0.065 H 
ATOM     93  C   UNL A   1      44.157  30.711  28.549  1.00  0.00     0.049 A 
ATOM     94  H   UNL A   1      43.970  28.669  28.051  1.00  0.00     0.167 HD
ATOM     95  C   UNL A   1      46.422  30.082  27.749  1.00  0.00     0.074 A 
ATOM     96  C   UNL A   1      47.802  30.379  27.423  1.00  0.00    -0.034 C 
ATOM     97  H   UNL A   1      49.399  29.222  26.610  1.00  0.00     0.065 H 
ATOM     98  H   UNL A   1      43.336  32.580  29.251  1.00  0.00     0.065 H 
ATOM     99  C   UNL A   1      45.536  30.988  28.231  1.00  0.00     0.037 A 
ATOM    100  H   UNL A   1      48.242  31.304  27.547  1.00  0.00     0.065 H 
BRANCH  81 101
ATOM    101  C   UNL A   1      39.834  28.754  29.103  1.00  0.00     0.064 A 
ATOM    102  C   UNL A   1      38.900  29.183  28.148  1.00  0.00     0.173 A 
ATOM    103  C   UNL A   1      39.389  28.584  30.424  1.00  0.00     0.173 A 
ATOM    104  F   UNL A   1      39.275  29.371  26.874  1.00  0.00    -0.203 F 
ATOM    105  C   UNL A   1      37.588  29.478  28.510  1.00  0.00     0.198 A 
ATOM    106  C   UNL A   1      38.068  28.845  30.774  1.00  0.00     0.198 A 
ATOM    107  F   UNL A   1      40.237  28.170  31.376  1.00  0.00    -0.203 F 
ATOM    108  F   UNL A   1      36.734  29.954  27.593  1.00  0.00    -0.200 F 
ATOM    109  C   UNL A   1      37.172  29.305  29.820  1.00  0.00     0.200 A 
ATOM    110  F   UNL A   1      37.663  28.664  32.039  1.00  0.00    -0.200 F 
ATOM    111  F   UNL A   1      35.910  29.593  30.167  1.00  0.00    -0.200 F 
ENDBRANCH  81 101
BRANCH  84 112
ATOM    112  C   UNL A   1      49.100  26.578  26.078  1.00  0.00     0.064 A 
ATOM    113  C   UNL A   1      49.433  26.853  24.745  1.00  0.00     0.173 A 
ATOM    114  C   UNL A   1      50.100  26.041  26.904  1.00  0.00     0.173 A 
ATOM    115  F   UNL A   1      48.506  27.349  23.912  1.00  0.00    -0.203 F 
ATOM    116  C   UNL A   1      50.713  26.597  24.257  1.00  0.00     0.198 A 
ATOM    117  C   UNL A   1      51.386  25.811  26.420  1.00  0.00     0.198 A 
ATOM    118  F   UNL A   1      49.832  25.770  28.190  1.00  0.00    -0.203 F 
ATOM    119  F   UNL A   1      50.998  26.844  22.971  1.00  0.00    -0.200 F 
ATOM    120  C   UNL A   1      51.690  26.085  25.096  1.00  0.00     0.200 A 
ATOM    121  F   UNL A   1      52.331  25.333  27.242  1.00  0.00    -0.200 F 
ATOM    122  F   UNL A   1      52.926  25.857  24.631  1.00  0.00    -0.200 F 
ENDBRANCH  84 112
BRANCH  99 123
ATOM    123  C   UNL A   1      46.030  32.382  28.481  1.00  0.00     0.064 A 
ATOM    124  C   UNL A   1      46.638  32.744  29.690  1.00  0.00     0.173 A 
ATOM    125  C   UNL A   1      45.974  33.343  27.458  1.00  0.00     0.173 A 
ATOM    126  F   UNL A   1      46.703  31.866  30.703  1.00  0.00    -0.203 F 
ATOM    127  C   UNL A   1      47.168  34.019  29.869  1.00  0.00     0.198 A 
ATOM    128  C   UNL A   1      46.528  34.607  27.631  1.00  0.00     0.198 A 
ATOM    129  F   UNL A   1      45.407  33.042  26.279  1.00  0.00    -0.203 F 
ATOM    130  F   UNL A   1      47.722  34.353  31.043  1.00  0.00    -0.200 F 
ATOM    131  C   UNL A   1      47.124  34.945  28.836  1.00  0.00     0.200 A 
ATOM    132  F   UNL A   1      46.498  35.493  26.626  1.00  0.00    -0.200 F 
ATOM    133  F   UNL A   1      47.655  36.164  29.003  1.00  0.00    -0.200 F 
ENDBRANCH  99 123
ENDBRANCH  64  67
ENDBRANCH  54  57
ENDBRANCH  50  53
ENDBRANCH  47  50
ENDBRANCH  44  47
ENDBRANCH   1  44
TORSDOF 17
ENDMDL
MODEL 4
REMARK VINA RESULT:     -12.4      2.671      8.073
REMARK SMILES C[C@@H](C(=O)NCCCCCCNC(=O)c1ccc(-c2c3nc(c(-c4c(F)c(F)c(F)c(F)c4F)c4ccc([nH]4)c(-c4c(F)c(F)c(F)c(F)c4F)c4nc(c(-c5c(F)c(F)c(F)c(F)c5F)c5ccc2[nH]5)C=C4)C=C3)cc1)c1ccccc1-c1ccn(C(F)F)c(=O)c1
REMARK SMILES IDX 8 1 7 4 6 7 5 10 3 11 4 12 2 14 1 16 78 20 79 21 83 22 80 23
REMARK SMILES IDX 82 25 81 26 84 30 85 31 93 32 86 33 91 35 87 37 92 39 88 40
REMARK SMILES IDX 89 41 90 42 9 44 10 47 11 50 12 53 13 54 14 56 15 57 16 58
REMARK SMILES IDX 77 59 17 60 76 62 18 64 19 67 20 68 70 69 21 70 75 71 69 72
REMARK SMILES IDX 71 73 22 74 74 75 68 77 67 79 23 81 55 84 35 85 54 86 36 87
REMARK SMILES IDX 39 88 53 89 72 90 37 91 38 93 52 95 73 96 40 99 24 101
REMARK SMILES IDX 25 102 33 103 26 104 27 105 31 106 34 107 28 108 29 109
REMARK SMILES IDX 32 110 30 111 56 112 57 113 65 114 58 115 59 116 63 117
REMARK SMILES IDX 66 118 60 119 61 120 64 121 62 122 41 123 42 124 50 125
REMARK SMILES IDX 43 126 44 127 48 128 51 129 45 130 46 131 49 132 47 133
REMARK H PARENT 8 2 8 3 7 5 7 6 6 8 6 9 5 13 2 15 1 17 1 18 1 19 79 24 80 27
REMARK H PARENT 82 28 81 29 85 34 93 36 86 38 88 43 9 45 9 46 10 48 10 49
REMARK H PARENT 11 51 11 52 12 55 16 61 77 63 17 65 76 66 75 76 69 78 71 80
REMARK H PARENT 74 82 68 83 36 92 39 94 72 97 37 98 73 100
REMARK Flexibility Score: inf
ROOT
ATOM      1  C   UNL A   1      31.805  29.203  26.672  1.00  0.00    -0.052 C 
ATOM      2  H   UNL A   1      31.150  29.265  27.517  1.00  0.00     0.027 H 
ATOM      3  H   UNL A   1      31.483  28.487  25.944  1.00  0.00     0.027 H 
ENDROOT
BRANCH   1   4
ATOM      4  C   UNL A   1      33.181  28.732  27.166  1.00  0.00    -0.036 C 
ATOM      5  H   UNL A   1      33.760  29.593  27.430  1.00  0.00     0.028 H 
ATOM      6  H   UNL A   1      33.015  28.086  28.003  1.00  0.00     0.028 H 
BRANCH   4   7
ATOM      7  C   UNL A   1      33.958  27.927  26.120  1.00  0.00     0.017 C 
ATOM      8  H   UNL A   1      34.970  27.800  26.442  1.00  0.00     0.049 H 
ATOM      9  H   UNL A   1      33.507  26.964  25.994  1.00  0.00     0.049 H 
BRANCH   7  10
ATOM     10  N   UNL A   1      33.934  28.648  24.863  1.00  0.00    -0.356 N 
ATOM     11  C   UNL A   1      33.861  28.147  23.596  1.00  0.00     0.227 C 
ATOM     12  O   UNL A   1      34.315  28.848  22.689  1.00  0.00    -0.274 OA
ATOM     13  H   UNL A   1      33.976  29.629  24.933  1.00  0.00     0.163 HD
BRANCH  11  14
ATOM     14  C   UNL A   1      33.175  26.796  23.355  1.00  0.00     0.061 C 
ATOM     15  H   UNL A   1      33.460  26.078  24.096  1.00  0.00     0.045 H 
BRANCH  14  16
ATOM     16  C   UNL A   1      33.642  26.242  22.001  1.00  0.00    -0.049 C 
ATOM     17  H   UNL A   1      33.250  26.850  21.213  1.00  0.00     0.024 H 
ATOM     18  H   UNL A   1      33.292  25.237  21.885  1.00  0.00     0.024 H 
ATOM     19  H   UNL A   1      34.712  26.254  21.960  1.00  0.00     0.024 H 
ENDBRANCH  14  16
BRANCH  14  20
ATOM     20  C   UNL A   1      31.651  26.926  23.513  1.00  0.00    -0.028 A 
ATOM     21  C   UNL A   1      30.963  28.002  22.913  1.00  0.00    -0.058 A 
ATOM     22  C   UNL A   1      30.897  26.005  24.289  1.00  0.00    -0.014 A 
ATOM     23  C   UNL A   1      29.588  28.174  23.078  1.00  0.00    -0.062 A 
ATOM     24  H   UNL A   1      31.489  28.678  22.340  1.00  0.00     0.063 H 
ATOM     25  C   UNL A   1      29.515  26.210  24.463  1.00  0.00    -0.054 A 
ATOM     26  C   UNL A   1      28.865  27.285  23.860  1.00  0.00    -0.062 A 
ATOM     27  H   UNL A   1      29.108  28.963  22.617  1.00  0.00     0.062 H 
ATOM     28  H   UNL A   1      28.974  25.554  25.047  1.00  0.00     0.063 H 
ATOM     29  H   UNL A   1      27.851  27.420  23.995  1.00  0.00     0.062 H 
BRANCH  22  30
ATOM     30  C   UNL A   1      31.477  24.801  24.932  1.00  0.00    -0.011 A 
ATOM     31  C   UNL A   1      31.937  24.765  26.307  1.00  0.00    -0.038 A 
ATOM     32  C   UNL A   1      31.545  23.675  24.200  1.00  0.00     0.012 A 
ATOM     33  C   UNL A   1      32.545  23.677  26.796  1.00  0.00     0.013 A 
ATOM     34  H   UNL A   1      31.794  25.587  26.915  1.00  0.00     0.064 H 
ATOM     35  C   UNL A   1      32.144  22.430  24.757  1.00  0.00     0.255 A 
ATOM     36  H   UNL A   1      31.175  23.673  23.237  1.00  0.00     0.069 H 
ATOM     37  N   UNL A   1      32.684  22.537  26.028  1.00  0.00    -0.258 N 
ATOM     38  H   UNL A   1      32.915  23.692  27.759  1.00  0.00     0.082 H 
ATOM     39  O   UNL A   1      32.145  21.419  24.063  1.00  0.00    -0.269 OA
BRANCH  37  40
ATOM     40  C   UNL A   1      33.348  21.374  26.558  1.00  0.00     0.321 C 
ATOM     41  F   UNL A   1      34.530  21.159  25.935  1.00  0.00    -0.185 F 
ATOM     42  F   UNL A   1      33.590  21.512  27.886  1.00  0.00    -0.185 F 
ATOM     43  H   UNL A   1      32.693  20.544  26.393  1.00  0.00     0.131 H 
ENDBRANCH  37  40
ENDBRANCH  22  30
ENDBRANCH  14  20
ENDBRANCH  11  14
ENDBRANCH   7  10
ENDBRANCH   4   7
ENDBRANCH   1   4
BRANCH   1  44
ATOM     44  C   UNL A   1      31.809  30.564  25.969  1.00  0.00    -0.052 C 
ATOM     45  H   UNL A   1      31.078  30.538  25.187  1.00  0.00     0.027 H 
ATOM     46  H   UNL A   1      32.803  30.717  25.605  1.00  0.00     0.027 H 
BRANCH  44  47
ATOM     47  C   UNL A   1      31.491  31.748  26.881  1.00  0.00    -0.036 C 
ATOM     48  H   UNL A   1      30.992  31.378  27.752  1.00  0.00     0.028 H 
ATOM     49  H   UNL A   1      30.883  32.422  26.314  1.00  0.00     0.028 H 
BRANCH  47  50
ATOM     50  C   UNL A   1      32.718  32.532  27.329  1.00  0.00     0.018 C 
ATOM     51  H   UNL A   1      33.465  32.471  26.564  1.00  0.00     0.049 H 
ATOM     52  H   UNL A   1      33.068  32.105  28.245  1.00  0.00     0.049 H 
BRANCH  50  53
ATOM     53  N   UNL A   1      32.410  33.932  27.574  1.00  0.00    -0.352 N 
ATOM     54  C   UNL A   1      32.969  34.783  28.501  1.00  0.00     0.251 C 
ATOM     55  H   UNL A   1      31.710  34.323  27.003  1.00  0.00     0.163 HD
ATOM     56  O   UNL A   1      32.482  35.877  28.726  1.00  0.00    -0.269 OA
BRANCH  54  57
ATOM     57  C   UNL A   1      34.167  34.333  29.239  1.00  0.00     0.039 A 
ATOM     58  C   UNL A   1      34.008  33.617  30.427  1.00  0.00    -0.049 A 
ATOM     59  C   UNL A   1      35.441  34.591  28.725  1.00  0.00    -0.049 A 
ATOM     60  C   UNL A   1      35.133  33.100  31.072  1.00  0.00    -0.053 A 
ATOM     61  H   UNL A   1      33.067  33.470  30.824  1.00  0.00     0.063 H 
ATOM     62  C   UNL A   1      36.551  34.015  29.329  1.00  0.00    -0.053 A 
ATOM     63  H   UNL A   1      35.555  35.203  27.904  1.00  0.00     0.063 H 
ATOM     64  C   UNL A   1      36.408  33.268  30.510  1.00  0.00    -0.014 A 
ATOM     65  H   UNL A   1      35.027  32.595  31.966  1.00  0.00     0.063 H 
ATOM     66  H   UNL A   1      37.486  34.137  28.909  1.00  0.00     0.063 H 
BRANCH  64  67
ATOM     67  C   UNL A   1      37.623  32.689  31.133  1.00  0.00     0.031 A 
ATOM     68  C   UNL A   1      38.334  31.555  30.452  1.00  0.00     0.074 A 
ATOM     69  C   UNL A   1      38.013  33.097  32.356  1.00  0.00     0.049 A 
ATOM     70  N   UNL A   1      39.300  30.794  30.897  1.00  0.00    -0.248 NA
ATOM     71  C   UNL A   1      37.864  31.208  29.103  1.00  0.00    -0.034 C 
ATOM     72  C   UNL A   1      37.374  34.158  33.135  1.00  0.00    -0.036 A 
ATOM     73  N   UNL A   1      39.019  32.643  33.171  1.00  0.00    -0.354 N 
ATOM     74  C   UNL A   1      39.530  29.859  29.897  1.00  0.00     0.074 A 
ATOM     75  C   UNL A   1      38.571  30.119  28.845  1.00  0.00    -0.034 C 
ATOM     76  H   UNL A   1      37.166  31.687  28.512  1.00  0.00     0.065 H 
ATOM     77  C   UNL A   1      38.001  34.270  34.317  1.00  0.00    -0.036 A 
ATOM     78  H   UNL A   1      36.572  34.729  32.825  1.00  0.00     0.065 H 
ATOM     79  C   UNL A   1      39.053  33.262  34.396  1.00  0.00     0.049 A 
ATOM     80  H   UNL A   1      39.655  31.941  32.902  1.00  0.00     0.167 HD
ATOM     81  C   UNL A   1      40.468  28.883  29.855  1.00  0.00     0.037 A 
ATOM     82  H   UNL A   1      38.453  29.532  28.004  1.00  0.00     0.065 H 
ATOM     83  H   UNL A   1      37.774  34.959  35.052  1.00  0.00     0.065 H 
ATOM     84  C   UNL A   1      39.828  33.023  35.472  1.00  0.00     0.037 A 
ATOM     85  C   UNL A   1      41.435  28.652  30.894  1.00  0.00     0.049 A 
ATOM     86  C   UNL A   1      40.869  31.940  35.404  1.00  0.00     0.074 A 
ATOM     87  C   UNL A   1      42.479  27.745  30.915  1.00  0.00    -0.036 A 
ATOM     88  N   UNL A   1      41.471  29.335  32.102  1.00  0.00    -0.354 N 
ATOM     89  N   UNL A   1      41.129  31.106  34.427  1.00  0.00    -0.248 NA
ATOM     90  C   UNL A   1      41.728  31.766  36.584  1.00  0.00    -0.034 C 
ATOM     91  C   UNL A   1      43.113  27.840  32.158  1.00  0.00    -0.036 A 
ATOM     92  H   UNL A   1      42.743  27.108  30.148  1.00  0.00     0.065 H 
ATOM     93  C   UNL A   1      42.502  28.848  32.889  1.00  0.00     0.049 A 
ATOM     94  H   UNL A   1      40.856  30.058  32.362  1.00  0.00     0.167 HD
ATOM     95  C   UNL A   1      42.195  30.330  34.858  1.00  0.00     0.074 A 
ATOM     96  C   UNL A   1      42.537  30.791  36.188  1.00  0.00    -0.034 C 
ATOM     97  H   UNL A   1      41.708  32.270  37.485  1.00  0.00     0.065 H 
ATOM     98  H   UNL A   1      43.903  27.257  32.477  1.00  0.00     0.065 H 
ATOM     99  C   UNL A   1      42.836  29.328  34.207  1.00  0.00     0.037 A 
ATOM    100  H   UNL A   1      43.311  30.412  36.754  1.00  0.00     0.065 H 
BRANCH  81 101
ATOM    101  C   UNL A   1      40.475  27.985  28.650  1.00  0.00     0.064 A 
ATOM    102  C   UNL A   1      39.771  26.772  28.626  1.00  0.00     0.173 A 
ATOM    103  C   UNL A   1      41.200  28.344  27.504  1.00  0.00     0.173 A 
ATOM    104  F   UNL A   1      39.069  26.377  29.699  1.00  0.00    -0.203 F 
ATOM    105  C   UNL A   1      39.831  25.930  27.519  1.00  0.00     0.198 A 
ATOM    106  C   UNL A   1      41.230  27.516  26.385  1.00  0.00     0.198 A 
ATOM    107  F   UNL A   1      41.887  29.496  27.469  1.00  0.00    -0.203 F 
ATOM    108  F   UNL A   1      39.207  24.744  27.547  1.00  0.00    -0.200 F 
ATOM    109  C   UNL A   1      40.556  26.304  26.399  1.00  0.00     0.200 A 
ATOM    110  F   UNL A   1      41.919  27.885  25.297  1.00  0.00    -0.200 F 
ATOM    111  F   UNL A   1      40.617  25.489  25.336  1.00  0.00    -0.200 F 
ENDBRANCH  81 101
BRANCH  84 112
ATOM    112  C   UNL A   1      39.642  33.843  36.697  1.00  0.00     0.064 A 
ATOM    113  C   UNL A   1      40.246  35.101  36.820  1.00  0.00     0.173 A 
ATOM    114  C   UNL A   1      38.821  33.406  37.747  1.00  0.00     0.173 A 
ATOM    115  F   UNL A   1      41.054  35.554  35.851  1.00  0.00    -0.203 F 
ATOM    116  C   UNL A   1      40.039  35.889  37.950  1.00  0.00     0.198 A 
ATOM    117  C   UNL A   1      38.595  34.206  38.865  1.00  0.00     0.198 A 
ATOM    118  F   UNL A   1      38.214  32.211  37.672  1.00  0.00    -0.203 F 
ATOM    119  F   UNL A   1      40.649  37.078  38.056  1.00  0.00    -0.200 F 
ATOM    120  C   UNL A   1      39.207  35.445  38.967  1.00  0.00     0.200 A 
ATOM    121  F   UNL A   1      37.776  33.780  39.836  1.00  0.00    -0.200 F 
ATOM    122  F   UNL A   1      38.995  36.212  40.046  1.00  0.00    -0.200 F 
ENDBRANCH  84 112
BRANCH  99 123
ATOM    123  C   UNL A   1      44.001  28.681  34.896  1.00  0.00     0.064 A 
ATOM    124  C   UNL A   1      45.297  29.206  34.804  1.00  0.00     0.173 A 
ATOM    125  C   UNL A   1      43.798  27.572  35.734  1.00  0.00     0.173 A 
ATOM    126  F   UNL A   1      45.546  30.255  34.006  1.00  0.00    -0.203 F 
ATOM    127  C   UNL A   1      46.349  28.641  35.522  1.00  0.00     0.198 A 
ATOM    128  C   UNL A   1      44.844  27.028  36.470  1.00  0.00     0.198 A 
ATOM    129  F   UNL A   1      42.573  27.037  35.860  1.00  0.00    -0.203 F 
ATOM    130  F   UNL A   1      47.586  29.143  35.400  1.00  0.00    -0.200 F 
ATOM    131  C   UNL A   1      46.120  27.562  36.363  1.00  0.00     0.200 A 
ATOM    132  F   UNL A   1      44.618  25.995  37.293  1.00  0.00    -0.200 F 
ATOM    133  F   UNL A   1      47.129  27.035  37.070  1.00  0.00    -0.200 F 
ENDBRANCH  99 123
ENDBRANCH  64  67
ENDBRANCH  54  57
ENDBRANCH  50  53
ENDBRANCH  47  50
ENDBRANCH  44  47
ENDBRANCH   1  44
TORSDOF 17
ENDMDL
MODEL 5
REMARK VINA RESULT:     -12.4      2.663      8.141
REMARK SMILES C[C@@H](C(=O)NCCCCCCNC(=O)c1ccc(-c2c3nc(c(-c4c(F)c(F)c(F)c(F)c4F)c4ccc([nH]4)c(-c4c(F)c(F)c(F)c(F)c4F)c4nc(c(-c5c(F)c(F)c(F)c(F)c5F)c5ccc2[nH]5)C=C4)C=C3)cc1)c1ccccc1-c1ccn(C(F)F)c(=O)c1
REMARK SMILES IDX 8 1 7 4 6 7 5 10 3 11 4 12 2 14 1 16 78 20 79 21 83 22 80 23
REMARK SMILES IDX 82 25 81 26 84 30 85 31 93 32 86 33 91 35 87 37 92 39 88 40
REMARK SMILES IDX 89 41 90 42 9 44 10 47 11 50 12 53 13 54 14 56 15 57 16 58
REMARK SMILES IDX 77 59 17 60 76 62 18 64 19 67 20 68 70 69 21 70 75 71 69 72
REMARK SMILES IDX 71 73 22 74 74 75 68 77 67 79 23 81 55 84 35 85 54 86 36 87
REMARK SMILES IDX 39 88 53 89 72 90 37 91 38 93 52 95 73 96 40 99 24 101
REMARK SMILES IDX 25 102 33 103 26 104 27 105 31 106 34 107 28 108 29 109
REMARK SMILES IDX 32 110 30 111 56 112 57 113 65 114 58 115 59 116 63 117
REMARK SMILES IDX 66 118 60 119 61 120 64 121 62 122 41 123 42 124 50 125
REMARK SMILES IDX 43 126 44 127 48 128 51 129 45 130 46 131 49 132 47 133
REMARK H PARENT 8 2 8 3 7 5 7 6 6 8 6 9 5 13 2 15 1 17 1 18 1 19 79 24 80 27
REMARK H PARENT 82 28 81 29 85 34 93 36 86 38 88 43 9 45 9 46 10 48 10 49
REMARK H PARENT 11 51 11 52 12 55 16 61 77 63 17 65 76 66 75 76 69 78 71 80
REMARK H PARENT 74 82 68 83 36 92 39 94 72 97 37 98 73 100
REMARK Flexibility Score: inf
ROOT
ATOM      1  C   UNL A   1      31.827  29.093  26.738  1.00  0.00    -0.052 C 
ATOM      2  H   UNL A   1      31.195  29.170  27.599  1.00  0.00     0.027 H 
ATOM      3  H   UNL A   1      31.503  28.345  26.045  1.00  0.00     0.027 H 
ENDROOT
BRANCH   1   4
ATOM      4  C   UNL A   1      33.228  28.674  27.208  1.00  0.00    -0.036 C 
ATOM      5  H   UNL A   1      33.776  29.554  27.471  1.00  0.00     0.028 H 
ATOM      6  H   UNL A   1      33.100  28.014  28.041  1.00  0.00     0.028 H 
BRANCH   4   7
ATOM      7  C   UNL A   1      34.020  27.909  26.143  1.00  0.00     0.017 C 
ATOM      8  H   UNL A   1      35.035  27.795  26.462  1.00  0.00     0.049 H 
ATOM      9  H   UNL A   1      33.589  26.941  25.995  1.00  0.00     0.049 H 
BRANCH   7  10
ATOM     10  N   UNL A   1      33.981  28.659  24.904  1.00  0.00    -0.356 N 
ATOM     11  C   UNL A   1      33.887  28.187  23.627  1.00  0.00     0.227 C 
ATOM     12  O   UNL A   1      34.331  28.906  22.729  1.00  0.00    -0.274 OA
ATOM     13  H   UNL A   1      34.030  29.637  24.995  1.00  0.00     0.163 HD
BRANCH  11  14
ATOM     14  C   UNL A   1      33.190  26.845  23.366  1.00  0.00     0.061 C 
ATOM     15  H   UNL A   1      33.469  26.114  24.095  1.00  0.00     0.045 H 
BRANCH  14  16
ATOM     16  C   UNL A   1      33.653  26.308  22.003  1.00  0.00    -0.049 C 
ATOM     17  H   UNL A   1      34.714  26.166  22.017  1.00  0.00     0.024 H 
ATOM     18  H   UNL A   1      33.397  27.008  21.236  1.00  0.00     0.024 H 
ATOM     19  H   UNL A   1      33.172  25.372  21.807  1.00  0.00     0.024 H 
ENDBRANCH  14  16
BRANCH  14  20
ATOM     20  C   UNL A   1      31.667  26.985  23.525  1.00  0.00    -0.028 A 
ATOM     21  C   UNL A   1      30.986  28.067  22.929  1.00  0.00    -0.058 A 
ATOM     22  C   UNL A   1      30.907  26.068  24.300  1.00  0.00    -0.014 A 
ATOM     23  C   UNL A   1      29.612  28.249  23.095  1.00  0.00    -0.062 A 
ATOM     24  H   UNL A   1      31.516  28.741  22.356  1.00  0.00     0.063 H 
ATOM     25  C   UNL A   1      29.527  26.282  24.476  1.00  0.00    -0.054 A 
ATOM     26  C   UNL A   1      28.884  27.363  23.876  1.00  0.00    -0.062 A 
ATOM     27  H   UNL A   1      29.137  29.041  22.637  1.00  0.00     0.062 H 
ATOM     28  H   UNL A   1      28.982  25.628  25.059  1.00  0.00     0.063 H 
ATOM     29  H   UNL A   1      27.871  27.504  24.012  1.00  0.00     0.062 H 
BRANCH  22  30
ATOM     30  C   UNL A   1      31.480  24.858  24.939  1.00  0.00    -0.011 A 
ATOM     31  C   UNL A   1      31.926  24.811  26.318  1.00  0.00    -0.038 A 
ATOM     32  C   UNL A   1      31.554  23.738  24.200  1.00  0.00     0.012 A 
ATOM     33  C   UNL A   1      32.528  23.720  26.805  1.00  0.00     0.013 A 
ATOM     34  H   UNL A   1      31.778  25.629  26.931  1.00  0.00     0.064 H 
ATOM     35  C   UNL A   1      32.146  22.488  24.753  1.00  0.00     0.255 A 
ATOM     36  H   UNL A   1      31.194  23.744  23.233  1.00  0.00     0.069 H 
ATOM     37  N   UNL A   1      32.674  22.585  26.031  1.00  0.00    -0.258 N 
ATOM     38  H   UNL A   1      32.889  23.727  27.772  1.00  0.00     0.082 H 
ATOM     39  O   UNL A   1      32.153  21.482  24.052  1.00  0.00    -0.269 OA
BRANCH  37  40
ATOM     40  C   UNL A   1      33.331  21.418  26.559  1.00  0.00     0.321 C 
ATOM     41  F   UNL A   1      34.481  21.160  25.892  1.00  0.00    -0.185 F 
ATOM     42  F   UNL A   1      33.632  21.577  27.872  1.00  0.00    -0.185 F 
ATOM     43  H   UNL A   1      32.651  20.600  26.438  1.00  0.00     0.131 H 
ENDBRANCH  37  40
ENDBRANCH  22  30
ENDBRANCH  14  20
ENDBRANCH  11  14
ENDBRANCH   7  10
ENDBRANCH   4   7
ENDBRANCH   1   4
BRANCH   1  44
ATOM     44  C   UNL A   1      31.778  30.429  25.989  1.00  0.00    -0.052 C 
ATOM     45  H   UNL A   1      31.004  30.370  25.251  1.00  0.00     0.027 H 
ATOM     46  H   UNL A   1      32.748  30.578  25.565  1.00  0.00     0.027 H 
BRANCH  44  47
ATOM     47  C   UNL A   1      31.498  31.642  26.876  1.00  0.00    -0.036 C 
ATOM     48  H   UNL A   1      31.028  31.301  27.774  1.00  0.00     0.028 H 
ATOM     49  H   UNL A   1      30.875  32.303  26.310  1.00  0.00     0.028 H 
BRANCH  47  50
ATOM     50  C   UNL A   1      32.745  32.431  27.257  1.00  0.00     0.018 C 
ATOM     51  H   UNL A   1      33.463  32.345  26.468  1.00  0.00     0.049 H 
ATOM     52  H   UNL A   1      33.126  32.025  28.171  1.00  0.00     0.049 H 
BRANCH  50  53
ATOM     53  N   UNL A   1      32.454  33.838  27.476  1.00  0.00    -0.352 N 
ATOM     54  C   UNL A   1      33.003  34.693  28.404  1.00  0.00     0.251 C 
ATOM     55  H   UNL A   1      31.773  34.231  26.883  1.00  0.00     0.163 HD
ATOM     56  O   UNL A   1      32.528  35.798  28.603  1.00  0.00    -0.269 OA
BRANCH  54  57
ATOM     57  C   UNL A   1      34.176  34.235  29.177  1.00  0.00     0.039 A 
ATOM     58  C   UNL A   1      33.979  33.463  30.323  1.00  0.00    -0.049 A 
ATOM     59  C   UNL A   1      35.466  34.542  28.736  1.00  0.00    -0.049 A 
ATOM     60  C   UNL A   1      35.085  32.941  30.998  1.00  0.00    -0.053 A 
ATOM     61  H   UNL A   1      33.024  33.279  30.669  1.00  0.00     0.063 H 
ATOM     62  C   UNL A   1      36.560  33.962  29.365  1.00  0.00    -0.053 A 
ATOM     63  H   UNL A   1      35.604  35.194  27.948  1.00  0.00     0.063 H 
ATOM     64  C   UNL A   1      36.380  33.161  30.504  1.00  0.00    -0.014 A 
ATOM     65  H   UNL A   1      34.949  32.394  31.863  1.00  0.00     0.063 H 
ATOM     66  H   UNL A   1      37.510  34.123  28.995  1.00  0.00     0.063 H 
BRANCH  64  67
ATOM     67  C   UNL A   1      37.578  32.579  31.157  1.00  0.00     0.031 A 
ATOM     68  C   UNL A   1      38.290  31.429  30.505  1.00  0.00     0.074 A 
ATOM     69  C   UNL A   1      37.949  33.002  32.380  1.00  0.00     0.049 A 
ATOM     70  N   UNL A   1      39.240  30.665  30.978  1.00  0.00    -0.248 NA
ATOM     71  C   UNL A   1      37.841  31.067  29.153  1.00  0.00    -0.034 C 
ATOM     72  C   UNL A   1      37.308  34.079  33.133  1.00  0.00    -0.036 A 
ATOM     73  N   UNL A   1      38.937  32.549  33.220  1.00  0.00    -0.354 N 
ATOM     74  C   UNL A   1      39.479  29.714  29.996  1.00  0.00     0.074 A 
ATOM     75  C   UNL A   1      38.542  29.968  28.923  1.00  0.00    -0.034 C 
ATOM     76  H   UNL A   1      37.159  31.544  28.543  1.00  0.00     0.065 H 
ATOM     77  C   UNL A   1      37.914  34.203  34.324  1.00  0.00    -0.036 A 
ATOM     78  H   UNL A   1      36.516  34.653  32.800  1.00  0.00     0.065 H 
ATOM     79  C   UNL A   1      38.955  33.185  34.437  1.00  0.00     0.049 A 
ATOM     80  H   UNL A   1      39.571  31.838  32.972  1.00  0.00     0.167 HD
ATOM     81  C   UNL A   1      40.409  28.729  29.985  1.00  0.00     0.037 A 
ATOM     82  H   UNL A   1      38.433  29.370  28.089  1.00  0.00     0.065 H 
ATOM     83  H   UNL A   1      37.681  34.904  35.045  1.00  0.00     0.065 H 
ATOM     84  C   UNL A   1      39.708  32.955  35.530  1.00  0.00     0.037 A 
ATOM     85  C   UNL A   1      41.354  28.504  31.044  1.00  0.00     0.049 A 
ATOM     86  C   UNL A   1      40.739  31.862  35.496  1.00  0.00     0.074 A 
ATOM     87  C   UNL A   1      42.389  27.587  31.097  1.00  0.00    -0.036 A 
ATOM     88  N   UNL A   1      41.376  29.204  32.243  1.00  0.00    -0.354 N 
ATOM     89  N   UNL A   1      41.008  31.011  34.535  1.00  0.00    -0.248 NA
ATOM     90  C   UNL A   1      41.575  31.696  36.694  1.00  0.00    -0.034 C 
ATOM     91  C   UNL A   1      43.002  27.694  32.350  1.00  0.00    -0.036 A 
ATOM     92  H   UNL A   1      42.661  26.937  30.344  1.00  0.00     0.065 H 
ATOM     93  C   UNL A   1      42.387  28.719  33.055  1.00  0.00     0.049 A 
ATOM     94  H   UNL A   1      40.762  29.936  32.481  1.00  0.00     0.167 HD
ATOM     95  C   UNL A   1      42.060  30.231  34.997  1.00  0.00     0.074 A 
ATOM     96  C   UNL A   1      42.381  30.709  36.326  1.00  0.00    -0.034 C 
ATOM     97  H   UNL A   1      41.544  32.214  37.587  1.00  0.00     0.065 H 
ATOM     98  H   UNL A   1      43.780  27.109  32.692  1.00  0.00     0.065 H 
ATOM     99  C   UNL A   1      42.703  29.214  34.372  1.00  0.00     0.037 A 
ATOM    100  H   UNL A   1      43.142  30.331  36.912  1.00  0.00     0.065 H 
BRANCH  81 101
ATOM    101  C   UNL A   1      40.429  27.813  28.794  1.00  0.00     0.064 A 
ATOM    102  C   UNL A   1      41.191  28.100  27.651  1.00  0.00     0.173 A 
ATOM    103  C   UNL A   1      39.670  26.632  28.796  1.00  0.00     0.173 A 
ATOM    104  F   UNL A   1      41.926  29.221  27.593  1.00  0.00    -0.203 F 
ATOM    105  C   UNL A   1      41.155  27.264  26.538  1.00  0.00     0.198 A 
ATOM    106  C   UNL A   1      39.666  25.781  27.694  1.00  0.00     0.198 A 
ATOM    107  F   UNL A   1      38.928  26.305  29.864  1.00  0.00    -0.203 F 
ATOM    108  F   UNL A   1      41.837  27.597  25.432  1.00  0.00    -0.200 F 
ATOM    109  C   UNL A   1      40.398  26.105  26.561  1.00  0.00     0.200 A 
ATOM    110  F   UNL A   1      38.944  24.652  27.723  1.00  0.00    -0.200 F 
ATOM    111  F   UNL A   1      40.362  25.304  25.486  1.00  0.00    -0.200 F 
ENDBRANCH  81 101
BRANCH  84 112
ATOM    112  C   UNL A   1      39.508  33.795  36.739  1.00  0.00     0.064 A 
ATOM    113  C   UNL A   1      38.684  33.364  37.787  1.00  0.00     0.173 A 
ATOM    114  C   UNL A   1      40.173  35.021  36.891  1.00  0.00     0.173 A 
ATOM    115  F   UNL A   1      38.014  32.207  37.679  1.00  0.00    -0.203 F 
ATOM    116  C   UNL A   1      38.528  34.130  38.940  1.00  0.00     0.198 A 
ATOM    117  C   UNL A   1      40.036  35.774  38.056  1.00  0.00     0.198 A 
ATOM    118  F   UNL A   1      40.980  35.472  35.919  1.00  0.00    -0.203 F 
ATOM    119  F   UNL A   1      37.714  33.708  39.917  1.00  0.00    -0.200 F 
ATOM    120  C   UNL A   1      39.211  35.330  39.077  1.00  0.00     0.200 A 
ATOM    121  F   UNL A   1      40.712  36.923  38.190  1.00  0.00    -0.200 F 
ATOM    122  F   UNL A   1      39.074  36.057  40.194  1.00  0.00    -0.200 F 
ENDBRANCH  84 112
BRANCH  99 123
ATOM    123  C   UNL A   1      43.849  28.566  35.092  1.00  0.00     0.064 A 
ATOM    124  C   UNL A   1      43.668  27.435  35.899  1.00  0.00     0.173 A 
ATOM    125  C   UNL A   1      45.158  29.033  34.895  1.00  0.00     0.173 A 
ATOM    126  F   UNL A   1      42.435  26.959  36.130  1.00  0.00    -0.203 F 
ATOM    127  C   UNL A   1      44.757  26.798  36.488  1.00  0.00     0.198 A 
ATOM    128  C   UNL A   1      46.246  28.378  35.462  1.00  0.00     0.198 A 
ATOM    129  F   UNL A   1      45.383  30.109  34.125  1.00  0.00    -0.203 F 
ATOM    130  F   UNL A   1      44.561  25.732  37.277  1.00  0.00    -0.200 F 
ATOM    131  C   UNL A   1      46.045  27.261  36.259  1.00  0.00     0.200 A 
ATOM    132  F   UNL A   1      47.490  28.818  35.227  1.00  0.00    -0.200 F 
ATOM    133  F   UNL A   1      47.093  26.632  36.808  1.00  0.00    -0.200 F 
ENDBRANCH  99 123
ENDBRANCH  64  67
ENDBRANCH  54  57
ENDBRANCH  50  53
ENDBRANCH  47  50
ENDBRANCH  44  47
ENDBRANCH   1  44
TORSDOF 17
ENDMDL
MODEL 6
REMARK VINA RESULT:     -12.3      6.432     10.761
REMARK SMILES C[C@@H](C(=O)NCCCCCCNC(=O)c1ccc(-c2c3nc(c(-c4c(F)c(F)c(F)c(F)c4F)c4ccc([nH]4)c(-c4c(F)c(F)c(F)c(F)c4F)c4nc(c(-c5c(F)c(F)c(F)c(F)c5F)c5ccc2[nH]5)C=C4)C=C3)cc1)c1ccccc1-c1ccn(C(F)F)c(=O)c1
REMARK SMILES IDX 8 1 7 4 6 7 5 10 3 11 4 12 2 14 1 16 78 20 79 21 83 22 80 23
REMARK SMILES IDX 82 25 81 26 84 30 85 31 93 32 86 33 91 35 87 37 92 39 88 40
REMARK SMILES IDX 89 41 90 42 9 44 10 47 11 50 12 53 13 54 14 56 15 57 16 58
REMARK SMILES IDX 77 59 17 60 76 62 18 64 19 67 20 68 70 69 21 70 75 71 69 72
REMARK SMILES IDX 71 73 22 74 74 75 68 77 67 79 23 81 55 84 35 85 54 86 36 87
REMARK SMILES IDX 39 88 53 89 72 90 37 91 38 93 52 95 73 96 40 99 24 101
REMARK SMILES IDX 25 102 33 103 26 104 27 105 31 106 34 107 28 108 29 109
REMARK SMILES IDX 32 110 30 111 56 112 57 113 65 114 58 115 59 116 63 117
REMARK SMILES IDX 66 118 60 119 61 120 64 121 62 122 41 123 42 124 50 125
REMARK SMILES IDX 43 126 44 127 48 128 51 129 45 130 46 131 49 132 47 133
REMARK H PARENT 8 2 8 3 7 5 7 6 6 8 6 9 5 13 2 15 1 17 1 18 1 19 79 24 80 27
REMARK H PARENT 82 28 81 29 85 34 93 36 86 38 88 43 9 45 9 46 10 48 10 49
REMARK H PARENT 11 51 11 52 12 55 16 61 77 63 17 65 76 66 75 76 69 78 71 80
REMARK H PARENT 74 82 68 83 36 92 39 94 72 97 37 98 73 100
REMARK Flexibility Score: inf
ROOT
ATOM      1  C   UNL A   1      36.283  21.891  24.425  1.00  0.00    -0.052 C 
ATOM      2  H   UNL A   1      36.545  21.877  23.388  1.00  0.00     0.027 H 
ATOM      3  H   UNL A   1      35.228  21.958  24.591  1.00  0.00     0.027 H 
ENDROOT
BRANCH   1   4
ATOM      4  C   UNL A   1      36.904  23.145  25.059  1.00  0.00    -0.036 C 
ATOM      5  H   UNL A   1      37.807  22.862  25.559  1.00  0.00     0.028 H 
ATOM      6  H   UNL A   1      37.083  23.844  24.269  1.00  0.00     0.028 H 
BRANCH   4   7
ATOM      7  C   UNL A   1      35.983  23.831  26.072  1.00  0.00     0.017 C 
ATOM      8  H   UNL A   1      36.568  24.409  26.757  1.00  0.00     0.049 H 
ATOM      9  H   UNL A   1      35.301  24.480  25.562  1.00  0.00     0.049 H 
BRANCH   7  10
ATOM     10  N   UNL A   1      35.247  22.816  26.797  1.00  0.00    -0.356 N 
ATOM     11  C   UNL A   1      33.911  22.770  27.076  1.00  0.00     0.227 C 
ATOM     12  O   UNL A   1      33.567  22.115  28.061  1.00  0.00    -0.274 OA
ATOM     13  H   UNL A   1      35.780  22.061  27.133  1.00  0.00     0.163 HD
BRANCH  11  14
ATOM     14  C   UNL A   1      32.918  23.465  26.135  1.00  0.00     0.061 C 
ATOM     15  H   UNL A   1      33.322  24.376  25.747  1.00  0.00     0.045 H 
BRANCH  14  16
ATOM     16  C   UNL A   1      31.665  23.845  26.938  1.00  0.00    -0.049 C 
ATOM     17  H   UNL A   1      30.956  24.318  26.290  1.00  0.00     0.024 H 
ATOM     18  H   UNL A   1      31.934  24.519  27.724  1.00  0.00     0.024 H 
ATOM     19  H   UNL A   1      31.229  22.963  27.359  1.00  0.00     0.024 H 
ENDBRANCH  14  16
BRANCH  14  20
ATOM     20  C   UNL A   1      32.654  22.600  24.891  1.00  0.00    -0.028 A 
ATOM     21  C   UNL A   1      32.500  21.203  25.015  1.00  0.00    -0.058 A 
ATOM     22  C   UNL A   1      32.597  23.162  23.587  1.00  0.00    -0.014 A 
ATOM     23  C   UNL A   1      32.308  20.386  23.900  1.00  0.00    -0.062 A 
ATOM     24  H   UNL A   1      32.531  20.775  25.952  1.00  0.00     0.063 H 
ATOM     25  C   UNL A   1      32.427  22.318  22.473  1.00  0.00    -0.054 A 
ATOM     26  C   UNL A   1      32.281  20.941  22.629  1.00  0.00    -0.062 A 
ATOM     27  H   UNL A   1      32.185  19.369  24.021  1.00  0.00     0.062 H 
ATOM     28  H   UNL A   1      32.409  22.726  21.525  1.00  0.00     0.063 H 
ATOM     29  H   UNL A   1      32.154  20.337  21.802  1.00  0.00     0.062 H 
BRANCH  22  30
ATOM     30  C   UNL A   1      32.689  24.616  23.312  1.00  0.00    -0.011 A 
ATOM     31  C   UNL A   1      33.876  25.410  23.566  1.00  0.00    -0.038 A 
ATOM     32  C   UNL A   1      31.618  25.217  22.766  1.00  0.00     0.012 A 
ATOM     33  C   UNL A   1      33.862  26.737  23.393  1.00  0.00     0.013 A 
ATOM     34  H   UNL A   1      34.742  24.946  23.884  1.00  0.00     0.064 H 
ATOM     35  C   UNL A   1      31.614  26.681  22.488  1.00  0.00     0.255 A 
ATOM     36  H   UNL A   1      30.784  24.655  22.534  1.00  0.00     0.069 H 
ATOM     37  N   UNL A   1      32.741  27.375  22.897  1.00  0.00    -0.258 N 
ATOM     38  H   UNL A   1      34.699  27.290  23.633  1.00  0.00     0.082 H 
ATOM     39  O   UNL A   1      30.628  27.173  21.951  1.00  0.00    -0.269 OA
BRANCH  37  40
ATOM     40  C   UNL A   1      32.729  28.804  22.723  1.00  0.00     0.321 C 
ATOM     41  F   UNL A   1      32.114  29.420  23.760  1.00  0.00    -0.185 F 
ATOM     42  F   UNL A   1      33.990  29.296  22.629  1.00  0.00    -0.185 F 
ATOM     43  H   UNL A   1      32.195  28.999  21.816  1.00  0.00     0.131 H 
ENDBRANCH  37  40
ENDBRANCH  22  30
ENDBRANCH  14  20
ENDBRANCH  11  14
ENDBRANCH   7  10
ENDBRANCH   4   7
ENDBRANCH   1   4
BRANCH   1  44
ATOM     44  C   UNL A   1      36.737  20.568  25.051  1.00  0.00    -0.052 C 
ATOM     45  H   UNL A   1      36.063  19.799  24.731  1.00  0.00     0.027 H 
ATOM     46  H   UNL A   1      36.731  20.712  26.110  1.00  0.00     0.027 H 
BRANCH  44  47
ATOM     47  C   UNL A   1      38.156  20.144  24.675  1.00  0.00    -0.036 C 
ATOM     48  H   UNL A   1      38.458  20.704  23.815  1.00  0.00     0.028 H 
ATOM     49  H   UNL A   1      38.127  19.091  24.490  1.00  0.00     0.028 H 
BRANCH  47  50
ATOM     50  C   UNL A   1      39.182  20.369  25.779  1.00  0.00     0.018 C 
ATOM     51  H   UNL A   1      38.666  20.520  26.704  1.00  0.00     0.049 H 
ATOM     52  H   UNL A   1      39.766  21.227  25.518  1.00  0.00     0.049 H 
BRANCH  50  53
ATOM     53  N   UNL A   1      40.085  19.238  25.923  1.00  0.00    -0.352 N 
ATOM     54  C   UNL A   1      41.444  19.248  26.136  1.00  0.00     0.251 C 
ATOM     55  H   UNL A   1      39.669  18.348  25.858  1.00  0.00     0.163 HD
ATOM     56  O   UNL A   1      42.104  18.227  26.046  1.00  0.00    -0.269 OA
BRANCH  54  57
ATOM     57  C   UNL A   1      42.098  20.533  26.458  1.00  0.00     0.039 A 
ATOM     58  C   UNL A   1      42.532  21.358  25.419  1.00  0.00    -0.049 A 
ATOM     59  C   UNL A   1      42.240  20.929  27.790  1.00  0.00    -0.049 A 
ATOM     60  C   UNL A   1      43.055  22.618  25.715  1.00  0.00    -0.053 A 
ATOM     61  H   UNL A   1      42.465  21.039  24.439  1.00  0.00     0.063 H 
ATOM     62  C   UNL A   1      42.692  22.210  28.078  1.00  0.00    -0.053 A 
ATOM     63  H   UNL A   1      42.010  20.275  28.554  1.00  0.00     0.063 H 
ATOM     64  C   UNL A   1      43.108  23.065  27.044  1.00  0.00    -0.014 A 
ATOM     65  H   UNL A   1      43.405  23.222  24.954  1.00  0.00     0.063 H 
ATOM     66  H   UNL A   1      42.726  22.536  29.057  1.00  0.00     0.063 H 
BRANCH  64  67
ATOM     67  C   UNL A   1      43.605  24.417  27.399  1.00  0.00     0.031 A 
ATOM     68  C   UNL A   1      42.639  25.449  27.905  1.00  0.00     0.074 A 
ATOM     69  C   UNL A   1      44.887  24.748  27.154  1.00  0.00     0.049 A 
ATOM     70  N   UNL A   1      42.821  26.728  28.107  1.00  0.00    -0.248 NA
ATOM     71  C   UNL A   1      41.273  24.983  28.181  1.00  0.00    -0.034 C 
ATOM     72  C   UNL A   1      45.906  23.845  26.621  1.00  0.00    -0.036 A 
ATOM     73  N   UNL A   1      45.540  25.948  27.290  1.00  0.00    -0.354 N 
ATOM     74  C   UNL A   1      41.587  27.224  28.502  1.00  0.00     0.074 A 
ATOM     75  C   UNL A   1      40.654  26.119  28.464  1.00  0.00    -0.034 C 
ATOM     76  H   UNL A   1      40.894  24.023  28.160  1.00  0.00     0.065 H 
ATOM     77  C   UNL A   1      47.055  24.522  26.471  1.00  0.00    -0.036 A 
ATOM     78  H   UNL A   1      45.764  22.847  26.398  1.00  0.00     0.065 H 
ATOM     79  C   UNL A   1      46.842  25.914  26.853  1.00  0.00     0.049 A 
ATOM     80  H   UNL A   1      45.116  26.753  27.665  1.00  0.00     0.167 HD
ATOM     81  C   UNL A   1      41.267  28.485  28.879  1.00  0.00     0.037 A 
ATOM     82  H   UNL A   1      39.640  26.205  28.635  1.00  0.00     0.065 H 
ATOM     83  H   UNL A   1      47.947  24.122  26.138  1.00  0.00     0.065 H 
ATOM     84  C   UNL A   1      47.751  26.903  26.748  1.00  0.00     0.037 A 
ATOM     85  C   UNL A   1      42.209  29.570  28.940  1.00  0.00     0.049 A 
ATOM     86  C   UNL A   1      47.380  28.295  27.176  1.00  0.00     0.074 A 
ATOM     87  C   UNL A   1      42.006  30.864  29.384  1.00  0.00    -0.036 A 
ATOM     88  N   UNL A   1      43.535  29.486  28.537  1.00  0.00    -0.354 N 
ATOM     89  N   UNL A   1      46.229  28.742  27.618  1.00  0.00    -0.248 NA
ATOM     90  C   UNL A   1      48.430  29.320  27.099  1.00  0.00    -0.034 C 
ATOM     91  C   UNL A   1      43.195  31.578  29.200  1.00  0.00    -0.036 A 
ATOM     92  H   UNL A   1      41.132  31.238  29.782  1.00  0.00     0.065 H 
ATOM     93  C   UNL A   1      44.155  30.714  28.696  1.00  0.00     0.049 A 
ATOM     94  H   UNL A   1      43.970  28.674  28.190  1.00  0.00     0.167 HD
ATOM     95  C   UNL A   1      46.422  30.088  27.898  1.00  0.00     0.074 A 
ATOM     96  C   UNL A   1      47.803  30.387  27.576  1.00  0.00    -0.034 C 
ATOM     97  H   UNL A   1      49.402  29.232  26.762  1.00  0.00     0.065 H 
ATOM     98  H   UNL A   1      43.334  32.580  29.404  1.00  0.00     0.065 H 
ATOM     99  C   UNL A   1      45.535  30.992  28.382  1.00  0.00     0.037 A 
ATOM    100  H   UNL A   1      48.242  31.311  27.704  1.00  0.00     0.065 H 
BRANCH  81 101
ATOM    101  C   UNL A   1      39.832  28.755  29.234  1.00  0.00     0.064 A 
ATOM    102  C   UNL A   1      39.342  28.566  30.535  1.00  0.00     0.173 A 
ATOM    103  C   UNL A   1      38.933  29.207  28.256  1.00  0.00     0.173 A 
ATOM    104  F   UNL A   1      40.157  28.127  31.507  1.00  0.00    -0.203 F 
ATOM    105  C   UNL A   1      37.998  28.773  30.833  1.00  0.00     0.198 A 
ATOM    106  C   UNL A   1      37.597  29.447  28.566  1.00  0.00     0.198 A 
ATOM    107  F   UNL A   1      39.347  29.411  26.997  1.00  0.00    -0.203 F 
ATOM    108  F   UNL A   1      37.540  28.517  32.067  1.00  0.00    -0.200 F 
ATOM    109  C   UNL A   1      37.128  29.216  29.850  1.00  0.00     0.200 A 
ATOM    110  F   UNL A   1      36.759  29.890  27.618  1.00  0.00    -0.200 F 
ATOM    111  F   UNL A   1      35.833  29.410  30.138  1.00  0.00    -0.200 F 
ENDBRANCH  81 101
BRANCH  84 112
ATOM    112  C   UNL A   1      49.104  26.591  26.219  1.00  0.00     0.064 A 
ATOM    113  C   UNL A   1      49.443  26.880  24.890  1.00  0.00     0.173 A 
ATOM    114  C   UNL A   1      50.099  26.041  27.042  1.00  0.00     0.173 A 
ATOM    115  F   UNL A   1      48.521  27.388  24.060  1.00  0.00    -0.203 F 
ATOM    116  C   UNL A   1      50.723  26.626  24.404  1.00  0.00     0.198 A 
ATOM    117  C   UNL A   1      51.386  25.812  26.561  1.00  0.00     0.198 A 
ATOM    118  F   UNL A   1      49.825  25.755  28.325  1.00  0.00    -0.203 F 
ATOM    119  F   UNL A   1      51.015  26.887  23.122  1.00  0.00    -0.200 F 
ATOM    120  C   UNL A   1      51.696  26.101  25.242  1.00  0.00     0.200 A 
ATOM    121  F   UNL A   1      52.326  25.322  27.380  1.00  0.00    -0.200 F 
ATOM    122  F   UNL A   1      52.933  25.875  24.778  1.00  0.00    -0.200 F 
ENDBRANCH  84 112
BRANCH  99 123
ATOM    123  C   UNL A   1      46.028  32.385  28.638  1.00  0.00     0.064 A 
ATOM    124  C   UNL A   1      46.621  32.746  29.855  1.00  0.00     0.173 A 
ATOM    125  C   UNL A   1      45.988  33.346  27.614  1.00  0.00     0.173 A 
ATOM    126  F   UNL A   1      46.671  31.868  30.869  1.00  0.00    -0.203 F 
ATOM    127  C   UNL A   1      47.151  34.020  30.041  1.00  0.00     0.198 A 
ATOM    128  C   UNL A   1      46.542  34.609  27.794  1.00  0.00     0.198 A 
ATOM    129  F   UNL A   1      45.436  33.046  26.428  1.00  0.00    -0.203 F 
ATOM    130  F   UNL A   1      47.691  34.353  31.221  1.00  0.00    -0.200 F 
ATOM    131  C   UNL A   1      47.123  34.946  29.007  1.00  0.00     0.200 A 
ATOM    132  F   UNL A   1      46.527  35.495  26.789  1.00  0.00    -0.200 F 
ATOM    133  F   UNL A   1      47.654  36.164  29.181  1.00  0.00    -0.200 F 
ENDBRANCH  99 123
ENDBRANCH  64  67
ENDBRANCH  54  57
ENDBRANCH  50  53
ENDBRANCH  47  50
ENDBRANCH  44  47
ENDBRANCH   1  44
TORSDOF 17
ENDMDL
MODEL 7
REMARK VINA RESULT:     -12.3      1.688      7.546
REMARK SMILES C[C@@H](C(=O)NCCCCCCNC(=O)c1ccc(-c2c3nc(c(-c4c(F)c(F)c(F)c(F)c4F)c4ccc([nH]4)c(-c4c(F)c(F)c(F)c(F)c4F)c4nc(c(-c5c(F)c(F)c(F)c(F)c5F)c5ccc2[nH]5)C=C4)C=C3)cc1)c1ccccc1-c1ccn(C(F)F)c(=O)c1
REMARK SMILES IDX 8 1 7 4 6 7 5 10 3 11 4 12 2 14 1 16 78 20 79 21 83 22 80 23
REMARK SMILES IDX 82 25 81 26 84 30 85 31 93 32 86 33 91 35 87 37 92 39 88 40
REMARK SMILES IDX 89 41 90 42 9 44 10 47 11 50 12 53 13 54 14 56 15 57 16 58
REMARK SMILES IDX 77 59 17 60 76 62 18 64 19 67 20 68 70 69 21 70 75 71 69 72
REMARK SMILES IDX 71 73 22 74 74 75 68 77 67 79 23 81 55 84 35 85 54 86 36 87
REMARK SMILES IDX 39 88 53 89 72 90 37 91 38 93 52 95 73 96 40 99 24 101
REMARK SMILES IDX 25 102 33 103 26 104 27 105 31 106 34 107 28 108 29 109
REMARK SMILES IDX 32 110 30 111 56 112 57 113 65 114 58 115 59 116 63 117
REMARK SMILES IDX 66 118 60 119 61 120 64 121 62 122 41 123 42 124 50 125
REMARK SMILES IDX 43 126 44 127 48 128 51 129 45 130 46 131 49 132 47 133
REMARK H PARENT 8 2 8 3 7 5 7 6 6 8 6 9 5 13 2 15 1 17 1 18 1 19 79 24 80 27
REMARK H PARENT 82 28 81 29 85 34 93 36 86 38 88 43 9 45 9 46 10 48 10 49
REMARK H PARENT 11 51 11 52 12 55 16 61 77 63 17 65 76 66 75 76 69 78 71 80
REMARK H PARENT 74 82 68 83 36 92 39 94 72 97 37 98 73 100
REMARK Flexibility Score: inf
ROOT
ATOM      1  C   UNL A   1      33.210  29.840  27.078  1.00  0.00    -0.052 C 
ATOM      2  H   UNL A   1      34.070  30.007  26.464  1.00  0.00     0.027 H 
ATOM      3  H   UNL A   1      33.313  30.242  28.064  1.00  0.00     0.027 H 
ENDROOT
BRANCH   1   4
ATOM      4  C   UNL A   1      33.026  28.324  27.243  1.00  0.00    -0.036 C 
ATOM      5  H   UNL A   1      33.409  27.838  26.369  1.00  0.00     0.028 H 
ATOM      6  H   UNL A   1      33.553  28.034  28.128  1.00  0.00     0.028 H 
BRANCH   4   7
ATOM      7  C   UNL A   1      31.564  27.907  27.428  1.00  0.00     0.017 C 
ATOM      8  H   UNL A   1      31.256  28.112  28.432  1.00  0.00     0.049 H 
ATOM      9  H   UNL A   1      30.941  28.455  26.752  1.00  0.00     0.049 H 
BRANCH   7  10
ATOM     10  N   UNL A   1      31.446  26.488  27.163  1.00  0.00    -0.356 N 
ATOM     11  C   UNL A   1      30.659  25.857  26.243  1.00  0.00     0.227 C 
ATOM     12  O   UNL A   1      30.348  24.688  26.480  1.00  0.00    -0.274 OA
ATOM     13  H   UNL A   1      32.006  25.901  27.720  1.00  0.00     0.163 HD
BRANCH  11  14
ATOM     14  C   UNL A   1      30.260  26.592  24.957  1.00  0.00     0.061 C 
ATOM     15  H   UNL A   1      29.985  27.606  25.159  1.00  0.00     0.045 H 
BRANCH  14  16
ATOM     16  C   UNL A   1      29.019  25.908  24.364  1.00  0.00    -0.049 C 
ATOM     17  H   UNL A   1      28.171  26.107  24.986  1.00  0.00     0.024 H 
ATOM     18  H   UNL A   1      29.184  24.852  24.311  1.00  0.00     0.024 H 
ATOM     19  H   UNL A   1      28.837  26.291  23.381  1.00  0.00     0.024 H 
ENDBRANCH  14  16
BRANCH  14  20
ATOM     20  C   UNL A   1      31.460  26.702  24.002  1.00  0.00    -0.028 A 
ATOM     21  C   UNL A   1      32.429  25.678  23.955  1.00  0.00    -0.058 A 
ATOM     22  C   UNL A   1      31.656  27.840  23.174  1.00  0.00    -0.014 A 
ATOM     23  C   UNL A   1      33.554  25.770  23.135  1.00  0.00    -0.062 A 
ATOM     24  H   UNL A   1      32.303  24.839  24.543  1.00  0.00     0.063 H 
ATOM     25  C   UNL A   1      32.810  27.926  22.371  1.00  0.00    -0.054 A 
ATOM     26  C   UNL A   1      33.750  26.897  22.350  1.00  0.00    -0.062 A 
ATOM     27  H   UNL A   1      34.239  25.000  23.111  1.00  0.00     0.062 H 
ATOM     28  H   UNL A   1      32.962  28.763  21.788  1.00  0.00     0.063 H 
ATOM     29  H   UNL A   1      34.589  26.974  21.754  1.00  0.00     0.062 H 
BRANCH  22  30
ATOM     30  C   UNL A   1      30.696  28.966  23.080  1.00  0.00    -0.011 A 
ATOM     31  C   UNL A   1      30.608  30.033  24.059  1.00  0.00    -0.038 A 
ATOM     32  C   UNL A   1      29.888  29.009  22.006  1.00  0.00     0.012 A 
ATOM     33  C   UNL A   1      29.651  30.964  23.971  1.00  0.00     0.013 A 
ATOM     34  H   UNL A   1      31.292  30.074  24.831  1.00  0.00     0.064 H 
ATOM     35  C   UNL A   1      28.871  30.087  21.850  1.00  0.00     0.255 A 
ATOM     36  H   UNL A   1      29.974  28.284  21.278  1.00  0.00     0.069 H 
ATOM     37  N   UNL A   1      28.769  30.977  22.908  1.00  0.00    -0.258 N 
ATOM     38  H   UNL A   1      29.571  31.682  24.708  1.00  0.00     0.082 H 
ATOM     39  O   UNL A   1      28.187  30.104  20.833  1.00  0.00    -0.269 OA
BRANCH  37  40
ATOM     40  C   UNL A   1      27.736  31.976  22.826  1.00  0.00     0.321 C 
ATOM     41  F   UNL A   1      26.853  31.853  23.845  1.00  0.00    -0.185 F 
ATOM     42  F   UNL A   1      28.260  33.226  22.870  1.00  0.00    -0.185 F 
ATOM     43  H   UNL A   1      27.236  31.825  21.891  1.00  0.00     0.131 H 
ENDBRANCH  37  40
ENDBRANCH  22  30
ENDBRANCH  14  20
ENDBRANCH  11  14
ENDBRANCH   7  10
ENDBRANCH   4   7
ENDBRANCH   1   4
BRANCH   1  44
ATOM     44  C   UNL A   1      32.019  30.562  26.438  1.00  0.00    -0.052 C 
ATOM     45  H   UNL A   1      31.157  29.934  26.535  1.00  0.00     0.027 H 
ATOM     46  H   UNL A   1      32.286  30.749  25.420  1.00  0.00     0.027 H 
BRANCH  44  47
ATOM     47  C   UNL A   1      31.693  31.919  27.061  1.00  0.00    -0.036 C 
ATOM     48  H   UNL A   1      31.167  31.751  27.977  1.00  0.00     0.028 H 
ATOM     49  H   UNL A   1      31.110  32.457  26.344  1.00  0.00     0.028 H 
BRANCH  47  50
ATOM     50  C   UNL A   1      32.919  32.773  27.361  1.00  0.00     0.018 C 
ATOM     51  H   UNL A   1      33.565  32.762  26.507  1.00  0.00     0.049 H 
ATOM     52  H   UNL A   1      33.408  32.360  28.219  1.00  0.00     0.049 H 
BRANCH  50  53
ATOM     53  N   UNL A   1      32.563  34.150  27.664  1.00  0.00    -0.352 N 
ATOM     54  C   UNL A   1      33.062  34.966  28.653  1.00  0.00     0.251 C 
ATOM     55  H   UNL A   1      31.875  34.550  27.086  1.00  0.00     0.163 HD
ATOM     56  O   UNL A   1      32.536  36.034  28.913  1.00  0.00    -0.269 OA
BRANCH  54  57
ATOM     57  C   UNL A   1      34.243  34.510  29.414  1.00  0.00     0.039 A 
ATOM     58  C   UNL A   1      34.061  33.895  30.654  1.00  0.00    -0.049 A 
ATOM     59  C   UNL A   1      35.523  34.662  28.874  1.00  0.00    -0.049 A 
ATOM     60  C   UNL A   1      35.165  33.369  31.329  1.00  0.00    -0.053 A 
ATOM     61  H   UNL A   1      33.118  33.828  31.068  1.00  0.00     0.063 H 
ATOM     62  C   UNL A   1      36.608  34.075  29.511  1.00  0.00    -0.053 A 
ATOM     63  H   UNL A   1      35.660  35.204  28.007  1.00  0.00     0.063 H 
ATOM     64  C   UNL A   1      36.440  33.428  30.746  1.00  0.00    -0.014 A 
ATOM     65  H   UNL A   1      35.042  32.939  32.259  1.00  0.00     0.063 H 
ATOM     66  H   UNL A   1      37.544  34.117  29.077  1.00  0.00     0.063 H 
BRANCH  64  67
ATOM     67  C   UNL A   1      37.631  32.834  31.403  1.00  0.00     0.031 A 
ATOM     68  C   UNL A   1      38.321  31.665  30.762  1.00  0.00     0.074 A 
ATOM     69  C   UNL A   1      38.012  33.264  32.620  1.00  0.00     0.049 A 
ATOM     70  N   UNL A   1      39.260  30.890  31.241  1.00  0.00    -0.248 NA
ATOM     71  C   UNL A   1      37.862  31.295  29.416  1.00  0.00    -0.034 C 
ATOM     72  C   UNL A   1      37.391  34.361  33.362  1.00  0.00    -0.036 A 
ATOM     73  N   UNL A   1      38.994  32.805  33.462  1.00  0.00    -0.354 N 
ATOM     74  C   UNL A   1      39.480  29.924  30.269  1.00  0.00     0.074 A 
ATOM     75  C   UNL A   1      38.544  30.182  29.196  1.00  0.00    -0.034 C 
ATOM     76  H   UNL A   1      37.186  31.776  28.802  1.00  0.00     0.065 H 
ATOM     77  C   UNL A   1      38.002  34.487  34.550  1.00  0.00    -0.036 A 
ATOM     78  H   UNL A   1      36.608  34.944  33.026  1.00  0.00     0.065 H 
ATOM     79  C   UNL A   1      39.027  33.454  34.672  1.00  0.00     0.049 A 
ATOM     80  H   UNL A   1      39.616  32.080  33.221  1.00  0.00     0.167 HD
ATOM     81  C   UNL A   1      40.393  28.924  30.267  1.00  0.00     0.037 A 
ATOM     82  H   UNL A   1      38.423  29.576  28.369  1.00  0.00     0.065 H 
ATOM     83  H   UNL A   1      37.783  35.201  35.264  1.00  0.00     0.065 H 
ATOM     84  C   UNL A   1      39.779  33.224  35.765  1.00  0.00     0.037 A 
ATOM     85  C   UNL A   1      41.338  28.695  31.326  1.00  0.00     0.049 A 
ATOM     86  C   UNL A   1      40.792  32.113  35.741  1.00  0.00     0.074 A 
ATOM     87  C   UNL A   1      42.357  27.762  31.386  1.00  0.00    -0.036 A 
ATOM     88  N   UNL A   1      41.375  29.408  32.517  1.00  0.00    -0.354 N 
ATOM     89  N   UNL A   1      41.044  31.247  34.789  1.00  0.00    -0.248 NA
ATOM     90  C   UNL A   1      41.629  31.948  36.938  1.00  0.00    -0.034 C 
ATOM     91  C   UNL A   1      42.976  27.873  32.636  1.00  0.00    -0.036 A 
ATOM     92  H   UNL A   1      42.616  27.099  30.640  1.00  0.00     0.065 H 
ATOM     93  C   UNL A   1      42.381  28.916  33.331  1.00  0.00     0.049 A 
ATOM     94  H   UNL A   1      40.774  30.153  32.748  1.00  0.00     0.167 HD
ATOM     95  C   UNL A   1      42.084  30.455  35.257  1.00  0.00     0.074 A 
ATOM     96  C   UNL A   1      42.418  30.943  36.580  1.00  0.00    -0.034 C 
ATOM     97  H   UNL A   1      41.609  32.475  37.825  1.00  0.00     0.065 H 
ATOM     98  H   UNL A   1      43.745  27.279  32.983  1.00  0.00     0.065 H 
ATOM     99  C   UNL A   1      42.708  29.420  34.642  1.00  0.00     0.037 A 
ATOM    100  H   UNL A   1      43.173  30.559  37.167  1.00  0.00     0.065 H 
BRANCH  81 101
ATOM    101  C   UNL A   1      40.394  27.995  29.086  1.00  0.00     0.064 A 
ATOM    102  C   UNL A   1      41.146  28.263  27.932  1.00  0.00     0.173 A 
ATOM    103  C   UNL A   1      39.628  26.819  29.109  1.00  0.00     0.173 A 
ATOM    104  F   UNL A   1      41.889  29.378  27.853  1.00  0.00    -0.203 F 
ATOM    105  C   UNL A   1      41.094  27.415  26.829  1.00  0.00     0.198 A 
ATOM    106  C   UNL A   1      39.606  25.955  28.017  1.00  0.00     0.198 A 
ATOM    107  F   UNL A   1      38.895  26.509  30.189  1.00  0.00    -0.203 F 
ATOM    108  F   UNL A   1      41.766  27.730  25.712  1.00  0.00    -0.200 F 
ATOM    109  C   UNL A   1      40.328  26.261  26.874  1.00  0.00     0.200 A 
ATOM    110  F   UNL A   1      38.877  24.832  28.068  1.00  0.00    -0.200 F 
ATOM    111  F   UNL A   1      40.276  25.449  25.808  1.00  0.00    -0.200 F 
ENDBRANCH  81 101
BRANCH  84 112
ATOM    112  C   UNL A   1      39.597  34.080  36.965  1.00  0.00     0.064 A 
ATOM    113  C   UNL A   1      38.822  33.646  38.049  1.00  0.00     0.173 A 
ATOM    114  C   UNL A   1      40.231  35.328  37.072  1.00  0.00     0.173 A 
ATOM    115  F   UNL A   1      38.182  32.470  37.985  1.00  0.00    -0.203 F 
ATOM    116  C   UNL A   1      38.684  34.430  39.192  1.00  0.00     0.198 A 
ATOM    117  C   UNL A   1      40.112  36.098  38.227  1.00  0.00     0.198 A 
ATOM    118  F   UNL A   1      40.991  35.783  36.065  1.00  0.00    -0.203 F 
ATOM    119  F   UNL A   1      37.916  34.004  40.205  1.00  0.00    -0.200 F 
ATOM    120  C   UNL A   1      39.336  35.650  39.284  1.00  0.00     0.200 A 
ATOM    121  F   UNL A   1      40.759  37.268  38.317  1.00  0.00    -0.200 F 
ATOM    122  F   UNL A   1      39.217  36.395  40.392  1.00  0.00    -0.200 F 
ENDBRANCH  84 112
BRANCH  99 123
ATOM    123  C   UNL A   1      43.845  28.762  35.365  1.00  0.00     0.064 A 
ATOM    124  C   UNL A   1      43.642  27.676  36.226  1.00  0.00     0.173 A 
ATOM    125  C   UNL A   1      45.167  29.169  35.120  1.00  0.00     0.173 A 
ATOM    126  F   UNL A   1      42.397  27.257  36.504  1.00  0.00    -0.203 F 
ATOM    127  C   UNL A   1      44.719  27.023  36.820  1.00  0.00     0.198 A 
ATOM    128  C   UNL A   1      46.242  28.499  35.693  1.00  0.00     0.198 A 
ATOM    129  F   UNL A   1      45.413  30.201  34.298  1.00  0.00    -0.203 F 
ATOM    130  F   UNL A   1      44.501  26.002  37.660  1.00  0.00    -0.200 F 
ATOM    131  C   UNL A   1      46.018  27.427  36.544  1.00  0.00     0.200 A 
ATOM    132  F   UNL A   1      47.495  28.881  35.413  1.00  0.00    -0.200 F 
ATOM    133  F   UNL A   1      47.054  26.783  37.099  1.00  0.00    -0.200 F 
ENDBRANCH  99 123
ENDBRANCH  64  67
ENDBRANCH  54  57
ENDBRANCH  50  53
ENDBRANCH  47  50
ENDBRANCH  44  47
ENDBRANCH   1  44
TORSDOF 17
ENDMDL
MODEL 8
REMARK VINA RESULT:     -12.2      4.153      9.047
REMARK SMILES C[C@@H](C(=O)NCCCCCCNC(=O)c1ccc(-c2c3nc(c(-c4c(F)c(F)c(F)c(F)c4F)c4ccc([nH]4)c(-c4c(F)c(F)c(F)c(F)c4F)c4nc(c(-c5c(F)c(F)c(F)c(F)c5F)c5ccc2[nH]5)C=C4)C=C3)cc1)c1ccccc1-c1ccn(C(F)F)c(=O)c1
REMARK SMILES IDX 8 1 7 4 6 7 5 10 3 11 4 12 2 14 1 16 78 20 79 21 83 22 80 23
REMARK SMILES IDX 82 25 81 26 84 30 85 31 93 32 86 33 91 35 87 37 92 39 88 40
REMARK SMILES IDX 89 41 90 42 9 44 10 47 11 50 12 53 13 54 14 56 15 57 16 58
REMARK SMILES IDX 77 59 17 60 76 62 18 64 19 67 20 68 70 69 21 70 75 71 69 72
REMARK SMILES IDX 71 73 22 74 74 75 68 77 67 79 23 81 55 84 35 85 54 86 36 87
REMARK SMILES IDX 39 88 53 89 72 90 37 91 38 93 52 95 73 96 40 99 24 101
REMARK SMILES IDX 25 102 33 103 26 104 27 105 31 106 34 107 28 108 29 109
REMARK SMILES IDX 32 110 30 111 56 112 57 113 65 114 58 115 59 116 63 117
REMARK SMILES IDX 66 118 60 119 61 120 64 121 62 122 41 123 42 124 50 125
REMARK SMILES IDX 43 126 44 127 48 128 51 129 45 130 46 131 49 132 47 133
REMARK H PARENT 8 2 8 3 7 5 7 6 6 8 6 9 5 13 2 15 1 17 1 18 1 19 79 24 80 27
REMARK H PARENT 82 28 81 29 85 34 93 36 86 38 88 43 9 45 9 46 10 48 10 49
REMARK H PARENT 11 51 11 52 12 55 16 61 77 63 17 65 76 66 75 76 69 78 71 80
REMARK H PARENT 74 82 68 83 36 92 39 94 72 97 37 98 73 100
REMARK Flexibility Score: inf
ROOT
ATOM      1  C   UNL A   1      34.301  21.278  25.761  1.00  0.00    -0.052 C 
ATOM      2  H   UNL A   1      33.360  21.621  25.384  1.00  0.00     0.027 H 
ATOM      3  H   UNL A   1      34.401  20.213  25.733  1.00  0.00     0.027 H 
ENDROOT
BRANCH   1   4
ATOM      4  C   UNL A   1      34.405  21.686  27.238  1.00  0.00    -0.036 C 
ATOM      5  H   UNL A   1      34.416  20.799  27.836  1.00  0.00     0.028 H 
ATOM      6  H   UNL A   1      35.304  22.257  27.347  1.00  0.00     0.028 H 
BRANCH   4   7
ATOM      7  C   UNL A   1      33.246  22.572  27.705  1.00  0.00     0.017 C 
ATOM      8  H   UNL A   1      33.164  22.525  28.770  1.00  0.00     0.049 H 
ATOM      9  H   UNL A   1      33.423  23.586  27.412  1.00  0.00     0.049 H 
BRANCH   7  10
ATOM     10  N   UNL A   1      32.020  22.094  27.100  1.00  0.00    -0.356 N 
ATOM     11  C   UNL A   1      30.993  22.820  26.570  1.00  0.00     0.227 C 
ATOM     12  O   UNL A   1      29.883  22.285  26.544  1.00  0.00    -0.274 OA
ATOM     13  H   UNL A   1      31.912  21.116  27.069  1.00  0.00     0.163 HD
BRANCH  11  14
ATOM     14  C   UNL A   1      31.273  24.210  25.985  1.00  0.00     0.061 C 
ATOM     15  H   UNL A   1      31.981  24.747  26.581  1.00  0.00     0.045 H 
BRANCH  14  16
ATOM     16  C   UNL A   1      29.971  25.025  26.007  1.00  0.00    -0.049 C 
ATOM     17  H   UNL A   1      29.155  24.400  25.708  1.00  0.00     0.024 H 
ATOM     18  H   UNL A   1      30.054  25.850  25.332  1.00  0.00     0.024 H 
ATOM     19  H   UNL A   1      29.795  25.389  26.998  1.00  0.00     0.024 H 
ENDBRANCH  14  16
BRANCH  14  20
ATOM     20  C   UNL A   1      31.943  24.093  24.605  1.00  0.00    -0.028 A 
ATOM     21  C   UNL A   1      31.831  22.900  23.859  1.00  0.00    -0.058 A 
ATOM     22  C   UNL A   1      32.719  25.149  24.057  1.00  0.00    -0.014 A 
ATOM     23  C   UNL A   1      32.466  22.745  22.627  1.00  0.00    -0.062 A 
ATOM     24  H   UNL A   1      31.266  22.123  24.235  1.00  0.00     0.063 H 
ATOM     25  C   UNL A   1      33.372  24.964  22.823  1.00  0.00    -0.054 A 
ATOM     26  C   UNL A   1      33.245  23.773  22.113  1.00  0.00    -0.062 A 
ATOM     27  H   UNL A   1      32.357  21.867  22.097  1.00  0.00     0.062 H 
ATOM     28  H   UNL A   1      33.955  25.724  22.439  1.00  0.00     0.063 H 
ATOM     29  H   UNL A   1      33.727  23.654  21.209  1.00  0.00     0.062 H 
BRANCH  22  30
ATOM     30  C   UNL A   1      32.880  26.474  24.703  1.00  0.00    -0.011 A 
ATOM     31  C   UNL A   1      33.899  26.770  25.691  1.00  0.00    -0.038 A 
ATOM     32  C   UNL A   1      32.049  27.460  24.320  1.00  0.00     0.012 A 
ATOM     33  C   UNL A   1      33.926  27.955  26.311  1.00  0.00     0.013 A 
ATOM     34  H   UNL A   1      34.612  26.058  25.918  1.00  0.00     0.064 H 
ATOM     35  C   UNL A   1      32.120  28.811  24.941  1.00  0.00     0.255 A 
ATOM     36  H   UNL A   1      31.352  27.277  23.582  1.00  0.00     0.069 H 
ATOM     37  N   UNL A   1      33.032  28.953  25.975  1.00  0.00    -0.258 N 
ATOM     38  H   UNL A   1      34.625  28.125  27.052  1.00  0.00     0.082 H 
ATOM     39  O   UNL A   1      31.368  29.687  24.528  1.00  0.00    -0.269 OA
BRANCH  37  40
ATOM     40  C   UNL A   1      33.061  30.222  26.654  1.00  0.00     0.321 C 
ATOM     41  F   UNL A   1      31.947  30.403  27.402  1.00  0.00    -0.185 F 
ATOM     42  F   UNL A   1      34.138  30.314  27.473  1.00  0.00    -0.185 F 
ATOM     43  H   UNL A   1      33.116  30.975  25.896  1.00  0.00     0.131 H 
ENDBRANCH  37  40
ENDBRANCH  22  30
ENDBRANCH  14  20
ENDBRANCH  11  14
ENDBRANCH   7  10
ENDBRANCH   4   7
ENDBRANCH   1   4
BRANCH   1  44
ATOM     44  C   UNL A   1      35.408  21.840  24.863  1.00  0.00    -0.052 C 
ATOM     45  H   UNL A   1      35.133  21.664  23.843  1.00  0.00     0.027 H 
ATOM     46  H   UNL A   1      36.312  21.342  25.143  1.00  0.00     0.027 H 
BRANCH  44  47
ATOM     47  C   UNL A   1      35.664  23.337  25.036  1.00  0.00    -0.036 C 
ATOM     48  H   UNL A   1      35.285  23.635  25.991  1.00  0.00     0.028 H 
ATOM     49  H   UNL A   1      35.171  23.832  24.225  1.00  0.00     0.028 H 
BRANCH  47  50
ATOM     50  C   UNL A   1      37.135  23.727  24.961  1.00  0.00     0.018 C 
ATOM     51  H   UNL A   1      37.282  24.630  25.515  1.00  0.00     0.049 H 
ATOM     52  H   UNL A   1      37.390  23.861  23.930  1.00  0.00     0.049 H 
BRANCH  50  53
ATOM     53  N   UNL A   1      38.000  22.694  25.508  1.00  0.00    -0.352 N 
ATOM     54  C   UNL A   1      39.106  22.840  26.315  1.00  0.00     0.251 C 
ATOM     55  H   UNL A   1      37.765  21.769  25.269  1.00  0.00     0.163 HD
ATOM     56  O   UNL A   1      39.849  21.902  26.542  1.00  0.00    -0.269 OA
BRANCH  54  57
ATOM     57  C   UNL A   1      39.388  24.173  26.887  1.00  0.00     0.039 A 
ATOM     58  C   UNL A   1      38.974  24.458  28.189  1.00  0.00    -0.049 A 
ATOM     59  C   UNL A   1      40.098  25.117  26.141  1.00  0.00    -0.049 A 
ATOM     60  C   UNL A   1      39.329  25.677  28.772  1.00  0.00    -0.053 A 
ATOM     61  H   UNL A   1      38.410  23.774  28.718  1.00  0.00     0.063 H 
ATOM     62  C   UNL A   1      40.512  26.296  26.747  1.00  0.00    -0.053 A 
ATOM     63  H   UNL A   1      40.314  24.939  25.148  1.00  0.00     0.063 H 
ATOM     64  C   UNL A   1      40.128  26.589  28.065  1.00  0.00    -0.014 A 
ATOM     65  H   UNL A   1      39.002  25.907  29.723  1.00  0.00     0.063 H 
ATOM     66  H   UNL A   1      41.103  26.962  26.224  1.00  0.00     0.063 H 
BRANCH  64  67
ATOM     67  C   UNL A   1      40.574  27.870  28.666  1.00  0.00     0.031 A 
ATOM     68  C   UNL A   1      41.976  27.992  29.189  1.00  0.00     0.074 A 
ATOM     69  C   UNL A   1      39.693  28.871  28.847  1.00  0.00     0.049 A 
ATOM     70  N   UNL A   1      42.517  28.947  29.899  1.00  0.00    -0.248 NA
ATOM     71  C   UNL A   1      42.877  26.865  28.906  1.00  0.00    -0.034 C 
ATOM     72  C   UNL A   1      38.293  28.852  28.423  1.00  0.00    -0.036 A 
ATOM     73  N   UNL A   1      39.837  30.087  29.469  1.00  0.00    -0.354 N 
ATOM     74  C   UNL A   1      43.809  28.522  30.176  1.00  0.00     0.074 A 
ATOM     75  C   UNL A   1      43.954  27.203  29.598  1.00  0.00    -0.034 C 
ATOM     76  H   UNL A   1      42.714  26.030  28.323  1.00  0.00     0.065 H 
ATOM     77  C   UNL A   1      37.705  29.998  28.800  1.00  0.00    -0.036 A 
ATOM     78  H   UNL A   1      37.831  28.081  27.915  1.00  0.00     0.065 H 
ATOM     79  C   UNL A   1      38.673  30.812  29.530  1.00  0.00     0.049 A 
ATOM     80  H   UNL A   1      40.693  30.407  29.834  1.00  0.00     0.167 HD
ATOM     81  C   UNL A   1      44.790  29.181  30.837  1.00  0.00     0.037 A 
ATOM     82  H   UNL A   1      44.787  26.605  29.710  1.00  0.00     0.065 H 
ATOM     83  H   UNL A   1      36.726  30.262  28.605  1.00  0.00     0.065 H 
ATOM     84  C   UNL A   1      38.409  31.989  30.131  1.00  0.00     0.037 A 
ATOM     85  C   UNL A   1      44.644  30.504  31.383  1.00  0.00     0.049 A 
ATOM     86  C   UNL A   1      39.512  32.709  30.855  1.00  0.00     0.074 A 
ATOM     87  C   UNL A   1      45.598  31.293  31.999  1.00  0.00    -0.036 A 
ATOM     88  N   UNL A   1      43.461  31.230  31.380  1.00  0.00    -0.354 N 
ATOM     89  N   UNL A   1      40.753  32.333  31.051  1.00  0.00    -0.248 NA
ATOM     90  C   UNL A   1      39.184  34.017  31.438  1.00  0.00    -0.034 C 
ATOM     91  C   UNL A   1      44.979  32.475  32.419  1.00  0.00    -0.036 A 
ATOM     92  H   UNL A   1      46.592  31.052  32.128  1.00  0.00     0.065 H 
ATOM     93  C   UNL A   1      43.654  32.448  32.011  1.00  0.00     0.049 A 
ATOM     94  H   UNL A   1      42.611  30.926  30.988  1.00  0.00     0.167 HD
ATOM     95  C   UNL A   1      41.361  33.366  31.751  1.00  0.00     0.074 A 
ATOM     96  C   UNL A   1      40.352  34.387  31.948  1.00  0.00    -0.034 C 
ATOM     97  H   UNL A   1      38.282  34.518  31.449  1.00  0.00     0.065 H 
ATOM     98  H   UNL A   1      45.433  33.239  32.944  1.00  0.00     0.065 H 
ATOM     99  C   UNL A   1      42.641  33.460  32.188  1.00  0.00     0.037 A 
ATOM    100  H   UNL A   1      40.522  35.288  32.421  1.00  0.00     0.065 H 
BRANCH  81 101
ATOM    101  C   UNL A   1      46.099  28.466  31.019  1.00  0.00     0.064 A 
ATOM    102  C   UNL A   1      47.142  28.580  30.087  1.00  0.00     0.173 A 
ATOM    103  C   UNL A   1      46.312  27.653  32.143  1.00  0.00     0.173 A 
ATOM    104  F   UNL A   1      46.988  29.337  28.990  1.00  0.00    -0.203 F 
ATOM    105  C   UNL A   1      48.328  27.869  30.248  1.00  0.00     0.198 A 
ATOM    106  C   UNL A   1      47.514  26.972  32.319  1.00  0.00     0.198 A 
ATOM    107  F   UNL A   1      45.353  27.513  33.069  1.00  0.00    -0.203 F 
ATOM    108  F   UNL A   1      49.281  27.939  29.307  1.00  0.00    -0.200 F 
ATOM    109  C   UNL A   1      48.515  27.070  31.364  1.00  0.00     0.200 A 
ATOM    110  F   UNL A   1      47.699  26.212  33.406  1.00  0.00    -0.200 F 
ATOM    111  F   UNL A   1      49.657  26.384  31.515  1.00  0.00    -0.200 F 
ENDBRANCH  81 101
BRANCH  84 112
ATOM    112  C   UNL A   1      37.036  32.551  30.056  1.00  0.00     0.064 A 
ATOM    113  C   UNL A   1      36.125  32.371  31.105  1.00  0.00     0.173 A 
ATOM    114  C   UNL A   1      36.623  33.318  28.955  1.00  0.00     0.173 A 
ATOM    115  F   UNL A   1      36.468  31.631  32.169  1.00  0.00    -0.203 F 
ATOM    116  C   UNL A   1      34.851  32.933  31.054  1.00  0.00     0.198 A 
ATOM    117  C   UNL A   1      35.359  33.900  28.918  1.00  0.00     0.198 A 
ATOM    118  F   UNL A   1      37.463  33.526  27.930  1.00  0.00    -0.203 F 
ATOM    119  F   UNL A   1      33.989  32.724  32.059  1.00  0.00    -0.200 F 
ATOM    120  C   UNL A   1      34.472  33.704  29.966  1.00  0.00     0.200 A 
ATOM    121  F   UNL A   1      35.005  34.660  27.873  1.00  0.00    -0.200 F 
ATOM    122  F   UNL A   1      33.253  34.259  29.926  1.00  0.00    -0.200 F 
ENDBRANCH  84 112
BRANCH  99 123
ATOM    123  C   UNL A   1      43.050  34.723  32.886  1.00  0.00     0.064 A 
ATOM    124  C   UNL A   1      43.480  35.852  32.177  1.00  0.00     0.173 A 
ATOM    125  C   UNL A   1      42.920  34.830  34.280  1.00  0.00     0.173 A 
ATOM    126  F   UNL A   1      43.633  35.796  30.845  1.00  0.00    -0.203 F 
ATOM    127  C   UNL A   1      43.771  37.043  32.839  1.00  0.00     0.198 A 
ATOM    128  C   UNL A   1      43.185  36.028  34.935  1.00  0.00     0.198 A 
ATOM    129  F   UNL A   1      42.506  33.778  35.003  1.00  0.00    -0.203 F 
ATOM    130  F   UNL A   1      44.205  38.104  32.144  1.00  0.00    -0.200 F 
ATOM    131  C   UNL A   1      43.611  37.134  34.214  1.00  0.00     0.200 A 
ATOM    132  F   UNL A   1      43.016  36.118  36.261  1.00  0.00    -0.200 F 
ATOM    133  F   UNL A   1      43.870  38.287  34.846  1.00  0.00    -0.200 F 
ENDBRANCH  99 123
ENDBRANCH  64  67
ENDBRANCH  54  57
ENDBRANCH  50  53
ENDBRANCH  47  50
ENDBRANCH  44  47
ENDBRANCH   1  44
TORSDOF 17
ENDMDL
MODEL 9
REMARK VINA RESULT:     -12.2      4.807      7.091
REMARK SMILES C[C@@H](C(=O)NCCCCCCNC(=O)c1ccc(-c2c3nc(c(-c4c(F)c(F)c(F)c(F)c4F)c4ccc([nH]4)c(-c4c(F)c(F)c(F)c(F)c4F)c4nc(c(-c5c(F)c(F)c(F)c(F)c5F)c5ccc2[nH]5)C=C4)C=C3)cc1)c1ccccc1-c1ccn(C(F)F)c(=O)c1
REMARK SMILES IDX 8 1 7 4 6 7 5 10 3 11 4 12 2 14 1 16 78 20 79 21 83 22 80 23
REMARK SMILES IDX 82 25 81 26 84 30 85 31 93 32 86 33 91 35 87 37 92 39 88 40
REMARK SMILES IDX 89 41 90 42 9 44 10 47 11 50 12 53 13 54 14 56 15 57 16 58
REMARK SMILES IDX 77 59 17 60 76 62 18 64 19 67 20 68 70 69 21 70 75 71 69 72
REMARK SMILES IDX 71 73 22 74 74 75 68 77 67 79 23 81 55 84 35 85 54 86 36 87
REMARK SMILES IDX 39 88 53 89 72 90 37 91 38 93 52 95 73 96 40 99 24 101
REMARK SMILES IDX 25 102 33 103 26 104 27 105 31 106 34 107 28 108 29 109
REMARK SMILES IDX 32 110 30 111 56 112 57 113 65 114 58 115 59 116 63 117
REMARK SMILES IDX 66 118 60 119 61 120 64 121 62 122 41 123 42 124 50 125
REMARK SMILES IDX 43 126 44 127 48 128 51 129 45 130 46 131 49 132 47 133
REMARK H PARENT 8 2 8 3 7 5 7 6 6 8 6 9 5 13 2 15 1 17 1 18 1 19 79 24 80 27
REMARK H PARENT 82 28 81 29 85 34 93 36 86 38 88 43 9 45 9 46 10 48 10 49
REMARK H PARENT 11 51 11 52 12 55 16 61 77 63 17 65 76 66 75 76 69 78 71 80
REMARK H PARENT 74 82 68 83 36 92 39 94 72 97 37 98 73 100
REMARK Flexibility Score: inf
ROOT
ATOM      1  C   UNL A   1      33.639  28.166  24.754  1.00  0.00    -0.052 C 
ATOM      2  H   UNL A   1      34.419  28.600  25.344  1.00  0.00     0.027 H 
ATOM      3  H   UNL A   1      33.774  27.117  24.587  1.00  0.00     0.027 H 
ENDROOT
BRANCH   1   4
ATOM      4  C   UNL A   1      33.657  28.832  23.370  1.00  0.00    -0.036 C 
ATOM      5  H   UNL A   1      32.677  29.209  23.161  1.00  0.00     0.028 H 
ATOM      6  H   UNL A   1      34.389  29.612  23.402  1.00  0.00     0.028 H 
BRANCH   4   7
ATOM      7  C   UNL A   1      34.060  27.878  22.242  1.00  0.00     0.017 C 
ATOM      8  H   UNL A   1      34.659  28.400  21.526  1.00  0.00     0.049 H 
ATOM      9  H   UNL A   1      34.626  27.061  22.642  1.00  0.00     0.049 H 
BRANCH   7  10
ATOM     10  N   UNL A   1      32.861  27.377  21.602  1.00  0.00    -0.356 N 
ATOM     11  C   UNL A   1      32.453  26.083  21.453  1.00  0.00     0.227 C 
ATOM     12  O   UNL A   1      31.696  25.839  20.512  1.00  0.00    -0.274 OA
ATOM     13  H   UNL A   1      32.262  28.060  21.225  1.00  0.00     0.163 HD
BRANCH  11  14
ATOM     14  C   UNL A   1      32.895  25.028  22.476  1.00  0.00     0.061 C 
ATOM     15  H   UNL A   1      33.869  25.244  22.861  1.00  0.00     0.045 H 
BRANCH  14  16
ATOM     16  C   UNL A   1      32.991  23.667  21.769  1.00  0.00    -0.049 C 
ATOM     17  H   UNL A   1      32.111  23.509  21.181  1.00  0.00     0.024 H 
ATOM     18  H   UNL A   1      33.077  22.890  22.499  1.00  0.00     0.024 H 
ATOM     19  H   UNL A   1      33.850  23.657  21.132  1.00  0.00     0.024 H 
ENDBRANCH  14  16
BRANCH  14  20
ATOM     20  C   UNL A   1      31.979  25.055  23.711  1.00  0.00    -0.028 A 
ATOM     21  C   UNL A   1      30.678  25.593  23.621  1.00  0.00    -0.058 A 
ATOM     22  C   UNL A   1      32.416  24.583  24.978  1.00  0.00    -0.014 A 
ATOM     23  C   UNL A   1      29.840  25.676  24.734  1.00  0.00    -0.062 A 
ATOM     24  H   UNL A   1      30.337  25.935  22.709  1.00  0.00     0.063 H 
ATOM     25  C   UNL A   1      31.565  24.698  26.094  1.00  0.00    -0.054 A 
ATOM     26  C   UNL A   1      30.286  25.238  25.972  1.00  0.00    -0.062 A 
ATOM     27  H   UNL A   1      28.889  26.062  24.636  1.00  0.00     0.062 H 
ATOM     28  H   UNL A   1      31.893  24.377  27.018  1.00  0.00     0.063 H 
ATOM     29  H   UNL A   1      29.674  25.312  26.799  1.00  0.00     0.062 H 
BRANCH  22  30
ATOM     30  C   UNL A   1      33.735  23.946  25.209  1.00  0.00    -0.011 A 
ATOM     31  C   UNL A   1      34.954  24.688  25.465  1.00  0.00    -0.038 A 
ATOM     32  C   UNL A   1      33.786  22.602  25.213  1.00  0.00     0.012 A 
ATOM     33  C   UNL A   1      36.130  24.058  25.564  1.00  0.00     0.013 A 
ATOM     34  H   UNL A   1      34.914  25.714  25.572  1.00  0.00     0.064 H 
ATOM     35  C   UNL A   1      35.075  21.881  25.405  1.00  0.00     0.255 A 
ATOM     36  H   UNL A   1      32.917  22.061  25.082  1.00  0.00     0.069 H 
ATOM     37  N   UNL A   1      36.204  22.680  25.498  1.00  0.00    -0.258 N 
ATOM     38  H   UNL A   1      36.994  24.609  25.689  1.00  0.00     0.082 H 
ATOM     39  O   UNL A   1      35.062  20.656  25.441  1.00  0.00    -0.269 OA
BRANCH  37  40
ATOM     40  C   UNL A   1      37.474  22.009  25.595  1.00  0.00     0.321 C 
ATOM     41  F   UNL A   1      37.810  21.423  24.422  1.00  0.00    -0.185 F 
ATOM     42  F   UNL A   1      38.461  22.877  25.930  1.00  0.00    -0.185 F 
ATOM     43  H   UNL A   1      37.372  21.264  26.357  1.00  0.00     0.131 H 
ENDBRANCH  37  40
ENDBRANCH  22  30
ENDBRANCH  14  20
ENDBRANCH  11  14
ENDBRANCH   7  10
ENDBRANCH   4   7
ENDBRANCH   1   4
BRANCH   1  44
ATOM     44  C   UNL A   1      32.320  28.316  25.519  1.00  0.00    -0.052 C 
ATOM     45  H   UNL A   1      31.647  27.558  25.176  1.00  0.00     0.027 H 
ATOM     46  H   UNL A   1      31.966  29.306  25.326  1.00  0.00     0.027 H 
BRANCH  44  47
ATOM     47  C   UNL A   1      32.451  28.186  27.036  1.00  0.00    -0.036 C 
ATOM     48  H   UNL A   1      32.338  27.154  27.296  1.00  0.00     0.028 H 
ATOM     49  H   UNL A   1      31.692  28.805  27.467  1.00  0.00     0.028 H 
BRANCH  47  50
ATOM     50  C   UNL A   1      33.784  28.676  27.587  1.00  0.00     0.018 C 
ATOM     51  H   UNL A   1      34.561  28.403  26.904  1.00  0.00     0.049 H 
ATOM     52  H   UNL A   1      33.934  28.222  28.544  1.00  0.00     0.049 H 
BRANCH  50  53
ATOM     53  N   UNL A   1      33.802  30.119  27.767  1.00  0.00    -0.352 N 
ATOM     54  C   UNL A   1      34.795  30.904  28.306  1.00  0.00     0.251 C 
ATOM     55  H   UNL A   1      32.996  30.598  27.463  1.00  0.00     0.163 HD
ATOM     56  O   UNL A   1      34.598  32.077  28.570  1.00  0.00    -0.269 OA
BRANCH  54  57
ATOM     57  C   UNL A   1      36.109  30.287  28.580  1.00  0.00     0.039 A 
ATOM     58  C   UNL A   1      37.094  30.309  27.590  1.00  0.00    -0.049 A 
ATOM     59  C   UNL A   1      36.369  29.726  29.833  1.00  0.00    -0.049 A 
ATOM     60  C   UNL A   1      38.369  29.821  27.880  1.00  0.00    -0.053 A 
ATOM     61  H   UNL A   1      36.880  30.683  26.653  1.00  0.00     0.063 H 
ATOM     62  C   UNL A   1      37.657  29.308  30.142  1.00  0.00    -0.053 A 
ATOM     63  H   UNL A   1      35.610  29.623  30.524  1.00  0.00     0.063 H 
ATOM     64  C   UNL A   1      38.668  29.348  29.167  1.00  0.00    -0.014 A 
ATOM     65  H   UNL A   1      39.094  29.806  27.145  1.00  0.00     0.063 H 
ATOM     66  H   UNL A   1      37.873  28.965  31.091  1.00  0.00     0.063 H 
BRANCH  64  67
ATOM     67  C   UNL A   1      40.024  28.871  29.533  1.00  0.00     0.031 A 
ATOM     68  C   UNL A   1      40.944  29.780  30.297  1.00  0.00     0.074 A 
ATOM     69  C   UNL A   1      40.465  27.683  29.080  1.00  0.00     0.049 A 
ATOM     70  N   UNL A   1      42.216  29.637  30.567  1.00  0.00    -0.248 NA
ATOM     71  C   UNL A   1      40.361  31.037  30.786  1.00  0.00    -0.034 C 
ATOM     72  C   UNL A   1      39.679  26.735  28.291  1.00  0.00    -0.036 A 
ATOM     73  N   UNL A   1      41.697  27.087  29.190  1.00  0.00    -0.354 N 
ATOM     74  C   UNL A   1      42.590  30.798  31.228  1.00  0.00     0.074 A 
ATOM     75  C   UNL A   1      41.425  31.654  31.275  1.00  0.00    -0.034 C 
ATOM     76  H   UNL A   1      39.380  31.356  30.757  1.00  0.00     0.065 H 
ATOM     77  C   UNL A   1      40.448  25.678  27.984  1.00  0.00    -0.036 A 
ATOM     78  H   UNL A   1      38.692  26.859  28.015  1.00  0.00     0.065 H 
ATOM     79  C   UNL A   1      41.790  25.895  28.515  1.00  0.00     0.049 A 
ATOM     80  H   UNL A   1      42.440  27.476  29.705  1.00  0.00     0.167 HD
ATOM     81  C   UNL A   1      43.795  31.113  31.763  1.00  0.00     0.037 A 
ATOM     82  H   UNL A   1      41.424  32.619  31.640  1.00  0.00     0.065 H 
ATOM     83  H   UNL A   1      40.139  24.846  27.456  1.00  0.00     0.065 H 
ATOM     84  C   UNL A   1      42.847  25.082  28.323  1.00  0.00     0.037 A 
ATOM     85  C   UNL A   1      44.939  30.242  31.736  1.00  0.00     0.049 A 
ATOM     86  C   UNL A   1      44.175  25.445  28.929  1.00  0.00     0.074 A 
ATOM     87  C   UNL A   1      46.180  30.429  32.317  1.00  0.00    -0.036 A 
ATOM     88  N   UNL A   1      44.980  29.016  31.085  1.00  0.00    -0.354 N 
ATOM     89  N   UNL A   1      44.504  26.512  29.615  1.00  0.00    -0.248 NA
ATOM     90  C   UNL A   1      45.277  24.491  28.741  1.00  0.00    -0.034 C 
ATOM     91  C   UNL A   1      46.990  29.343  31.973  1.00  0.00    -0.036 A 
ATOM     92  H   UNL A   1      46.459  31.231  32.903  1.00  0.00     0.065 H 
ATOM     93  C   UNL A   1      46.236  28.450  31.226  1.00  0.00     0.049 A 
ATOM     94  H   UNL A   1      44.229  28.610  30.596  1.00  0.00     0.167 HD
ATOM     95  C   UNL A   1      45.837  26.348  29.965  1.00  0.00     0.074 A 
ATOM     96  C   UNL A   1      46.258  25.075  29.416  1.00  0.00    -0.034 C 
ATOM     97  H   UNL A   1      45.285  23.599  28.221  1.00  0.00     0.065 H 
ATOM     98  H   UNL A   1      47.983  29.226  32.230  1.00  0.00     0.065 H 
ATOM     99  C   UNL A   1      46.637  27.175  30.682  1.00  0.00     0.037 A 
ATOM    100  H   UNL A   1      47.201  24.674  29.535  1.00  0.00     0.065 H 
BRANCH  81 101
ATOM    101  C   UNL A   1      43.932  32.465  32.404  1.00  0.00     0.064 A 
ATOM    102  C   UNL A   1      44.387  33.582  31.688  1.00  0.00     0.173 A 
ATOM    103  C   UNL A   1      43.605  32.643  33.757  1.00  0.00     0.173 A 
ATOM    104  F   UNL A   1      44.722  33.465  30.394  1.00  0.00    -0.203 F 
ATOM    105  C   UNL A   1      44.556  34.814  32.313  1.00  0.00     0.198 A 
ATOM    106  C   UNL A   1      43.741  33.886  34.370  1.00  0.00     0.198 A 
ATOM    107  F   UNL A   1      43.159  31.611  34.488  1.00  0.00    -0.203 F 
ATOM    108  F   UNL A   1      45.060  35.849  31.625  1.00  0.00    -0.200 F 
ATOM    109  C   UNL A   1      44.230  34.967  33.651  1.00  0.00     0.200 A 
ATOM    110  F   UNL A   1      43.411  34.035  35.660  1.00  0.00    -0.200 F 
ATOM    111  F   UNL A   1      44.397  36.153  34.252  1.00  0.00    -0.200 F 
ENDBRANCH  81 101
BRANCH  84 112
ATOM    112  C   UNL A   1      42.674  23.842  27.524  1.00  0.00     0.064 A 
ATOM    113  C   UNL A   1      42.999  23.810  26.162  1.00  0.00     0.173 A 
ATOM    114  C   UNL A   1      42.225  22.651  28.117  1.00  0.00     0.173 A 
ATOM    115  F   UNL A   1      43.415  24.927  25.547  1.00  0.00    -0.203 F 
ATOM    116  C   UNL A   1      42.876  22.637  25.421  1.00  0.00     0.198 A 
ATOM    117  C   UNL A   1      42.127  21.473  27.380  1.00  0.00     0.198 A 
ATOM    118  F   UNL A   1      41.910  22.629  29.421  1.00  0.00    -0.203 F 
ATOM    119  F   UNL A   1      43.168  22.640  24.113  1.00  0.00    -0.200 F 
ATOM    120  C   UNL A   1      42.449  21.468  26.032  1.00  0.00     0.200 A 
ATOM    121  F   UNL A   1      41.732  20.342  27.981  1.00  0.00    -0.200 F 
ATOM    122  F   UNL A   1      42.349  20.335  25.323  1.00  0.00    -0.200 F 
ENDBRANCH  84 112
BRANCH  99 123
ATOM    123  C   UNL A   1      48.041  26.724  30.956  1.00  0.00     0.064 A 
ATOM    124  C   UNL A   1      48.341  25.837  31.998  1.00  0.00     0.173 A 
ATOM    125  C   UNL A   1      49.086  27.116  30.104  1.00  0.00     0.173 A 
ATOM    126  F   UNL A   1      47.380  25.444  32.848  1.00  0.00    -0.203 F 
ATOM    127  C   UNL A   1      49.637  25.362  32.182  1.00  0.00     0.198 A 
ATOM    128  C   UNL A   1      50.374  26.619  30.273  1.00  0.00     0.198 A 
ATOM    129  F   UNL A   1      48.848  27.960  29.087  1.00  0.00    -0.203 F 
ATOM    130  F   UNL A   1      49.907  24.534  33.200  1.00  0.00    -0.200 F 
ATOM    131  C   UNL A   1      50.649  25.744  31.312  1.00  0.00     0.200 A 
ATOM    132  F   UNL A   1      51.346  26.977  29.423  1.00  0.00    -0.200 F 
ATOM    133  F   UNL A   1      51.891  25.267  31.477  1.00  0.00    -0.200 F 
ENDBRANCH  99 123
ENDBRANCH  64  67
ENDBRANCH  54  57
ENDBRANCH  50  53
ENDBRANCH  47  50
ENDBRANCH  44  47
ENDBRANCH   1  44
TORSDOF 17
ENDMDL
MODEL 10
REMARK VINA RESULT:     -12.2      5.474      9.296
REMARK SMILES C[C@@H](C(=O)NCCCCCCNC(=O)c1ccc(-c2c3nc(c(-c4c(F)c(F)c(F)c(F)c4F)c4ccc([nH]4)c(-c4c(F)c(F)c(F)c(F)c4F)c4nc(c(-c5c(F)c(F)c(F)c(F)c5F)c5ccc2[nH]5)C=C4)C=C3)cc1)c1ccccc1-c1ccn(C(F)F)c(=O)c1
REMARK SMILES IDX 8 1 7 4 6 7 5 10 3 11 4 12 2 14 1 16 78 20 79 21 83 22 80 23
REMARK SMILES IDX 82 25 81 26 84 30 85 31 93 32 86 33 91 35 87 37 92 39 88 40
REMARK SMILES IDX 89 41 90 42 9 44 10 47 11 50 12 53 13 54 14 56 15 57 16 58
REMARK SMILES IDX 77 59 17 60 76 62 18 64 19 67 20 68 70 69 21 70 75 71 69 72
REMARK SMILES IDX 71 73 22 74 74 75 68 77 67 79 23 81 55 84 35 85 54 86 36 87
REMARK SMILES IDX 39 88 53 89 72 90 37 91 38 93 52 95 73 96 40 99 24 101
REMARK SMILES IDX 25 102 33 103 26 104 27 105 31 106 34 107 28 108 29 109
REMARK SMILES IDX 32 110 30 111 56 112 57 113 65 114 58 115 59 116 63 117
REMARK SMILES IDX 66 118 60 119 61 120 64 121 62 122 41 123 42 124 50 125
REMARK SMILES IDX 43 126 44 127 48 128 51 129 45 130 46 131 49 132 47 133
REMARK H PARENT 8 2 8 3 7 5 7 6 6 8 6 9 5 13 2 15 1 17 1 18 1 19 79 24 80 27
REMARK H PARENT 82 28 81 29 85 34 93 36 86 38 88 43 9 45 9 46 10 48 10 49
REMARK H PARENT 11 51 11 52 12 55 16 61 77 63 17 65 76 66 75 76 69 78 71 80
REMARK H PARENT 74 82 68 83 36 92 39 94 72 97 37 98 73 100
REMARK Flexibility Score: inf
ROOT
ATOM      1  C   UNL A   1      34.202  24.900  24.299  1.00  0.00    -0.052 C 
ATOM      2  H   UNL A   1      34.254  25.667  23.554  1.00  0.00     0.027 H 
ATOM      3  H   UNL A   1      33.408  24.203  24.128  1.00  0.00     0.027 H 
ENDROOT
BRANCH   1   4
ATOM      4  C   UNL A   1      33.914  25.566  25.653  1.00  0.00    -0.036 C 
ATOM      5  H   UNL A   1      32.867  25.480  25.857  1.00  0.00     0.028 H 
ATOM      6  H   UNL A   1      34.509  25.064  26.386  1.00  0.00     0.028 H 
BRANCH   4   7
ATOM      7  C   UNL A   1      34.298  27.048  25.693  1.00  0.00     0.017 C 
ATOM      8  H   UNL A   1      35.112  27.190  26.373  1.00  0.00     0.049 H 
ATOM      9  H   UNL A   1      34.595  27.373  24.718  1.00  0.00     0.049 H 
BRANCH   7  10
ATOM     10  N   UNL A   1      33.152  27.815  26.138  1.00  0.00    -0.356 N 
ATOM     11  C   UNL A   1      32.253  28.515  25.387  1.00  0.00     0.227 C 
ATOM     12  O   UNL A   1      31.667  29.447  25.940  1.00  0.00    -0.274 OA
ATOM     13  H   UNL A   1      33.003  27.835  27.111  1.00  0.00     0.163 HD
BRANCH  11  14
ATOM     14  C   UNL A   1      31.972  28.079  23.943  1.00  0.00     0.061 C 
ATOM     15  H   UNL A   1      32.272  27.065  23.778  1.00  0.00     0.045 H 
BRANCH  14  16
ATOM     16  C   UNL A   1      32.812  28.948  22.995  1.00  0.00    -0.049 C 
ATOM     17  H   UNL A   1      32.206  29.741  22.609  1.00  0.00     0.024 H 
ATOM     18  H   UNL A   1      33.173  28.349  22.186  1.00  0.00     0.024 H 
ATOM     19  H   UNL A   1      33.640  29.362  23.531  1.00  0.00     0.024 H 
ENDBRANCH  14  16
BRANCH  14  20
ATOM     20  C   UNL A   1      30.461  28.083  23.660  1.00  0.00    -0.028 A 
ATOM     21  C   UNL A   1      29.822  29.261  23.219  1.00  0.00    -0.058 A 
ATOM     22  C   UNL A   1      29.656  26.930  23.869  1.00  0.00    -0.014 A 
ATOM     23  C   UNL A   1      28.445  29.309  22.999  1.00  0.00    -0.062 A 
ATOM     24  H   UNL A   1      30.387  30.108  23.054  1.00  0.00     0.063 H 
ATOM     25  C   UNL A   1      28.265  27.006  23.666  1.00  0.00    -0.054 A 
ATOM     26  C   UNL A   1      27.665  28.186  23.232  1.00  0.00    -0.062 A 
ATOM     27  H   UNL A   1      28.007  30.181  22.664  1.00  0.00     0.062 H 
ATOM     28  H   UNL A   1      27.680  26.174  23.840  1.00  0.00     0.063 H 
ATOM     29  H   UNL A   1      26.644  28.225  23.085  1.00  0.00     0.062 H 
BRANCH  22  30
ATOM     30  C   UNL A   1      30.198  25.612  24.279  1.00  0.00    -0.011 A 
ATOM     31  C   UNL A   1      30.703  24.623  23.347  1.00  0.00    -0.038 A 
ATOM     32  C   UNL A   1      30.250  25.341  25.596  1.00  0.00     0.012 A 
ATOM     33  C   UNL A   1      31.083  23.412  23.773  1.00  0.00     0.013 A 
ATOM     34  H   UNL A   1      30.771  24.855  22.343  1.00  0.00     0.064 H 
ATOM     35  C   UNL A   1      30.748  24.029  26.093  1.00  0.00     0.255 A 
ATOM     36  H   UNL A   1      29.940  26.056  26.272  1.00  0.00     0.069 H 
ATOM     37  N   UNL A   1      31.073  23.098  25.119  1.00  0.00    -0.258 N 
ATOM     38  H   UNL A   1      31.386  22.704  23.087  1.00  0.00     0.082 H 
ATOM     39  O   UNL A   1      30.814  23.847  27.304  1.00  0.00    -0.269 OA
BRANCH  37  40
ATOM     40  C   UNL A   1      31.473  21.791  25.569  1.00  0.00     0.321 C 
ATOM     41  F   UNL A   1      31.763  20.981  24.523  1.00  0.00    -0.185 F 
ATOM     42  F   UNL A   1      32.570  21.861  26.364  1.00  0.00    -0.185 F 
ATOM     43  H   UNL A   1      30.649  21.390  26.121  1.00  0.00     0.131 H 
ENDBRANCH  37  40
ENDBRANCH  22  30
ENDBRANCH  14  20
ENDBRANCH  11  14
ENDBRANCH   7  10
ENDBRANCH   4   7
ENDBRANCH   1   4
BRANCH   1  44
ATOM     44  C   UNL A   1      35.505  24.094  24.247  1.00  0.00    -0.052 C 
ATOM     45  H   UNL A   1      36.264  24.655  24.752  1.00  0.00     0.027 H 
ATOM     46  H   UNL A   1      35.724  23.932  23.213  1.00  0.00     0.027 H 
BRANCH  44  47
ATOM     47  C   UNL A   1      35.421  22.714  24.897  1.00  0.00    -0.036 C 
ATOM     48  H   UNL A   1      35.680  21.980  24.163  1.00  0.00     0.028 H 
ATOM     49  H   UNL A   1      34.420  22.601  25.257  1.00  0.00     0.028 H 
BRANCH  47  50
ATOM     50  C   UNL A   1      36.343  22.538  26.098  1.00  0.00     0.018 C 
ATOM     51  H   UNL A   1      35.748  22.347  26.966  1.00  0.00     0.049 H 
ATOM     52  H   UNL A   1      36.914  23.436  26.211  1.00  0.00     0.049 H 
BRANCH  50  53
ATOM     53  N   UNL A   1      37.272  21.434  25.913  1.00  0.00    -0.352 N 
ATOM     54  C   UNL A   1      38.645  21.443  26.012  1.00  0.00     0.251 C 
ATOM     55  H   UNL A   1      36.866  20.566  25.688  1.00  0.00     0.163 HD
ATOM     56  O   UNL A   1      39.309  20.490  25.644  1.00  0.00    -0.269 OA
BRANCH  54  57
ATOM     57  C   UNL A   1      39.304  22.648  26.556  1.00  0.00     0.039 A 
ATOM     58  C   UNL A   1      40.322  22.502  27.500  1.00  0.00    -0.049 A 
ATOM     59  C   UNL A   1      38.934  23.914  26.096  1.00  0.00    -0.049 A 
ATOM     60  C   UNL A   1      41.018  23.630  27.939  1.00  0.00    -0.053 A 
ATOM     61  H   UNL A   1      40.559  21.568  27.869  1.00  0.00     0.063 H 
ATOM     62  C   UNL A   1      39.674  25.025  26.478  1.00  0.00    -0.053 A 
ATOM     63  H   UNL A   1      38.116  24.023  25.475  1.00  0.00     0.063 H 
ATOM     64  C   UNL A   1      40.720  24.894  27.407  1.00  0.00    -0.014 A 
ATOM     65  H   UNL A   1      41.752  23.534  28.659  1.00  0.00     0.063 H 
ATOM     66  H   UNL A   1      39.454  25.952  26.081  1.00  0.00     0.063 H 
BRANCH  64  67
ATOM     67  C   UNL A   1      41.471  26.110  27.804  1.00  0.00     0.031 A 
ATOM     68  C   UNL A   1      40.756  27.218  28.522  1.00  0.00     0.074 A 
ATOM     69  C   UNL A   1      42.751  26.267  27.418  1.00  0.00     0.049 A 
ATOM     70  N   UNL A   1      41.169  28.426  28.805  1.00  0.00    -0.248 NA
ATOM     71  C   UNL A   1      39.374  26.939  28.940  1.00  0.00    -0.034 C 
ATOM     72  C   UNL A   1      43.537  25.280  26.678  1.00  0.00    -0.036 A 
ATOM     73  N   UNL A   1      43.604  27.332  27.565  1.00  0.00    -0.354 N 
ATOM     74  C   UNL A   1      40.089  29.060  29.404  1.00  0.00     0.074 A 
ATOM     75  C   UNL A   1      38.989  28.119  29.399  1.00  0.00    -0.034 C 
ATOM     76  H   UNL A   1      38.843  26.055  28.889  1.00  0.00     0.065 H 
ATOM     77  C   UNL A   1      44.755  25.786  26.431  1.00  0.00    -0.036 A 
ATOM     78  H   UNL A   1      43.208  24.344  26.392  1.00  0.00     0.065 H 
ATOM     79  C   UNL A   1      44.821  27.147  26.956  1.00  0.00     0.049 A 
ATOM     80  H   UNL A   1      43.367  28.148  28.061  1.00  0.00     0.167 HD
ATOM     81  C   UNL A   1      40.027  30.308  29.926  1.00  0.00     0.037 A 
ATOM     82  H   UNL A   1      38.031  28.340  29.712  1.00  0.00     0.065 H 
ATOM     83  H   UNL A   1      45.523  25.292  25.948  1.00  0.00     0.065 H 
ATOM     84  C   UNL A   1      45.861  27.991  26.813  1.00  0.00     0.037 A 
ATOM     85  C   UNL A   1      41.135  31.225  29.951  1.00  0.00     0.049 A 
ATOM     86  C   UNL A   1      45.777  29.371  27.404  1.00  0.00     0.074 A 
ATOM     87  C   UNL A   1      41.203  32.481  30.526  1.00  0.00    -0.036 A 
ATOM     88  N   UNL A   1      42.371  30.982  29.367  1.00  0.00    -0.354 N 
ATOM     89  N   UNL A   1      44.777  29.939  28.033  1.00  0.00    -0.248 NA
ATOM     90  C   UNL A   1      46.965  30.226  27.272  1.00  0.00    -0.034 C 
ATOM     91  C   UNL A   1      42.462  33.021  30.244  1.00  0.00    -0.036 A 
ATOM     92  H   UNL A   1      40.455  32.939  31.069  1.00  0.00     0.065 H 
ATOM     93  C   UNL A   1      43.200  32.078  29.544  1.00  0.00     0.049 A 
ATOM     94  H   UNL A   1      42.622  30.155  28.897  1.00  0.00     0.167 HD
ATOM     95  C   UNL A   1      45.220  31.202  28.397  1.00  0.00     0.074 A 
ATOM     96  C   UNL A   1      46.583  31.320  27.919  1.00  0.00    -0.034 C 
ATOM     97  H   UNL A   1      47.862  30.028  26.801  1.00  0.00     0.065 H 
ATOM     98  H   UNL A   1      42.787  33.963  30.512  1.00  0.00     0.065 H 
ATOM     99  C   UNL A   1      44.559  32.175  29.071  1.00  0.00     0.037 A 
ATOM    100  H   UNL A   1      47.180  32.148  28.064  1.00  0.00     0.065 H 
BRANCH  81 101
ATOM    101  C   UNL A   1      38.709  30.754  30.493  1.00  0.00     0.064 A 
ATOM    102  C   UNL A   1      38.456  30.747  31.873  1.00  0.00     0.173 A 
ATOM    103  C   UNL A   1      37.684  31.193  29.642  1.00  0.00     0.173 A 
ATOM    104  F   UNL A   1      39.399  30.328  32.731  1.00  0.00    -0.203 F 
ATOM    105  C   UNL A   1      37.211  31.115  32.376  1.00  0.00     0.198 A 
ATOM    106  C   UNL A   1      36.451  31.594  30.151  1.00  0.00     0.198 A 
ATOM    107  F   UNL A   1      37.873  31.226  28.315  1.00  0.00    -0.203 F 
ATOM    108  F   UNL A   1      36.971  31.032  33.692  1.00  0.00    -0.200 F 
ATOM    109  C   UNL A   1      36.212  31.542  31.516  1.00  0.00     0.200 A 
ATOM    110  F   UNL A   1      35.491  32.021  29.319  1.00  0.00    -0.200 F 
ATOM    111  F   UNL A   1      35.012  31.892  32.001  1.00  0.00    -0.200 F 
ENDBRANCH  81 101
BRANCH  84 112
ATOM    112  C   UNL A   1      47.071  27.534  26.081  1.00  0.00     0.064 A 
ATOM    113  C   UNL A   1      47.163  27.662  24.689  1.00  0.00     0.173 A 
ATOM    114  C   UNL A   1      48.177  27.004  26.763  1.00  0.00     0.173 A 
ATOM    115  F   UNL A   1      46.125  28.146  23.992  1.00  0.00    -0.203 F 
ATOM    116  C   UNL A   1      48.313  27.273  24.006  1.00  0.00     0.198 A 
ATOM    117  C   UNL A   1      49.336  26.640  26.082  1.00  0.00     0.198 A 
ATOM    118  F   UNL A   1      48.141  26.870  28.098  1.00  0.00    -0.203 F 
ATOM    119  F   UNL A   1      48.366  27.381  22.671  1.00  0.00    -0.200 F 
ATOM    120  C   UNL A   1      49.402  26.771  24.703  1.00  0.00     0.200 A 
ATOM    121  F   UNL A   1      50.391  26.173  26.763  1.00  0.00    -0.200 F 
ATOM    122  F   UNL A   1      50.514  26.413  24.048  1.00  0.00    -0.200 F 
ENDBRANCH  84 112
BRANCH  99 123
ATOM    123  C   UNL A   1      45.301  33.442  29.375  1.00  0.00     0.064 A 
ATOM    124  C   UNL A   1      45.248  34.552  28.521  1.00  0.00     0.173 A 
ATOM    125  C   UNL A   1      46.001  33.576  30.585  1.00  0.00     0.173 A 
ATOM    126  F   UNL A   1      44.604  34.470  27.346  1.00  0.00    -0.203 F 
ATOM    127  C   UNL A   1      45.873  35.748  28.864  1.00  0.00     0.198 A 
ATOM    128  C   UNL A   1      46.601  34.780  30.937  1.00  0.00     0.198 A 
ATOM    129  F   UNL A   1      46.075  32.544  31.440  1.00  0.00    -0.203 F 
ATOM    130  F   UNL A   1      45.831  36.789  28.021  1.00  0.00    -0.200 F 
ATOM    131  C   UNL A   1      46.538  35.865  30.076  1.00  0.00     0.200 A 
ATOM    132  F   UNL A   1      47.230  34.896  32.115  1.00  0.00    -0.200 F 
ATOM    133  F   UNL A   1      47.119  37.025  30.414  1.00  0.00    -0.200 F 
ENDBRANCH  99 123
ENDBRANCH  64  67
ENDBRANCH  54  57
ENDBRANCH  50  53
ENDBRANCH  47  50
ENDBRANCH  44  47
ENDBRANCH   1  44
TORSDOF 17
ENDMDL
