MODEL 1
REMARK VINA RESULT:     -12.2      0.000      0.000
REMARK SMILES C[C@@H](C(=O)NCCCCCCNC(=O)c1ccc(-c2c3nc(c(-c4c(F)c(F)c(F)c(F)c4F)c4ccc([nH]4)c(-c4c(F)c(F)c(F)c(F)c4F)c4nc(c(-c5c(F)c(F)c(F)c(F)c5F)c5ccc2[nH]5)C=C4)C=C3)cc1)c1ccc(C(=O)c2cccs2)cc1
REMARK SMILES IDX 8 1 7 4 6 7 5 10 3 11 4 12 2 14 1 16 78 20 79 21 90 22 80 23
REMARK SMILES IDX 89 25 81 27 82 30 83 31 84 32 85 33 88 34 86 35 87 37 9 40
REMARK SMILES IDX 10 43 11 46 12 49 13 50 14 52 15 53 16 54 77 55 17 56 76 58
REMARK SMILES IDX 18 60 19 63 20 64 70 65 21 66 75 67 69 68 71 69 22 70 74 71
REMARK SMILES IDX 68 73 67 75 23 77 55 80 35 81 54 82 36 83 39 84 53 85 72 86
REMARK SMILES IDX 37 87 38 89 52 91 73 92 40 95 24 97 25 98 33 99 26 100
REMARK SMILES IDX 27 101 31 102 34 103 28 104 29 105 32 106 30 107 56 108
REMARK SMILES IDX 57 109 65 110 58 111 59 112 63 113 66 114 60 115 61 116
REMARK SMILES IDX 64 117 62 118 41 119 42 120 50 121 43 122 44 123 48 124
REMARK SMILES IDX 51 125 45 126 46 127 49 128 47 129
REMARK H PARENT 8 2 8 3 7 5 7 6 6 8 6 9 5 13 2 15 1 17 1 18 1 19 79 24 90 26
REMARK H PARENT 80 28 89 29 85 36 86 38 87 39 9 41 9 42 10 44 10 45 11 47
REMARK H PARENT 11 48 12 51 16 57 77 59 17 61 76 62 75 72 69 74 71 76 74 78
REMARK H PARENT 68 79 36 88 39 90 72 93 37 94 73 96
REMARK Flexibility Score: inf
ROOT
ATOM      1  C   UNL A   1      32.450  29.261  26.534  1.00  0.00    -0.052 C 
ATOM      2  H   UNL A   1      32.778  29.666  27.468  1.00  0.00     0.027 H 
ATOM      3  H   UNL A   1      31.726  28.480  26.639  1.00  0.00     0.027 H 
ENDROOT
BRANCH   1   4
ATOM      4  C   UNL A   1      33.664  28.627  25.838  1.00  0.00    -0.036 C 
ATOM      5  H   UNL A   1      33.713  29.008  24.839  1.00  0.00     0.028 H 
ATOM      6  H   UNL A   1      34.522  28.883  26.422  1.00  0.00     0.028 H 
BRANCH   4   7
ATOM      7  C   UNL A   1      33.619  27.099  25.767  1.00  0.00     0.017 C 
ATOM      8  H   UNL A   1      34.304  26.693  26.482  1.00  0.00     0.049 H 
ATOM      9  H   UNL A   1      32.624  26.770  25.982  1.00  0.00     0.049 H 
BRANCH   7  10
ATOM     10  N   UNL A   1      33.987  26.641  24.446  1.00  0.00    -0.356 N 
ATOM     11  C   UNL A   1      33.372  25.771  23.597  1.00  0.00     0.227 C 
ATOM     12  O   UNL A   1      34.009  25.495  22.578  1.00  0.00    -0.274 OA
ATOM     13  H   UNL A   1      34.826  27.023  24.102  1.00  0.00     0.163 HD
BRANCH  11  14
ATOM     14  C   UNL A   1      31.956  25.251  23.910  1.00  0.00     0.060 C 
ATOM     15  H   UNL A   1      32.010  25.098  24.967  1.00  0.00     0.045 H 
BRANCH  14  16
ATOM     16  C   UNL A   1      31.624  23.937  23.198  1.00  0.00    -0.049 C 
ATOM     17  H   UNL A   1      30.715  24.051  22.644  1.00  0.00     0.024 H 
ATOM     18  H   UNL A   1      31.505  23.158  23.921  1.00  0.00     0.024 H 
ATOM     19  H   UNL A   1      32.419  23.684  22.527  1.00  0.00     0.024 H 
ENDBRANCH  14  16
BRANCH  14  20
ATOM     20  C   UNL A   1      30.816  26.233  23.634  1.00  0.00    -0.036 A 
ATOM     21  C   UNL A   1      29.508  26.028  24.093  1.00  0.00    -0.058 A 
ATOM     22  C   UNL A   1      31.102  27.443  22.983  1.00  0.00    -0.058 A 
ATOM     23  C   UNL A   1      28.504  26.969  23.852  1.00  0.00    -0.051 A 
ATOM     24  H   UNL A   1      29.282  25.168  24.615  1.00  0.00     0.063 H 
ATOM     25  C   UNL A   1      30.108  28.407  22.780  1.00  0.00    -0.051 A 
ATOM     26  H   UNL A   1      32.062  27.625  22.649  1.00  0.00     0.063 H 
ATOM     27  C   UNL A   1      28.792  28.170  23.196  1.00  0.00     0.023 A 
ATOM     28  H   UNL A   1      27.539  26.776  24.163  1.00  0.00     0.063 H 
ATOM     29  H   UNL A   1      30.346  29.299  22.320  1.00  0.00     0.063 H 
BRANCH  27  30
ATOM     30  C   UNL A   1      27.677  29.161  23.029  1.00  0.00     0.202 C 
ATOM     31  O   UNL A   1      26.521  28.771  23.190  1.00  0.00    -0.288 OA
BRANCH  30  32
ATOM     32  C   UNL A   1      27.995  30.544  22.733  1.00  0.00     0.075 A 
ATOM     33  C   UNL A   1      28.313  31.582  23.586  1.00  0.00    -0.040 A 
ATOM     34  S   UNL A   1      28.034  31.035  21.094  1.00  0.00    -0.140 S 
ATOM     35  C   UNL A   1      28.531  32.804  22.886  1.00  0.00    -0.051 A 
ATOM     36  H   UNL A   1      28.384  31.484  24.612  1.00  0.00     0.064 H 
ATOM     37  C   UNL A   1      28.405  32.647  21.523  1.00  0.00    -0.009 A 
ATOM     38  H   UNL A   1      28.757  33.700  23.345  1.00  0.00     0.063 H 
ATOM     39  H   UNL A   1      28.523  33.414  20.842  1.00  0.00     0.074 H 
ENDBRANCH  30  32
ENDBRANCH  27  30
ENDBRANCH  14  20
ENDBRANCH  11  14
ENDBRANCH   7  10
ENDBRANCH   4   7
ENDBRANCH   1   4
BRANCH   1  40
ATOM     40  C   UNL A   1      31.762  30.379  25.747  1.00  0.00    -0.052 C 
ATOM     41  H   UNL A   1      30.848  29.992  25.347  1.00  0.00     0.027 H 
ATOM     42  H   UNL A   1      32.455  30.686  24.991  1.00  0.00     0.027 H 
BRANCH  40  43
ATOM     43  C   UNL A   1      31.433  31.629  26.564  1.00  0.00    -0.036 C 
ATOM     44  H   UNL A   1      30.767  31.348  27.353  1.00  0.00     0.028 H 
ATOM     45  H   UNL A   1      31.001  32.333  25.884  1.00  0.00     0.028 H 
BRANCH  43  46
ATOM     46  C   UNL A   1      32.646  32.312  27.185  1.00  0.00     0.018 C 
ATOM     47  H   UNL A   1      33.476  32.218  26.515  1.00  0.00     0.049 H 
ATOM     48  H   UNL A   1      32.849  31.835  28.122  1.00  0.00     0.049 H 
BRANCH  46  49
ATOM     49  N   UNL A   1      32.407  33.722  27.441  1.00  0.00    -0.352 N 
ATOM     50  C   UNL A   1      32.990  34.546  28.369  1.00  0.00     0.251 C 
ATOM     51  H   UNL A   1      31.730  34.148  26.866  1.00  0.00     0.163 HD
ATOM     52  O   UNL A   1      32.525  35.662  28.588  1.00  0.00    -0.269 OA
BRANCH  50  53
ATOM     53  C   UNL A   1      34.170  34.079  29.128  1.00  0.00     0.039 A 
ATOM     54  C   UNL A   1      33.974  33.282  30.257  1.00  0.00    -0.049 A 
ATOM     55  C   UNL A   1      35.464  34.423  28.724  1.00  0.00    -0.049 A 
ATOM     56  C   UNL A   1      35.078  32.774  30.944  1.00  0.00    -0.053 A 
ATOM     57  H   UNL A   1      33.018  33.069  30.581  1.00  0.00     0.063 H 
ATOM     58  C   UNL A   1      36.563  33.855  29.364  1.00  0.00    -0.053 A 
ATOM     59  H   UNL A   1      35.605  35.097  27.954  1.00  0.00     0.063 H 
ATOM     60  C   UNL A   1      36.380  33.023  30.479  1.00  0.00    -0.014 A 
ATOM     61  H   UNL A   1      34.936  32.212  31.798  1.00  0.00     0.063 H 
ATOM     62  H   UNL A   1      37.515  34.048  29.018  1.00  0.00     0.063 H 
BRANCH  60  63
ATOM     63  C   UNL A   1      37.559  32.402  31.137  1.00  0.00     0.031 A 
ATOM     64  C   UNL A   1      38.299  31.276  30.469  1.00  0.00     0.074 A 
ATOM     65  C   UNL A   1      37.924  32.815  32.367  1.00  0.00     0.049 A 
ATOM     66  N   UNL A   1      39.311  30.575  30.912  1.00  0.00    -0.248 NA
ATOM     67  C   UNL A   1      37.828  30.871  29.134  1.00  0.00    -0.034 C 
ATOM     68  C   UNL A   1      37.255  33.865  33.139  1.00  0.00    -0.036 A 
ATOM     69  N   UNL A   1      38.939  32.397  33.191  1.00  0.00    -0.354 N 
ATOM     70  C   UNL A   1      39.589  29.641  29.922  1.00  0.00     0.074 A 
ATOM     71  C   UNL A   1      38.610  29.833  28.874  1.00  0.00    -0.034 C 
ATOM     72  H   UNL A   1      37.084  31.286  28.553  1.00  0.00     0.065 H 
ATOM     73  C   UNL A   1      37.891  34.023  34.311  1.00  0.00    -0.036 A 
ATOM     74  H   UNL A   1      36.427  34.398  32.831  1.00  0.00     0.065 H 
ATOM     75  C   UNL A   1      38.982  33.057  34.395  1.00  0.00     0.049 A 
ATOM     76  H   UNL A   1      39.579  31.689  32.942  1.00  0.00     0.167 HD
ATOM     77  C   UNL A   1      40.585  28.724  29.882  1.00  0.00     0.037 A 
ATOM     78  H   UNL A   1      38.531  29.238  28.034  1.00  0.00     0.065 H 
ATOM     79  H   UNL A   1      37.647  34.715  35.036  1.00  0.00     0.065 H 
ATOM     80  C   UNL A   1      39.800  32.894  35.453  1.00  0.00     0.037 A 
ATOM     81  C   UNL A   1      41.572  28.555  30.916  1.00  0.00     0.049 A 
ATOM     82  C   UNL A   1      40.886  31.853  35.384  1.00  0.00     0.074 A 
ATOM     83  C   UNL A   1      42.659  27.698  30.937  1.00  0.00    -0.036 A 
ATOM     84  N   UNL A   1      41.590  29.251  32.116  1.00  0.00    -0.354 N 
ATOM     85  N   UNL A   1      41.188  31.034  34.407  1.00  0.00    -0.248 NA
ATOM     86  C   UNL A   1      41.750  31.719  36.565  1.00  0.00    -0.034 C 
ATOM     87  C   UNL A   1      43.299  27.832  32.172  1.00  0.00    -0.036 A 
ATOM     88  H   UNL A   1      42.948  27.069  30.171  1.00  0.00     0.065 H 
ATOM     89  C   UNL A   1      42.650  28.819  32.896  1.00  0.00     0.049 A 
ATOM     90  H   UNL A   1      40.945  29.948  32.375  1.00  0.00     0.167 HD
ATOM     91  C   UNL A   1      42.293  30.313  34.841  1.00  0.00     0.074 A 
ATOM     92  C   UNL A   1      42.620  30.807  36.161  1.00  0.00    -0.034 C 
ATOM     93  H   UNL A   1      41.694  32.209  37.472  1.00  0.00     0.065 H 
ATOM     94  H   UNL A   1      44.116  27.288  32.490  1.00  0.00     0.065 H 
ATOM     95  C   UNL A   1      42.972  29.328  34.204  1.00  0.00     0.037 A 
ATOM     96  H   UNL A   1      43.429  30.487  36.717  1.00  0.00     0.065 H 
BRANCH  77  97
ATOM     97  C   UNL A   1      40.668  27.827  28.682  1.00  0.00     0.064 A 
ATOM     98  C   UNL A   1      39.947  26.625  28.608  1.00  0.00     0.173 A 
ATOM     99  C   UNL A   1      41.416  28.212  27.558  1.00  0.00     0.173 A 
ATOM    100  F   UNL A   1      39.225  26.205  29.657  1.00  0.00    -0.203 F 
ATOM    101  C   UNL A   1      39.985  25.837  27.460  1.00  0.00     0.198 A 
ATOM    102  C   UNL A   1      41.426  27.437  26.401  1.00  0.00     0.198 A 
ATOM    103  F   UNL A   1      42.120  29.355  27.574  1.00  0.00    -0.203 F 
ATOM    104  F   UNL A   1      39.316  24.676  27.425  1.00  0.00    -0.200 F 
ATOM    105  C   UNL A   1      40.714  26.248  26.355  1.00  0.00     0.200 A 
ATOM    106  F   UNL A   1      42.118  27.846  25.330  1.00  0.00    -0.200 F 
ATOM    107  F   UNL A   1      40.732  25.498  25.245  1.00  0.00    -0.200 F 
ENDBRANCH  77  97
BRANCH  80 108
ATOM    108  C   UNL A   1      39.630  33.732  36.671  1.00  0.00     0.064 A 
ATOM    109  C   UNL A   1      38.838  33.296  37.744  1.00  0.00     0.173 A 
ATOM    110  C   UNL A   1      40.219  35.001  36.771  1.00  0.00     0.173 A 
ATOM    111  F   UNL A   1      38.236  32.099  37.689  1.00  0.00    -0.203 F 
ATOM    112  C   UNL A   1      38.612  34.112  38.851  1.00  0.00     0.198 A 
ATOM    113  C   UNL A   1      40.022  35.801  37.896  1.00  0.00     0.198 A 
ATOM    114  F   UNL A   1      40.990  35.464  35.777  1.00  0.00    -0.203 F 
ATOM    115  F   UNL A   1      37.796  33.698  39.829  1.00  0.00    -0.200 F 
ATOM    116  C   UNL A   1      39.207  35.362  38.928  1.00  0.00     0.200 A 
ATOM    117  F   UNL A   1      40.613  37.001  37.973  1.00  0.00    -0.200 F 
ATOM    118  F   UNL A   1      38.986  36.148  39.990  1.00  0.00    -0.200 F 
ENDBRANCH  80 108
BRANCH  95 119
ATOM    119  C   UNL A   1      44.165  28.747  34.908  1.00  0.00     0.064 A 
ATOM    120  C   UNL A   1      45.446  29.303  34.774  1.00  0.00     0.173 A 
ATOM    121  C   UNL A   1      44.016  27.640  35.758  1.00  0.00     0.173 A 
ATOM    122  F   UNL A   1      45.644  30.353  33.963  1.00  0.00    -0.203 F 
ATOM    123  C   UNL A   1      46.539  28.752  35.438  1.00  0.00     0.198 A 
ATOM    124  C   UNL A   1      45.105  27.115  36.450  1.00  0.00     0.198 A 
ATOM    125  F   UNL A   1      42.812  27.075  35.930  1.00  0.00    -0.203 F 
ATOM    126  F   UNL A   1      47.763  29.266  35.250  1.00  0.00    -0.200 F 
ATOM    127  C   UNL A   1      46.366  27.665  36.282  1.00  0.00     0.200 A 
ATOM    128  F   UNL A   1      44.932  26.075  37.278  1.00  0.00    -0.200 F 
ATOM    129  F   UNL A   1      47.418  27.142  36.927  1.00  0.00    -0.200 F 
ENDBRANCH  95 119
ENDBRANCH  60  63
ENDBRANCH  50  53
ENDBRANCH  46  49
ENDBRANCH  43  46
ENDBRANCH  40  43
ENDBRANCH   1  40
TORSDOF 17
ENDMDL
MODEL 2
REMARK VINA RESULT:     -12.1      0.579      1.724
REMARK SMILES C[C@@H](C(=O)NCCCCCCNC(=O)c1ccc(-c2c3nc(c(-c4c(F)c(F)c(F)c(F)c4F)c4ccc([nH]4)c(-c4c(F)c(F)c(F)c(F)c4F)c4nc(c(-c5c(F)c(F)c(F)c(F)c5F)c5ccc2[nH]5)C=C4)C=C3)cc1)c1ccc(C(=O)c2cccs2)cc1
REMARK SMILES IDX 8 1 7 4 6 7 5 10 3 11 4 12 2 14 1 16 78 20 79 21 90 22 80 23
REMARK SMILES IDX 89 25 81 27 82 30 83 31 84 32 85 33 88 34 86 35 87 37 9 40
REMARK SMILES IDX 10 43 11 46 12 49 13 50 14 52 15 53 16 54 77 55 17 56 76 58
REMARK SMILES IDX 18 60 19 63 20 64 70 65 21 66 75 67 69 68 71 69 22 70 74 71
REMARK SMILES IDX 68 73 67 75 23 77 55 80 35 81 54 82 36 83 39 84 53 85 72 86
REMARK SMILES IDX 37 87 38 89 52 91 73 92 40 95 24 97 25 98 33 99 26 100
REMARK SMILES IDX 27 101 31 102 34 103 28 104 29 105 32 106 30 107 56 108
REMARK SMILES IDX 57 109 65 110 58 111 59 112 63 113 66 114 60 115 61 116
REMARK SMILES IDX 64 117 62 118 41 119 42 120 50 121 43 122 44 123 48 124
REMARK SMILES IDX 51 125 45 126 46 127 49 128 47 129
REMARK H PARENT 8 2 8 3 7 5 7 6 6 8 6 9 5 13 2 15 1 17 1 18 1 19 79 24 90 26
REMARK H PARENT 80 28 89 29 85 36 86 38 87 39 9 41 9 42 10 44 10 45 11 47
REMARK H PARENT 11 48 12 51 16 57 77 59 17 61 76 62 75 72 69 74 71 76 74 78
REMARK H PARENT 68 79 36 88 39 90 72 93 37 94 73 96
REMARK Flexibility Score: inf
ROOT
ATOM      1  C   UNL A   1      31.928  29.380  27.107  1.00  0.00    -0.052 C 
ATOM      2  H   UNL A   1      32.937  29.494  27.442  1.00  0.00     0.027 H 
ATOM      3  H   UNL A   1      31.201  29.575  27.870  1.00  0.00     0.027 H 
ENDROOT
BRANCH   1   4
ATOM      4  C   UNL A   1      31.726  27.916  26.689  1.00  0.00    -0.036 C 
ATOM      5  H   UNL A   1      31.422  27.360  27.551  1.00  0.00     0.028 H 
ATOM      6  H   UNL A   1      30.988  27.917  25.915  1.00  0.00     0.028 H 
BRANCH   4   7
ATOM      7  C   UNL A   1      32.976  27.252  26.105  1.00  0.00     0.017 C 
ATOM      8  H   UNL A   1      33.101  27.569  25.091  1.00  0.00     0.049 H 
ATOM      9  H   UNL A   1      33.826  27.539  26.688  1.00  0.00     0.049 H 
BRANCH   7  10
ATOM     10  N   UNL A   1      32.849  25.813  26.142  1.00  0.00    -0.356 N 
ATOM     11  C   UNL A   1      32.461  24.924  25.186  1.00  0.00     0.227 C 
ATOM     12  O   UNL A   1      32.341  23.759  25.571  1.00  0.00    -0.274 OA
ATOM     13  H   UNL A   1      33.082  25.406  27.007  1.00  0.00     0.163 HD
BRANCH  11  14
ATOM     14  C   UNL A   1      32.261  25.387  23.730  1.00  0.00     0.060 C 
ATOM     15  H   UNL A   1      32.043  24.464  23.237  1.00  0.00     0.045 H 
BRANCH  14  16
ATOM     16  C   UNL A   1      33.509  26.034  23.125  1.00  0.00    -0.049 C 
ATOM     17  H   UNL A   1      33.357  27.091  23.038  1.00  0.00     0.024 H 
ATOM     18  H   UNL A   1      33.692  25.620  22.155  1.00  0.00     0.024 H 
ATOM     19  H   UNL A   1      34.351  25.847  23.758  1.00  0.00     0.024 H 
ENDBRANCH  14  16
BRANCH  14  20
ATOM     20  C   UNL A   1      31.083  26.336  23.496  1.00  0.00    -0.036 A 
ATOM     21  C   UNL A   1      29.810  26.116  24.040  1.00  0.00    -0.058 A 
ATOM     22  C   UNL A   1      31.301  27.531  22.793  1.00  0.00    -0.058 A 
ATOM     23  C   UNL A   1      28.772  27.027  23.834  1.00  0.00    -0.051 A 
ATOM     24  H   UNL A   1      29.638  25.268  24.601  1.00  0.00     0.063 H 
ATOM     25  C   UNL A   1      30.273  28.467  22.623  1.00  0.00    -0.051 A 
ATOM     26  H   UNL A   1      32.233  27.723  22.395  1.00  0.00     0.063 H 
ATOM     27  C   UNL A   1      28.991  28.214  23.127  1.00  0.00     0.023 A 
ATOM     28  H   UNL A   1      27.832  26.823  24.210  1.00  0.00     0.063 H 
ATOM     29  H   UNL A   1      30.462  29.349  22.124  1.00  0.00     0.063 H 
BRANCH  27  30
ATOM     30  C   UNL A   1      27.845  29.175  22.999  1.00  0.00     0.202 C 
ATOM     31  O   UNL A   1      26.705  28.752  23.187  1.00  0.00    -0.288 OA
BRANCH  30  32
ATOM     32  C   UNL A   1      28.116  30.569  22.708  1.00  0.00     0.075 A 
ATOM     33  C   UNL A   1      28.476  31.597  23.558  1.00  0.00    -0.040 A 
ATOM     34  S   UNL A   1      28.029  31.090  21.081  1.00  0.00    -0.140 S 
ATOM     35  C   UNL A   1      28.622  32.836  22.867  1.00  0.00    -0.051 A 
ATOM     36  H   UNL A   1      28.622  31.482  24.573  1.00  0.00     0.064 H 
ATOM     37  C   UNL A   1      28.402  32.701  21.514  1.00  0.00    -0.009 A 
ATOM     38  H   UNL A   1      28.864  33.727  23.327  1.00  0.00     0.063 H 
ATOM     39  H   UNL A   1      28.457  33.482  20.841  1.00  0.00     0.074 H 
ENDBRANCH  30  32
ENDBRANCH  27  30
ENDBRANCH  14  20
ENDBRANCH  11  14
ENDBRANCH   7  10
ENDBRANCH   4   7
ENDBRANCH   1   4
BRANCH   1  40
ATOM     40  C   UNL A   1      31.673  30.411  26.004  1.00  0.00    -0.052 C 
ATOM     41  H   UNL A   1      30.815  30.098  25.447  1.00  0.00     0.027 H 
ATOM     42  H   UNL A   1      32.567  30.448  25.415  1.00  0.00     0.027 H 
BRANCH  40  43
ATOM     43  C   UNL A   1      31.425  31.835  26.502  1.00  0.00    -0.036 C 
ATOM     44  H   UNL A   1      30.582  31.816  27.161  1.00  0.00     0.028 H 
ATOM     45  H   UNL A   1      31.263  32.438  25.634  1.00  0.00     0.028 H 
BRANCH  43  46
ATOM     46  C   UNL A   1      32.600  32.454  27.250  1.00  0.00     0.018 C 
ATOM     47  H   UNL A   1      33.480  32.363  26.647  1.00  0.00     0.049 H 
ATOM     48  H   UNL A   1      32.712  31.933  28.178  1.00  0.00     0.049 H 
BRANCH  46  49
ATOM     49  N   UNL A   1      32.379  33.859  27.548  1.00  0.00    -0.352 N 
ATOM     50  C   UNL A   1      32.979  34.650  28.493  1.00  0.00     0.251 C 
ATOM     51  H   UNL A   1      31.701  34.308  26.990  1.00  0.00     0.163 HD
ATOM     52  O   UNL A   1      32.528  35.765  28.747  1.00  0.00    -0.269 OA
BRANCH  50  53
ATOM     53  C   UNL A   1      34.160  34.150  29.228  1.00  0.00     0.039 A 
ATOM     54  C   UNL A   1      33.963  33.387  30.381  1.00  0.00    -0.049 A 
ATOM     55  C   UNL A   1      35.455  34.428  28.780  1.00  0.00    -0.049 A 
ATOM     56  C   UNL A   1      35.065  32.847  31.047  1.00  0.00    -0.053 A 
ATOM     57  H   UNL A   1      33.009  33.223  30.737  1.00  0.00     0.063 H 
ATOM     58  C   UNL A   1      36.546  33.828  29.401  1.00  0.00    -0.053 A 
ATOM     59  H   UNL A   1      35.601  35.078  27.991  1.00  0.00     0.063 H 
ATOM     60  C   UNL A   1      36.362  33.029  30.540  1.00  0.00    -0.014 A 
ATOM     61  H   UNL A   1      34.924  32.311  31.918  1.00  0.00     0.063 H 
ATOM     62  H   UNL A   1      37.495  33.971  29.023  1.00  0.00     0.063 H 
BRANCH  60  63
ATOM     63  C   UNL A   1      37.532  32.372  31.178  1.00  0.00     0.031 A 
ATOM     64  C   UNL A   1      38.249  31.249  30.481  1.00  0.00     0.074 A 
ATOM     65  C   UNL A   1      37.910  32.751  32.415  1.00  0.00     0.049 A 
ATOM     66  N   UNL A   1      39.250  30.519  30.904  1.00  0.00    -0.248 NA
ATOM     67  C   UNL A   1      37.765  30.882  29.140  1.00  0.00    -0.034 C 
ATOM     68  C   UNL A   1      37.264  33.795  33.214  1.00  0.00    -0.036 A 
ATOM     69  N   UNL A   1      38.921  32.296  33.224  1.00  0.00    -0.354 N 
ATOM     70  C   UNL A   1      39.507  29.604  29.891  1.00  0.00     0.074 A 
ATOM     71  C   UNL A   1      38.527  29.836  28.853  1.00  0.00    -0.034 C 
ATOM     72  H   UNL A   1      37.025  31.324  28.572  1.00  0.00     0.065 H 
ATOM     73  C   UNL A   1      37.907  33.916  34.386  1.00  0.00    -0.036 A 
ATOM     74  H   UNL A   1      36.444  34.350  32.921  1.00  0.00     0.065 H 
ATOM     75  C   UNL A   1      38.982  32.929  34.442  1.00  0.00     0.049 A 
ATOM     76  H   UNL A   1      39.547  31.583  32.956  1.00  0.00     0.167 HD
ATOM     77  C   UNL A   1      40.485  28.669  29.826  1.00  0.00     0.037 A 
ATOM     78  H   UNL A   1      38.433  29.262  28.000  1.00  0.00     0.065 H 
ATOM     79  H   UNL A   1      37.680  34.596  35.127  1.00  0.00     0.065 H 
ATOM     80  C   UNL A   1      39.801  32.727  35.492  1.00  0.00     0.037 A 
ATOM     81  C   UNL A   1      41.474  28.460  30.851  1.00  0.00     0.049 A 
ATOM     82  C   UNL A   1      40.868  31.669  35.395  1.00  0.00     0.074 A 
ATOM     83  C   UNL A   1      42.545  27.583  30.848  1.00  0.00    -0.036 A 
ATOM     84  N   UNL A   1      41.510  29.128  32.066  1.00  0.00    -0.354 N 
ATOM     85  N   UNL A   1      41.150  30.866  34.399  1.00  0.00    -0.248 NA
ATOM     86  C   UNL A   1      41.735  31.493  36.569  1.00  0.00    -0.034 C 
ATOM     87  C   UNL A   1      43.193  27.678  32.082  1.00  0.00    -0.036 A 
ATOM     88  H   UNL A   1      42.819  26.967  30.067  1.00  0.00     0.065 H 
ATOM     89  C   UNL A   1      42.566  28.660  32.831  1.00  0.00     0.049 A 
ATOM     90  H   UNL A   1      40.878  29.831  32.344  1.00  0.00     0.167 HD
ATOM     91  C   UNL A   1      42.244  30.116  34.811  1.00  0.00     0.074 A 
ATOM     92  C   UNL A   1      42.586  30.574  36.140  1.00  0.00    -0.034 C 
ATOM     93  H   UNL A   1      41.692  31.963  37.486  1.00  0.00     0.065 H 
ATOM     94  H   UNL A   1      44.002  27.113  32.384  1.00  0.00     0.065 H 
ATOM     95  C   UNL A   1      42.902  29.134  34.149  1.00  0.00     0.037 A 
ATOM     96  H   UNL A   1      43.392  30.228  36.684  1.00  0.00     0.065 H 
BRANCH  77  97
ATOM     97  C   UNL A   1      40.547  27.798  28.606  1.00  0.00     0.064 A 
ATOM     98  C   UNL A   1      41.319  28.150  27.487  1.00  0.00     0.173 A 
ATOM     99  C   UNL A   1      39.892  26.557  28.586  1.00  0.00     0.173 A 
ATOM    100  F   UNL A   1      41.956  29.329  27.450  1.00  0.00    -0.203 F 
ATOM    101  C   UNL A   1      41.418  27.299  26.389  1.00  0.00     0.198 A 
ATOM    102  C   UNL A   1      40.019  25.695  27.499  1.00  0.00     0.198 A 
ATOM    103  F   UNL A   1      39.146  26.169  29.632  1.00  0.00    -0.203 F 
ATOM    104  F   UNL A   1      42.132  27.671  25.318  1.00  0.00    -0.200 F 
ATOM    105  C   UNL A   1      40.778  26.068  26.400  1.00  0.00     0.200 A 
ATOM    106  F   UNL A   1      39.414  24.500  27.520  1.00  0.00    -0.200 F 
ATOM    107  F   UNL A   1      40.892  25.243  25.352  1.00  0.00    -0.200 F 
ENDBRANCH  77  97
BRANCH  80 108
ATOM    108  C   UNL A   1      39.651  33.540  36.730  1.00  0.00     0.064 A 
ATOM    109  C   UNL A   1      38.818  33.119  37.776  1.00  0.00     0.173 A 
ATOM    110  C   UNL A   1      40.304  34.774  36.875  1.00  0.00     0.173 A 
ATOM    111  F   UNL A   1      38.155  31.957  37.678  1.00  0.00    -0.203 F 
ATOM    112  C   UNL A   1      38.614  33.916  38.901  1.00  0.00     0.198 A 
ATOM    113  C   UNL A   1      40.127  35.553  38.017  1.00  0.00     0.198 A 
ATOM    114  F   UNL A   1      41.118  35.222  35.908  1.00  0.00    -0.203 F 
ATOM    115  F   UNL A   1      37.759  33.520  39.853  1.00  0.00    -0.200 F 
ATOM    116  C   UNL A   1      39.271  35.130  39.022  1.00  0.00     0.200 A 
ATOM    117  F   UNL A   1      40.779  36.717  38.138  1.00  0.00    -0.200 F 
ATOM    118  F   UNL A   1      39.071  35.899  40.101  1.00  0.00    -0.200 F 
ENDBRANCH  80 108
BRANCH  95 119
ATOM    119  C   UNL A   1      44.088  28.516  34.834  1.00  0.00     0.064 A 
ATOM    120  C   UNL A   1      43.966  27.368  35.631  1.00  0.00     0.173 A 
ATOM    121  C   UNL A   1      45.370  29.060  34.661  1.00  0.00     0.173 A 
ATOM    122  F   UNL A   1      42.760  26.817  35.841  1.00  0.00    -0.203 F 
ATOM    123  C   UNL A   1      45.077  26.807  36.256  1.00  0.00     0.198 A 
ATOM    124  C   UNL A   1      46.484  28.475  35.256  1.00  0.00     0.198 A 
ATOM    125  F   UNL A   1      45.545  30.152  33.902  1.00  0.00    -0.203 F 
ATOM    126  F   UNL A   1      44.927  25.744  37.058  1.00  0.00    -0.200 F 
ATOM    127  C   UNL A   1      46.336  27.356  36.060  1.00  0.00     0.200 A 
ATOM    128  F   UNL A   1      47.702  28.997  35.052  1.00  0.00    -0.200 F 
ATOM    129  F   UNL A   1      47.405  26.810  36.655  1.00  0.00    -0.200 F 
ENDBRANCH  95 119
ENDBRANCH  60  63
ENDBRANCH  50  53
ENDBRANCH  46  49
ENDBRANCH  43  46
ENDBRANCH  40  43
ENDBRANCH   1  40
TORSDOF 17
ENDMDL
MODEL 3
REMARK VINA RESULT:     -12.1      0.662      7.390
REMARK SMILES C[C@@H](C(=O)NCCCCCCNC(=O)c1ccc(-c2c3nc(c(-c4c(F)c(F)c(F)c(F)c4F)c4ccc([nH]4)c(-c4c(F)c(F)c(F)c(F)c4F)c4nc(c(-c5c(F)c(F)c(F)c(F)c5F)c5ccc2[nH]5)C=C4)C=C3)cc1)c1ccc(C(=O)c2cccs2)cc1
REMARK SMILES IDX 8 1 7 4 6 7 5 10 3 11 4 12 2 14 1 16 78 20 79 21 90 22 80 23
REMARK SMILES IDX 89 25 81 27 82 30 83 31 84 32 85 33 88 34 86 35 87 37 9 40
REMARK SMILES IDX 10 43 11 46 12 49 13 50 14 52 15 53 16 54 77 55 17 56 76 58
REMARK SMILES IDX 18 60 19 63 20 64 70 65 21 66 75 67 69 68 71 69 22 70 74 71
REMARK SMILES IDX 68 73 67 75 23 77 55 80 35 81 54 82 36 83 39 84 53 85 72 86
REMARK SMILES IDX 37 87 38 89 52 91 73 92 40 95 24 97 25 98 33 99 26 100
REMARK SMILES IDX 27 101 31 102 34 103 28 104 29 105 32 106 30 107 56 108
REMARK SMILES IDX 57 109 65 110 58 111 59 112 63 113 66 114 60 115 61 116
REMARK SMILES IDX 64 117 62 118 41 119 42 120 50 121 43 122 44 123 48 124
REMARK SMILES IDX 51 125 45 126 46 127 49 128 47 129
REMARK H PARENT 8 2 8 3 7 5 7 6 6 8 6 9 5 13 2 15 1 17 1 18 1 19 79 24 90 26
REMARK H PARENT 80 28 89 29 85 36 86 38 87 39 9 41 9 42 10 44 10 45 11 47
REMARK H PARENT 11 48 12 51 16 57 77 59 17 61 76 62 75 72 69 74 71 76 74 78
REMARK H PARENT 68 79 36 88 39 90 72 93 37 94 73 96
REMARK Flexibility Score: inf
ROOT
ATOM      1  C   UNL A   1      32.158  29.483  26.926  1.00  0.00    -0.052 C 
ATOM      2  H   UNL A   1      33.218  29.625  26.973  1.00  0.00     0.027 H 
ATOM      3  H   UNL A   1      31.662  29.664  27.857  1.00  0.00     0.027 H 
ENDROOT
BRANCH   1   4
ATOM      4  C   UNL A   1      31.890  28.011  26.578  1.00  0.00    -0.036 C 
ATOM      5  H   UNL A   1      31.608  27.501  27.475  1.00  0.00     0.028 H 
ATOM      6  H   UNL A   1      31.117  28.007  25.838  1.00  0.00     0.028 H 
BRANCH   4   7
ATOM      7  C   UNL A   1      33.088  27.281  25.966  1.00  0.00     0.017 C 
ATOM      8  H   UNL A   1      33.165  27.537  24.930  1.00  0.00     0.049 H 
ATOM      9  H   UNL A   1      33.976  27.577  26.485  1.00  0.00     0.049 H 
BRANCH   7  10
ATOM     10  N   UNL A   1      32.929  25.850  26.093  1.00  0.00    -0.356 N 
ATOM     11  C   UNL A   1      32.474  24.919  25.210  1.00  0.00     0.227 C 
ATOM     12  O   UNL A   1      32.344  23.782  25.667  1.00  0.00    -0.274 OA
ATOM     13  H   UNL A   1      33.193  25.487  26.968  1.00  0.00     0.163 HD
BRANCH  11  14
ATOM     14  C   UNL A   1      32.214  25.304  23.740  1.00  0.00     0.060 C 
ATOM     15  H   UNL A   1      31.961  24.359  23.310  1.00  0.00     0.045 H 
BRANCH  14  16
ATOM     16  C   UNL A   1      33.443  25.896  23.044  1.00  0.00    -0.049 C 
ATOM     17  H   UNL A   1      33.332  26.958  22.967  1.00  0.00     0.024 H 
ATOM     18  H   UNL A   1      33.537  25.475  22.065  1.00  0.00     0.024 H 
ATOM     19  H   UNL A   1      34.319  25.670  23.616  1.00  0.00     0.024 H 
ENDBRANCH  14  16
BRANCH  14  20
ATOM     20  C   UNL A   1      31.040  26.258  23.505  1.00  0.00    -0.036 A 
ATOM     21  C   UNL A   1      29.771  26.052  24.062  1.00  0.00    -0.058 A 
ATOM     22  C   UNL A   1      31.260  27.444  22.788  1.00  0.00    -0.058 A 
ATOM     23  C   UNL A   1      28.737  26.968  23.855  1.00  0.00    -0.051 A 
ATOM     24  H   UNL A   1      29.598  25.211  24.633  1.00  0.00     0.063 H 
ATOM     25  C   UNL A   1      30.237  28.384  22.616  1.00  0.00    -0.051 A 
ATOM     26  H   UNL A   1      32.191  27.626  22.381  1.00  0.00     0.063 H 
ATOM     27  C   UNL A   1      28.957  28.145  23.133  1.00  0.00     0.023 A 
ATOM     28  H   UNL A   1      27.799  26.773  24.240  1.00  0.00     0.063 H 
ATOM     29  H   UNL A   1      30.427  29.260  22.106  1.00  0.00     0.063 H 
BRANCH  27  30
ATOM     30  C   UNL A   1      27.817  29.112  23.005  1.00  0.00     0.202 C 
ATOM     31  O   UNL A   1      26.672  28.687  23.156  1.00  0.00    -0.288 OA
BRANCH  30  32
ATOM     32  C   UNL A   1      28.097  30.512  22.756  1.00  0.00     0.075 A 
ATOM     33  C   UNL A   1      28.437  31.517  23.640  1.00  0.00    -0.040 A 
ATOM     34  S   UNL A   1      28.051  31.076  21.141  1.00  0.00    -0.140 S 
ATOM     35  C   UNL A   1      28.602  32.773  22.986  1.00  0.00    -0.051 A 
ATOM     36  H   UNL A   1      28.558  31.376  24.656  1.00  0.00     0.064 H 
ATOM     37  C   UNL A   1      28.415  32.674  21.625  1.00  0.00    -0.009 A 
ATOM     38  H   UNL A   1      28.835  33.652  23.474  1.00  0.00     0.063 H 
ATOM     39  H   UNL A   1      28.488  33.472  20.974  1.00  0.00     0.074 H 
ENDBRANCH  30  32
ENDBRANCH  27  30
ENDBRANCH  14  20
ENDBRANCH  11  14
ENDBRANCH   7  10
ENDBRANCH   4   7
ENDBRANCH   1   4
BRANCH   1  40
ATOM     40  C   UNL A   1      31.587  30.498  25.933  1.00  0.00    -0.052 C 
ATOM     41  H   UNL A   1      30.640  30.135  25.592  1.00  0.00     0.027 H 
ATOM     42  H   UNL A   1      32.309  30.592  25.149  1.00  0.00     0.027 H 
BRANCH  40  43
ATOM     43  C   UNL A   1      31.382  31.903  26.501  1.00  0.00    -0.036 C 
ATOM     44  H   UNL A   1      30.584  31.864  27.212  1.00  0.00     0.028 H 
ATOM     45  H   UNL A   1      31.168  32.540  25.669  1.00  0.00     0.028 H 
BRANCH  43  46
ATOM     46  C   UNL A   1      32.608  32.488  27.192  1.00  0.00     0.018 C 
ATOM     47  H   UNL A   1      33.451  32.393  26.539  1.00  0.00     0.049 H 
ATOM     48  H   UNL A   1      32.762  31.947  28.103  1.00  0.00     0.049 H 
BRANCH  46  49
ATOM     49  N   UNL A   1      32.429  33.891  27.527  1.00  0.00    -0.352 N 
ATOM     50  C   UNL A   1      33.053  34.638  28.493  1.00  0.00     0.251 C 
ATOM     51  H   UNL A   1      31.766  34.374  26.983  1.00  0.00     0.163 HD
ATOM     52  O   UNL A   1      32.635  35.758  28.777  1.00  0.00    -0.269 OA
BRANCH  50  53
ATOM     53  C   UNL A   1      34.218  34.083  29.214  1.00  0.00     0.039 A 
ATOM     54  C   UNL A   1      33.998  33.274  30.330  1.00  0.00    -0.049 A 
ATOM     55  C   UNL A   1      35.522  34.355  28.788  1.00  0.00    -0.049 A 
ATOM     56  C   UNL A   1      35.083  32.683  30.980  1.00  0.00    -0.053 A 
ATOM     57  H   UNL A   1      33.037  33.113  30.672  1.00  0.00     0.063 H 
ATOM     58  C   UNL A   1      36.596  33.707  29.389  1.00  0.00    -0.053 A 
ATOM     59  H   UNL A   1      35.686  35.036  28.029  1.00  0.00     0.063 H 
ATOM     60  C   UNL A   1      36.388  32.862  30.490  1.00  0.00    -0.014 A 
ATOM     61  H   UNL A   1      34.926  32.112  31.825  1.00  0.00     0.063 H 
ATOM     62  H   UNL A   1      37.551  33.849  29.025  1.00  0.00     0.063 H 
BRANCH  60  63
ATOM     63  C   UNL A   1      37.540  32.155  31.107  1.00  0.00     0.031 A 
ATOM     64  C   UNL A   1      38.030  32.546  32.474  1.00  0.00     0.074 A 
ATOM     65  C   UNL A   1      38.181  31.199  30.406  1.00  0.00     0.049 A 
ATOM     66  N   UNL A   1      39.052  32.083  33.149  1.00  0.00    -0.248 NA
ATOM     67  C   UNL A   1      37.287  33.610  33.167  1.00  0.00    -0.034 C 
ATOM     68  C   UNL A   1      37.831  30.765  29.051  1.00  0.00    -0.036 A 
ATOM     69  N   UNL A   1      39.269  30.426  30.728  1.00  0.00    -0.354 N 
ATOM     70  C   UNL A   1      39.082  32.805  34.335  1.00  0.00     0.074 A 
ATOM     71  C   UNL A   1      38.006  33.769  34.270  1.00  0.00    -0.034 C 
ATOM     72  H   UNL A   1      36.430  34.103  32.873  1.00  0.00     0.065 H 
ATOM     73  C   UNL A   1      38.671  29.791  28.669  1.00  0.00    -0.036 A 
ATOM     74  H   UNL A   1      37.061  31.148  28.482  1.00  0.00     0.065 H 
ATOM     75  C   UNL A   1      39.647  29.561  29.730  1.00  0.00     0.049 A 
ATOM     76  H   UNL A   1      39.735  30.485  31.595  1.00  0.00     0.167 HD
ATOM     77  C   UNL A   1      39.918  32.660  35.390  1.00  0.00     0.037 A 
ATOM     78  H   UNL A   1      37.823  34.489  34.988  1.00  0.00     0.065 H 
ATOM     79  H   UNL A   1      38.633  29.285  27.771  1.00  0.00     0.065 H 
ATOM     80  C   UNL A   1      40.674  28.691  29.671  1.00  0.00     0.037 A 
ATOM     81  C   UNL A   1      40.971  31.681  35.460  1.00  0.00     0.049 A 
ATOM     82  C   UNL A   1      41.596  28.565  30.855  1.00  0.00     0.074 A 
ATOM     83  C   UNL A   1      41.828  31.412  36.514  1.00  0.00    -0.036 A 
ATOM     84  N   UNL A   1      41.317  30.814  34.434  1.00  0.00    -0.354 N 
ATOM     85  N   UNL A   1      41.563  29.197  32.002  1.00  0.00    -0.248 NA
ATOM     86  C   UNL A   1      42.697  27.599  30.736  1.00  0.00    -0.034 C 
ATOM     87  C   UNL A   1      42.729  30.426  36.105  1.00  0.00    -0.036 A 
ATOM     88  H   UNL A   1      41.804  31.862  37.442  1.00  0.00     0.065 H 
ATOM     89  C   UNL A   1      42.394  30.033  34.819  1.00  0.00     0.049 A 
ATOM     90  H   UNL A   1      40.864  30.762  33.562  1.00  0.00     0.167 HD
ATOM     91  C   UNL A   1      42.613  28.684  32.752  1.00  0.00     0.074 A 
ATOM     92  C   UNL A   1      43.252  27.674  31.936  1.00  0.00    -0.034 C 
ATOM     93  H   UNL A   1      42.968  27.015  29.930  1.00  0.00     0.065 H 
ATOM     94  H   UNL A   1      43.511  30.053  36.665  1.00  0.00     0.065 H 
ATOM     95  C   UNL A   1      43.013  29.022  34.001  1.00  0.00     0.037 A 
ATOM     96  H   UNL A   1      44.040  27.086  32.251  1.00  0.00     0.065 H 
BRANCH  77  97
ATOM     97  C   UNL A   1      39.735  33.575  36.565  1.00  0.00     0.064 A 
ATOM     98  C   UNL A   1      40.341  34.840  36.617  1.00  0.00     0.173 A 
ATOM     99  C   UNL A   1      38.877  33.216  37.617  1.00  0.00     0.173 A 
ATOM    100  F   UNL A   1      41.178  35.228  35.644  1.00  0.00    -0.203 F 
ATOM    101  C   UNL A   1      40.108  35.703  37.685  1.00  0.00     0.198 A 
ATOM    102  C   UNL A   1      38.622  34.095  38.667  1.00  0.00     0.198 A 
ATOM    103  F   UNL A   1      38.267  32.021  37.615  1.00  0.00    -0.203 F 
ATOM    104  F   UNL A   1      40.725  36.892  37.729  1.00  0.00    -0.200 F 
ATOM    105  C   UNL A   1      39.240  35.335  38.702  1.00  0.00     0.200 A 
ATOM    106  F   UNL A   1      37.770  33.744  39.640  1.00  0.00    -0.200 F 
ATOM    107  F   UNL A   1      39.001  36.176  39.718  1.00  0.00    -0.200 F 
ENDBRANCH  77  97
BRANCH  80 108
ATOM    108  C   UNL A   1      40.891  27.866  28.451  1.00  0.00     0.064 A 
ATOM    109  C   UNL A   1      41.679  28.336  27.390  1.00  0.00     0.173 A 
ATOM    110  C   UNL A   1      40.282  26.611  28.301  1.00  0.00     0.173 A 
ATOM    111  F   UNL A   1      42.267  29.539  27.475  1.00  0.00    -0.203 F 
ATOM    112  C   UNL A   1      41.819  27.601  26.214  1.00  0.00     0.198 A 
ATOM    113  C   UNL A   1      40.452  25.861  27.139  1.00  0.00     0.198 A 
ATOM    114  F   UNL A   1      39.523  26.110  29.287  1.00  0.00    -0.203 F 
ATOM    115  F   UNL A   1      42.521  28.106  25.192  1.00  0.00    -0.200 F 
ATOM    116  C   UNL A   1      41.209  26.363  26.092  1.00  0.00     0.200 A 
ATOM    117  F   UNL A   1      39.875  24.656  27.032  1.00  0.00    -0.200 F 
ATOM    118  F   UNL A   1      41.338  25.658  24.959  1.00  0.00    -0.200 F 
ENDBRANCH  80 108
BRANCH  95 119
ATOM    119  C   UNL A   1      44.172  28.263  34.582  1.00  0.00     0.064 A 
ATOM    120  C   UNL A   1      45.491  28.728  34.471  1.00  0.00     0.173 A 
ATOM    121  C   UNL A   1      43.955  27.071  35.292  1.00  0.00     0.173 A 
ATOM    122  F   UNL A   1      45.754  29.855  33.791  1.00  0.00    -0.203 F 
ATOM    123  C   UNL A   1      46.552  28.013  35.020  1.00  0.00     0.198 A 
ATOM    124  C   UNL A   1      45.015  26.378  35.871  1.00  0.00     0.198 A 
ATOM    125  F   UNL A   1      42.713  26.586  35.435  1.00  0.00    -0.203 F 
ATOM    126  F   UNL A   1      47.809  28.448  34.852  1.00  0.00    -0.200 F 
ATOM    127  C   UNL A   1      46.312  26.844  35.727  1.00  0.00     0.200 A 
ATOM    128  F   UNL A   1      44.779  25.257  36.568  1.00  0.00    -0.200 F 
ATOM    129  F   UNL A   1      47.334  26.161  36.261  1.00  0.00    -0.200 F 
ENDBRANCH  95 119
ENDBRANCH  60  63
ENDBRANCH  50  53
ENDBRANCH  46  49
ENDBRANCH  43  46
ENDBRANCH  40  43
ENDBRANCH   1  40
TORSDOF 17
ENDMDL
MODEL 4
REMARK VINA RESULT:     -12.0      0.484      7.469
REMARK SMILES C[C@@H](C(=O)NCCCCCCNC(=O)c1ccc(-c2c3nc(c(-c4c(F)c(F)c(F)c(F)c4F)c4ccc([nH]4)c(-c4c(F)c(F)c(F)c(F)c4F)c4nc(c(-c5c(F)c(F)c(F)c(F)c5F)c5ccc2[nH]5)C=C4)C=C3)cc1)c1ccc(C(=O)c2cccs2)cc1
REMARK SMILES IDX 8 1 7 4 6 7 5 10 3 11 4 12 2 14 1 16 78 20 79 21 90 22 80 23
REMARK SMILES IDX 89 25 81 27 82 30 83 31 84 32 85 33 88 34 86 35 87 37 9 40
REMARK SMILES IDX 10 43 11 46 12 49 13 50 14 52 15 53 16 54 77 55 17 56 76 58
REMARK SMILES IDX 18 60 19 63 20 64 70 65 21 66 75 67 69 68 71 69 22 70 74 71
REMARK SMILES IDX 68 73 67 75 23 77 55 80 35 81 54 82 36 83 39 84 53 85 72 86
REMARK SMILES IDX 37 87 38 89 52 91 73 92 40 95 24 97 25 98 33 99 26 100
REMARK SMILES IDX 27 101 31 102 34 103 28 104 29 105 32 106 30 107 56 108
REMARK SMILES IDX 57 109 65 110 58 111 59 112 63 113 66 114 60 115 61 116
REMARK SMILES IDX 64 117 62 118 41 119 42 120 50 121 43 122 44 123 48 124
REMARK SMILES IDX 51 125 45 126 46 127 49 128 47 129
REMARK H PARENT 8 2 8 3 7 5 7 6 6 8 6 9 5 13 2 15 1 17 1 18 1 19 79 24 90 26
REMARK H PARENT 80 28 89 29 85 36 86 38 87 39 9 41 9 42 10 44 10 45 11 47
REMARK H PARENT 11 48 12 51 16 57 77 59 17 61 76 62 75 72 69 74 71 76 74 78
REMARK H PARENT 68 79 36 88 39 90 72 93 37 94 73 96
REMARK Flexibility Score: inf
ROOT
ATOM      1  C   UNL A   1      32.388  29.281  26.358  1.00  0.00    -0.052 C 
ATOM      2  H   UNL A   1      32.780  29.644  27.285  1.00  0.00     0.027 H 
ATOM      3  H   UNL A   1      31.682  28.485  26.476  1.00  0.00     0.027 H 
ENDROOT
BRANCH   1   4
ATOM      4  C   UNL A   1      33.552  28.701  25.541  1.00  0.00    -0.036 C 
ATOM      5  H   UNL A   1      33.421  28.988  24.519  1.00  0.00     0.028 H 
ATOM      6  H   UNL A   1      34.452  29.091  25.970  1.00  0.00     0.028 H 
BRANCH   4   7
ATOM      7  C   UNL A   1      33.662  27.176  25.600  1.00  0.00     0.017 C 
ATOM      8  H   UNL A   1      34.419  26.904  26.307  1.00  0.00     0.049 H 
ATOM      9  H   UNL A   1      32.718  26.771  25.899  1.00  0.00     0.049 H 
BRANCH   7  10
ATOM     10  N   UNL A   1      34.010  26.641  24.303  1.00  0.00    -0.356 N 
ATOM     11  C   UNL A   1      33.380  25.730  23.512  1.00  0.00     0.227 C 
ATOM     12  O   UNL A   1      34.002  25.391  22.503  1.00  0.00    -0.274 OA
ATOM     13  H   UNL A   1      34.848  26.996  23.928  1.00  0.00     0.163 HD
BRANCH  11  14
ATOM     14  C   UNL A   1      31.964  25.239  23.870  1.00  0.00     0.060 C 
ATOM     15  H   UNL A   1      32.062  25.037  24.915  1.00  0.00     0.045 H 
BRANCH  14  16
ATOM     16  C   UNL A   1      31.555  23.971  23.116  1.00  0.00    -0.049 C 
ATOM     17  H   UNL A   1      30.867  24.225  22.336  1.00  0.00     0.024 H 
ATOM     18  H   UNL A   1      31.088  23.287  23.794  1.00  0.00     0.024 H 
ATOM     19  H   UNL A   1      32.423  23.514  22.690  1.00  0.00     0.024 H 
ENDBRANCH  14  16
BRANCH  14  20
ATOM     20  C   UNL A   1      30.844  26.268  23.694  1.00  0.00    -0.036 A 
ATOM     21  C   UNL A   1      31.027  27.482  23.018  1.00  0.00    -0.058 A 
ATOM     22  C   UNL A   1      29.551  25.949  24.135  1.00  0.00    -0.058 A 
ATOM     23  C   UNL A   1      29.969  28.377  22.845  1.00  0.00    -0.051 A 
ATOM     24  H   UNL A   1      31.958  27.718  22.642  1.00  0.00     0.063 H 
ATOM     25  C   UNL A   1      28.479  26.825  23.923  1.00  0.00    -0.051 A 
ATOM     26  H   UNL A   1      29.387  25.054  24.622  1.00  0.00     0.063 H 
ATOM     27  C   UNL A   1      28.682  28.058  23.292  1.00  0.00     0.023 A 
ATOM     28  H   UNL A   1      30.138  29.283  22.381  1.00  0.00     0.063 H 
ATOM     29  H   UNL A   1      27.532  26.559  24.234  1.00  0.00     0.063 H 
BRANCH  27  30
ATOM     30  C   UNL A   1      27.581  29.040  23.015  1.00  0.00     0.202 C 
ATOM     31  O   UNL A   1      26.417  28.655  23.124  1.00  0.00    -0.288 OA
BRANCH  30  32
ATOM     32  C   UNL A   1      27.917  30.408  22.678  1.00  0.00     0.075 A 
ATOM     33  C   UNL A   1      28.202  31.479  23.503  1.00  0.00    -0.040 A 
ATOM     34  S   UNL A   1      28.029  30.833  21.024  1.00  0.00    -0.140 S 
ATOM     35  C   UNL A   1      28.456  32.672  22.764  1.00  0.00    -0.051 A 
ATOM     36  H   UNL A   1      28.228  31.422  24.533  1.00  0.00     0.064 H 
ATOM     37  C   UNL A   1      28.389  32.460  21.404  1.00  0.00    -0.009 A 
ATOM     38  H   UNL A   1      28.665  33.585  23.196  1.00  0.00     0.063 H 
ATOM     39  H   UNL A   1      28.539  33.199  20.699  1.00  0.00     0.074 H 
ENDBRANCH  30  32
ENDBRANCH  27  30
ENDBRANCH  14  20
ENDBRANCH  11  14
ENDBRANCH   7  10
ENDBRANCH   4   7
ENDBRANCH   1   4
BRANCH   1  40
ATOM     40  C   UNL A   1      31.630  30.427  25.682  1.00  0.00    -0.052 C 
ATOM     41  H   UNL A   1      30.674  30.058  25.372  1.00  0.00     0.027 H 
ATOM     42  H   UNL A   1      32.241  30.752  24.865  1.00  0.00     0.027 H 
BRANCH  40  43
ATOM     43  C   UNL A   1      31.403  31.654  26.566  1.00  0.00    -0.036 C 
ATOM     44  H   UNL A   1      30.792  31.362  27.394  1.00  0.00     0.028 H 
ATOM     45  H   UNL A   1      30.942  32.395  25.947  1.00  0.00     0.028 H 
BRANCH  43  46
ATOM     46  C   UNL A   1      32.680  32.279  27.114  1.00  0.00     0.018 C 
ATOM     47  H   UNL A   1      33.454  32.185  26.380  1.00  0.00     0.049 H 
ATOM     48  H   UNL A   1      32.938  31.764  28.017  1.00  0.00     0.049 H 
BRANCH  46  49
ATOM     49  N   UNL A   1      32.506  33.686  27.435  1.00  0.00    -0.352 N 
ATOM     50  C   UNL A   1      33.120  34.437  28.404  1.00  0.00     0.251 C 
ATOM     51  H   UNL A   1      31.854  34.169  26.875  1.00  0.00     0.163 HD
ATOM     52  O   UNL A   1      32.706  35.563  28.672  1.00  0.00    -0.269 OA
BRANCH  50  53
ATOM     53  C   UNL A   1      34.270  33.880  29.147  1.00  0.00     0.039 A 
ATOM     54  C   UNL A   1      34.027  33.012  30.213  1.00  0.00    -0.049 A 
ATOM     55  C   UNL A   1      35.582  34.210  28.791  1.00  0.00    -0.049 A 
ATOM     56  C   UNL A   1      35.102  32.421  30.880  1.00  0.00    -0.053 A 
ATOM     57  H   UNL A   1      33.059  32.808  30.505  1.00  0.00     0.063 H 
ATOM     58  C   UNL A   1      36.649  33.563  29.407  1.00  0.00    -0.053 A 
ATOM     59  H   UNL A   1      35.757  34.931  28.073  1.00  0.00     0.063 H 
ATOM     60  C   UNL A   1      36.420  32.661  30.457  1.00  0.00    -0.014 A 
ATOM     61  H   UNL A   1      34.926  31.806  31.690  1.00  0.00     0.063 H 
ATOM     62  H   UNL A   1      37.613  33.749  29.091  1.00  0.00     0.063 H 
BRANCH  60  63
ATOM     63  C   UNL A   1      37.566  31.957  31.089  1.00  0.00     0.031 A 
ATOM     64  C   UNL A   1      38.038  32.351  32.461  1.00  0.00     0.074 A 
ATOM     65  C   UNL A   1      38.217  31.000  30.398  1.00  0.00     0.049 A 
ATOM     66  N   UNL A   1      39.053  31.891  33.149  1.00  0.00    -0.248 NA
ATOM     67  C   UNL A   1      37.286  33.415  33.143  1.00  0.00    -0.034 C 
ATOM     68  C   UNL A   1      37.884  30.563  29.040  1.00  0.00    -0.036 A 
ATOM     69  N   UNL A   1      39.302  30.229  30.734  1.00  0.00    -0.354 N 
ATOM     70  C   UNL A   1      39.068  32.615  34.333  1.00  0.00     0.074 A 
ATOM     71  C   UNL A   1      37.991  33.578  34.253  1.00  0.00    -0.034 C 
ATOM     72  H   UNL A   1      36.431  33.907  32.837  1.00  0.00     0.065 H 
ATOM     73  C   UNL A   1      38.730  29.589  28.670  1.00  0.00    -0.036 A 
ATOM     74  H   UNL A   1      37.120  30.943  28.460  1.00  0.00     0.065 H 
ATOM     75  C   UNL A   1      39.694  29.363  29.743  1.00  0.00     0.049 A 
ATOM     76  H   UNL A   1      39.757  30.291  31.606  1.00  0.00     0.167 HD
ATOM     77  C   UNL A   1      39.892  32.474  35.399  1.00  0.00     0.037 A 
ATOM     78  H   UNL A   1      37.798  34.299  34.968  1.00  0.00     0.065 H 
ATOM     79  H   UNL A   1      38.704  29.082  27.772  1.00  0.00     0.065 H 
ATOM     80  C   UNL A   1      40.723  28.495  29.697  1.00  0.00     0.037 A 
ATOM     81  C   UNL A   1      40.946  31.497  35.484  1.00  0.00     0.049 A 
ATOM     82  C   UNL A   1      41.631  28.373  30.893  1.00  0.00     0.074 A 
ATOM     83  C   UNL A   1      41.790  31.232  36.548  1.00  0.00    -0.036 A 
ATOM     84  N   UNL A   1      41.305  30.629  34.464  1.00  0.00    -0.354 N 
ATOM     85  N   UNL A   1      41.583  29.007  32.038  1.00  0.00    -0.248 NA
ATOM     86  C   UNL A   1      42.735  27.409  30.789  1.00  0.00    -0.034 C 
ATOM     87  C   UNL A   1      42.698  30.246  36.152  1.00  0.00    -0.036 A 
ATOM     88  H   UNL A   1      41.755  31.684  37.475  1.00  0.00     0.065 H 
ATOM     89  C   UNL A   1      42.379  29.850  34.863  1.00  0.00     0.049 A 
ATOM     90  H   UNL A   1      40.862  30.574  33.586  1.00  0.00     0.167 HD
ATOM     91  C   UNL A   1      42.624  28.498  32.802  1.00  0.00     0.074 A 
ATOM     92  C   UNL A   1      43.275  27.487  31.996  1.00  0.00    -0.034 C 
ATOM     93  H   UNL A   1      43.016  26.824  29.987  1.00  0.00     0.065 H 
ATOM     94  H   UNL A   1      43.474  29.876  36.722  1.00  0.00     0.065 H 
ATOM     95  C   UNL A   1      43.009  28.839  34.055  1.00  0.00     0.037 A 
ATOM     96  H   UNL A   1      44.060  26.901  32.321  1.00  0.00     0.065 H 
BRANCH  77  97
ATOM     97  C   UNL A   1      39.693  33.392  36.570  1.00  0.00     0.064 A 
ATOM     98  C   UNL A   1      40.321  34.645  36.640  1.00  0.00     0.173 A 
ATOM     99  C   UNL A   1      38.800  33.048  37.597  1.00  0.00     0.173 A 
ATOM    100  F   UNL A   1      41.191  35.018  35.691  1.00  0.00    -0.203 F 
ATOM    101  C   UNL A   1      40.074  35.512  37.702  1.00  0.00     0.198 A 
ATOM    102  C   UNL A   1      38.532  33.930  38.641  1.00  0.00     0.198 A 
ATOM    103  F   UNL A   1      38.168  31.864  37.576  1.00  0.00    -0.203 F 
ATOM    104  F   UNL A   1      40.711  36.689  37.766  1.00  0.00    -0.200 F 
ATOM    105  C   UNL A   1      39.172  35.159  38.695  1.00  0.00     0.200 A 
ATOM    106  F   UNL A   1      37.648  33.593  39.590  1.00  0.00    -0.200 F 
ATOM    107  F   UNL A   1      38.921  36.002  39.705  1.00  0.00    -0.200 F 
ENDBRANCH  77  97
BRANCH  80 108
ATOM    108  C   UNL A   1      40.956  27.668  28.482  1.00  0.00     0.064 A 
ATOM    109  C   UNL A   1      41.809  28.108  27.460  1.00  0.00     0.173 A 
ATOM    110  C   UNL A   1      40.298  26.442  28.297  1.00  0.00     0.173 A 
ATOM    111  F   UNL A   1      42.446  29.283  27.579  1.00  0.00    -0.203 F 
ATOM    112  C   UNL A   1      41.967  27.374  26.286  1.00  0.00     0.198 A 
ATOM    113  C   UNL A   1      40.486  25.691  27.138  1.00  0.00     0.198 A 
ATOM    114  F   UNL A   1      39.476  25.971  29.245  1.00  0.00    -0.203 F 
ATOM    115  F   UNL A   1      42.735  27.853  25.298  1.00  0.00    -0.200 F 
ATOM    116  C   UNL A   1      41.308  26.165  26.127  1.00  0.00     0.200 A 
ATOM    117  F   UNL A   1      39.860  24.515  26.997  1.00  0.00    -0.200 F 
ATOM    118  F   UNL A   1      41.456  25.461  24.997  1.00  0.00    -0.200 F 
ENDBRANCH  80 108
BRANCH  95 119
ATOM    119  C   UNL A   1      44.163  28.083  34.651  1.00  0.00     0.064 A 
ATOM    120  C   UNL A   1      43.977  26.883  35.353  1.00  0.00     0.173 A 
ATOM    121  C   UNL A   1      45.477  28.549  34.486  1.00  0.00     0.173 A 
ATOM    122  F   UNL A   1      42.740  26.402  35.552  1.00  0.00    -0.203 F 
ATOM    123  C   UNL A   1      45.059  26.195  35.896  1.00  0.00     0.198 A 
ATOM    124  C   UNL A   1      46.560  27.839  34.998  1.00  0.00     0.198 A 
ATOM    125  F   UNL A   1      45.712  29.687  33.816  1.00  0.00    -0.203 F 
ATOM    126  F   UNL A   1      44.852  25.080  36.611  1.00  0.00    -0.200 F 
ATOM    127  C   UNL A   1      46.350  26.669  35.710  1.00  0.00     0.200 A 
ATOM    128  F   UNL A   1      47.807  28.290  34.802  1.00  0.00    -0.200 F 
ATOM    129  F   UNL A   1      47.390  26.000  36.225  1.00  0.00    -0.200 F 
ENDBRANCH  95 119
ENDBRANCH  60  63
ENDBRANCH  50  53
ENDBRANCH  46  49
ENDBRANCH  43  46
ENDBRANCH  40  43
ENDBRANCH   1  40
TORSDOF 17
ENDMDL
MODEL 5
REMARK VINA RESULT:     -11.9      5.923     11.389
REMARK SMILES C[C@@H](C(=O)NCCCCCCNC(=O)c1ccc(-c2c3nc(c(-c4c(F)c(F)c(F)c(F)c4F)c4ccc([nH]4)c(-c4c(F)c(F)c(F)c(F)c4F)c4nc(c(-c5c(F)c(F)c(F)c(F)c5F)c5ccc2[nH]5)C=C4)C=C3)cc1)c1ccc(C(=O)c2cccs2)cc1
REMARK SMILES IDX 8 1 7 4 6 7 5 10 3 11 4 12 2 14 1 16 78 20 79 21 90 22 80 23
REMARK SMILES IDX 89 25 81 27 82 30 83 31 84 32 85 33 88 34 86 35 87 37 9 40
REMARK SMILES IDX 10 43 11 46 12 49 13 50 14 52 15 53 16 54 77 55 17 56 76 58
REMARK SMILES IDX 18 60 19 63 20 64 70 65 21 66 75 67 69 68 71 69 22 70 74 71
REMARK SMILES IDX 68 73 67 75 23 77 55 80 35 81 54 82 36 83 39 84 53 85 72 86
REMARK SMILES IDX 37 87 38 89 52 91 73 92 40 95 24 97 25 98 33 99 26 100
REMARK SMILES IDX 27 101 31 102 34 103 28 104 29 105 32 106 30 107 56 108
REMARK SMILES IDX 57 109 65 110 58 111 59 112 63 113 66 114 60 115 61 116
REMARK SMILES IDX 64 117 62 118 41 119 42 120 50 121 43 122 44 123 48 124
REMARK SMILES IDX 51 125 45 126 46 127 49 128 47 129
REMARK H PARENT 8 2 8 3 7 5 7 6 6 8 6 9 5 13 2 15 1 17 1 18 1 19 79 24 90 26
REMARK H PARENT 80 28 89 29 85 36 86 38 87 39 9 41 9 42 10 44 10 45 11 47
REMARK H PARENT 11 48 12 51 16 57 77 59 17 61 76 62 75 72 69 74 71 76 74 78
REMARK H PARENT 68 79 36 88 39 90 72 93 37 94 73 96
REMARK Flexibility Score: inf
ROOT
ATOM      1  C   UNL A   1      36.207  22.073  24.605  1.00  0.00    -0.052 C 
ATOM      2  H   UNL A   1      37.069  22.355  24.038  1.00  0.00     0.027 H 
ATOM      3  H   UNL A   1      35.303  22.067  24.031  1.00  0.00     0.027 H 
ENDROOT
BRANCH   1   4
ATOM      4  C   UNL A   1      36.002  23.117  25.713  1.00  0.00    -0.036 C 
ATOM      5  H   UNL A   1      35.553  22.630  26.553  1.00  0.00     0.028 H 
ATOM      6  H   UNL A   1      36.966  23.522  25.935  1.00  0.00     0.028 H 
BRANCH   4   7
ATOM      7  C   UNL A   1      35.112  24.295  25.310  1.00  0.00     0.017 C 
ATOM      8  H   UNL A   1      35.660  25.207  25.427  1.00  0.00     0.049 H 
ATOM      9  H   UNL A   1      34.816  24.173  24.288  1.00  0.00     0.049 H 
BRANCH   7  10
ATOM     10  N   UNL A   1      33.927  24.343  26.136  1.00  0.00    -0.356 N 
ATOM     11  C   UNL A   1      32.607  24.266  25.813  1.00  0.00     0.227 C 
ATOM     12  O   UNL A   1      31.826  24.462  26.746  1.00  0.00    -0.274 OA
ATOM     13  H   UNL A   1      34.106  24.451  27.098  1.00  0.00     0.163 HD
BRANCH  11  14
ATOM     14  C   UNL A   1      32.179  23.895  24.379  1.00  0.00     0.060 C 
ATOM     15  H   UNL A   1      32.925  24.391  23.796  1.00  0.00     0.045 H 
BRANCH  14  16
ATOM     16  C   UNL A   1      30.785  24.410  24.013  1.00  0.00    -0.049 C 
ATOM     17  H   UNL A   1      30.090  24.138  24.781  1.00  0.00     0.024 H 
ATOM     18  H   UNL A   1      30.476  23.977  23.085  1.00  0.00     0.024 H 
ATOM     19  H   UNL A   1      30.811  25.476  23.918  1.00  0.00     0.024 H 
ENDBRANCH  14  16
BRANCH  14  20
ATOM     20  C   UNL A   1      32.230  22.403  24.040  1.00  0.00    -0.036 A 
ATOM     21  C   UNL A   1      32.065  21.915  22.737  1.00  0.00    -0.058 A 
ATOM     22  C   UNL A   1      32.557  21.487  25.051  1.00  0.00    -0.058 A 
ATOM     23  C   UNL A   1      32.158  20.548  22.464  1.00  0.00    -0.051 A 
ATOM     24  H   UNL A   1      31.871  22.574  21.968  1.00  0.00     0.063 H 
ATOM     25  C   UNL A   1      32.694  20.121  24.771  1.00  0.00    -0.051 A 
ATOM     26  H   UNL A   1      32.699  21.823  26.016  1.00  0.00     0.063 H 
ATOM     27  C   UNL A   1      32.476  19.636  23.475  1.00  0.00     0.023 A 
ATOM     28  H   UNL A   1      31.991  20.207  21.504  1.00  0.00     0.063 H 
ATOM     29  H   UNL A   1      32.959  19.469  25.525  1.00  0.00     0.063 H 
BRANCH  27  30
ATOM     30  C   UNL A   1      32.622  18.191  23.096  1.00  0.00     0.202 C 
ATOM     31  O   UNL A   1      32.132  17.816  22.031  1.00  0.00    -0.288 OA
BRANCH  30  32
ATOM     32  C   UNL A   1      33.367  17.301  23.963  1.00  0.00     0.075 A 
ATOM     33  C   UNL A   1      34.729  17.091  24.056  1.00  0.00    -0.040 A 
ATOM     34  S   UNL A   1      32.500  16.353  25.093  1.00  0.00    -0.140 S 
ATOM     35  C   UNL A   1      35.053  16.098  25.027  1.00  0.00    -0.051 A 
ATOM     36  H   UNL A   1      35.431  17.594  23.490  1.00  0.00     0.064 H 
ATOM     37  C   UNL A   1      33.931  15.612  25.661  1.00  0.00    -0.009 A 
ATOM     38  H   UNL A   1      36.014  15.782  25.230  1.00  0.00     0.063 H 
ATOM     39  H   UNL A   1      33.954  14.885  26.394  1.00  0.00     0.074 H 
ENDBRANCH  30  32
ENDBRANCH  27  30
ENDBRANCH  14  20
ENDBRANCH  11  14
ENDBRANCH   7  10
ENDBRANCH   4   7
ENDBRANCH   1   4
BRANCH   1  40
ATOM     40  C   UNL A   1      36.409  20.637  25.096  1.00  0.00    -0.052 C 
ATOM     41  H   UNL A   1      35.647  20.025  24.660  1.00  0.00     0.027 H 
ATOM     42  H   UNL A   1      36.360  20.674  26.164  1.00  0.00     0.027 H 
BRANCH  40  43
ATOM     43  C   UNL A   1      37.768  20.027  24.748  1.00  0.00    -0.036 C 
ATOM     44  H   UNL A   1      38.053  20.378  23.778  1.00  0.00     0.028 H 
ATOM     45  H   UNL A   1      37.645  18.966  24.788  1.00  0.00     0.028 H 
BRANCH  43  46
ATOM     46  C   UNL A   1      38.883  20.374  25.727  1.00  0.00     0.018 C 
ATOM     47  H   UNL A   1      38.451  20.564  26.688  1.00  0.00     0.049 H 
ATOM     48  H   UNL A   1      39.392  21.238  25.355  1.00  0.00     0.049 H 
BRANCH  46  49
ATOM     49  N   UNL A   1      39.854  19.300  25.852  1.00  0.00    -0.352 N 
ATOM     50  C   UNL A   1      41.208  19.374  26.049  1.00  0.00     0.251 C 
ATOM     51  H   UNL A   1      39.486  18.388  25.787  1.00  0.00     0.163 HD
ATOM     52  O   UNL A   1      41.909  18.372  25.926  1.00  0.00    -0.269 OA
BRANCH  50  53
ATOM     53  C   UNL A   1      41.832  20.671  26.385  1.00  0.00     0.039 A 
ATOM     54  C   UNL A   1      42.137  21.561  25.354  1.00  0.00    -0.049 A 
ATOM     55  C   UNL A   1      42.111  21.010  27.713  1.00  0.00    -0.049 A 
ATOM     56  C   UNL A   1      42.660  22.819  25.659  1.00  0.00    -0.053 A 
ATOM     57  H   UNL A   1      41.975  21.290  24.371  1.00  0.00     0.063 H 
ATOM     58  C   UNL A   1      42.563  22.290  28.021  1.00  0.00    -0.053 A 
ATOM     59  H   UNL A   1      41.984  20.311  28.463  1.00  0.00     0.063 H 
ATOM     60  C   UNL A   1      42.839  23.209  26.997  1.00  0.00    -0.014 A 
ATOM     61  H   UNL A   1      42.918  23.465  24.897  1.00  0.00     0.063 H 
ATOM     62  H   UNL A   1      42.694  22.565  29.006  1.00  0.00     0.063 H 
BRANCH  60  63
ATOM     63  C   UNL A   1      43.295  24.581  27.339  1.00  0.00     0.031 A 
ATOM     64  C   UNL A   1      42.328  25.587  27.900  1.00  0.00     0.074 A 
ATOM     65  C   UNL A   1      44.571  24.937  27.087  1.00  0.00     0.049 A 
ATOM     66  N   UNL A   1      42.528  26.844  28.204  1.00  0.00    -0.248 NA
ATOM     67  C   UNL A   1      40.949  25.126  28.130  1.00  0.00    -0.034 C 
ATOM     68  C   UNL A   1      45.591  24.064  26.500  1.00  0.00    -0.036 A 
ATOM     69  N   UNL A   1      45.227  26.127  27.281  1.00  0.00    -0.354 N 
ATOM     70  C   UNL A   1      41.303  27.326  28.648  1.00  0.00     0.074 A 
ATOM     71  C   UNL A   1      40.353  26.242  28.529  1.00  0.00    -0.034 C 
ATOM     72  H   UNL A   1      40.550  24.182  28.011  1.00  0.00     0.065 H 
ATOM     73  C   UNL A   1      46.746  24.741  26.403  1.00  0.00    -0.036 A 
ATOM     74  H   UNL A   1      45.444  23.086  26.208  1.00  0.00     0.065 H 
ATOM     75  C   UNL A   1      46.540  26.107  26.877  1.00  0.00     0.049 A 
ATOM     76  H   UNL A   1      44.796  26.922  27.674  1.00  0.00     0.167 HD
ATOM     77  C   UNL A   1      41.005  28.556  29.131  1.00  0.00     0.037 A 
ATOM     78  H   UNL A   1      39.344  26.325  28.728  1.00  0.00     0.065 H 
ATOM     79  H   UNL A   1      47.637  24.358  26.051  1.00  0.00     0.065 H 
ATOM     80  C   UNL A   1      47.469  27.082  26.875  1.00  0.00     0.037 A 
ATOM     81  C   UNL A   1      41.960  29.624  29.271  1.00  0.00     0.049 A 
ATOM     82  C   UNL A   1      47.101  28.443  27.404  1.00  0.00     0.074 A 
ATOM     83  C   UNL A   1      41.769  30.884  29.812  1.00  0.00    -0.036 A 
ATOM     84  N   UNL A   1      43.284  29.562  28.862  1.00  0.00    -0.354 N 
ATOM     85  N   UNL A   1      45.960  28.861  27.896  1.00  0.00    -0.248 NA
ATOM     86  C   UNL A   1      48.153  29.469  27.381  1.00  0.00    -0.034 C 
ATOM     87  C   UNL A   1      42.959  31.604  29.676  1.00  0.00    -0.036 A 
ATOM     88  H   UNL A   1      40.898  31.231  30.243  1.00  0.00     0.065 H 
ATOM     89  C   UNL A   1      43.911  30.773  29.110  1.00  0.00     0.049 A 
ATOM     90  H   UNL A   1      43.714  28.775  28.456  1.00  0.00     0.167 HD
ATOM     91  C   UNL A   1      46.167  30.182  28.271  1.00  0.00     0.074 A 
ATOM     92  C   UNL A   1      47.548  30.490  27.967  1.00  0.00    -0.034 C 
ATOM     93  H   UNL A   1      49.113  29.409  27.006  1.00  0.00     0.065 H 
ATOM     94  H   UNL A   1      43.103  32.588  29.951  1.00  0.00     0.065 H 
ATOM     95  C   UNL A   1      45.291  31.061  28.814  1.00  0.00     0.037 A 
ATOM     96  H   UNL A   1      48.003  31.391  28.182  1.00  0.00     0.065 H 
BRANCH  77  97
ATOM     97  C   UNL A   1      39.589  28.824  29.552  1.00  0.00     0.064 A 
ATOM     98  C   UNL A   1      39.156  28.599  30.868  1.00  0.00     0.173 A 
ATOM     99  C   UNL A   1      38.675  29.388  28.648  1.00  0.00     0.173 A 
ATOM    100  F   UNL A   1      39.986  28.052  31.768  1.00  0.00    -0.203 F 
ATOM    101  C   UNL A   1      37.857  28.915  31.258  1.00  0.00     0.198 A 
ATOM    102  C   UNL A   1      37.387  29.731  29.051  1.00  0.00     0.198 A 
ATOM    103  F   UNL A   1      39.039  29.629  27.379  1.00  0.00    -0.203 F 
ATOM    104  F   UNL A   1      37.456  28.659  32.511  1.00  0.00    -0.200 F 
ATOM    105  C   UNL A   1      36.977  29.491  30.353  1.00  0.00     0.200 A 
ATOM    106  F   UNL A   1      36.544  30.302  28.179  1.00  0.00    -0.200 F 
ATOM    107  F   UNL A   1      35.735  29.812  30.737  1.00  0.00    -0.200 F 
ENDBRANCH  77  97
BRANCH  80 108
ATOM    108  C   UNL A   1      48.839  26.815  26.359  1.00  0.00     0.064 A 
ATOM    109  C   UNL A   1      49.165  27.055  25.016  1.00  0.00     0.173 A 
ATOM    110  C   UNL A   1      49.837  26.275  27.184  1.00  0.00     0.173 A 
ATOM    111  F   UNL A   1      48.240  27.551  24.181  1.00  0.00    -0.203 F 
ATOM    112  C   UNL A   1      50.423  26.731  24.511  1.00  0.00     0.198 A 
ATOM    113  C   UNL A   1      51.106  25.986  26.686  1.00  0.00     0.198 A 
ATOM    114  F   UNL A   1      49.581  26.031  28.477  1.00  0.00    -0.203 F 
ATOM    115  F   UNL A   1      50.684  26.907  23.209  1.00  0.00    -0.200 F 
ATOM    116  C   UNL A   1      51.393  26.200  25.346  1.00  0.00     0.200 A 
ATOM    117  F   UNL A   1      52.045  25.489  27.502  1.00  0.00    -0.200 F 
ATOM    118  F   UNL A   1      52.600  25.884  24.860  1.00  0.00    -0.200 F 
ENDBRANCH  80 108
BRANCH  95 119
ATOM    119  C   UNL A   1      45.809  32.429  29.155  1.00  0.00     0.064 A 
ATOM    120  C   UNL A   1      45.714  33.502  28.256  1.00  0.00     0.173 A 
ATOM    121  C   UNL A   1      46.377  32.678  30.415  1.00  0.00     0.173 A 
ATOM    122  F   UNL A   1      45.192  33.314  27.034  1.00  0.00    -0.203 F 
ATOM    123  C   UNL A   1      46.196  34.764  28.592  1.00  0.00     0.198 A 
ATOM    124  C   UNL A   1      46.825  33.950  30.761  1.00  0.00     0.198 A 
ATOM    125  F   UNL A   1      46.485  31.690  31.315  1.00  0.00    -0.203 F 
ATOM    126  F   UNL A   1      46.145  35.759  27.696  1.00  0.00    -0.200 F 
ATOM    127  C   UNL A   1      46.743  34.989  29.847  1.00  0.00     0.200 A 
ATOM    128  F   UNL A   1      47.337  34.169  31.981  1.00  0.00    -0.200 F 
ATOM    129  F   UNL A   1      47.200  36.206  30.171  1.00  0.00    -0.200 F 
ENDBRANCH  95 119
ENDBRANCH  60  63
ENDBRANCH  50  53
ENDBRANCH  46  49
ENDBRANCH  43  46
ENDBRANCH  40  43
ENDBRANCH   1  40
TORSDOF 17
ENDMDL
MODEL 6
REMARK VINA RESULT:     -11.7      6.146     11.615
REMARK SMILES C[C@@H](C(=O)NCCCCCCNC(=O)c1ccc(-c2c3nc(c(-c4c(F)c(F)c(F)c(F)c4F)c4ccc([nH]4)c(-c4c(F)c(F)c(F)c(F)c4F)c4nc(c(-c5c(F)c(F)c(F)c(F)c5F)c5ccc2[nH]5)C=C4)C=C3)cc1)c1ccc(C(=O)c2cccs2)cc1
REMARK SMILES IDX 8 1 7 4 6 7 5 10 3 11 4 12 2 14 1 16 78 20 79 21 90 22 80 23
REMARK SMILES IDX 89 25 81 27 82 30 83 31 84 32 85 33 88 34 86 35 87 37 9 40
REMARK SMILES IDX 10 43 11 46 12 49 13 50 14 52 15 53 16 54 77 55 17 56 76 58
REMARK SMILES IDX 18 60 19 63 20 64 70 65 21 66 75 67 69 68 71 69 22 70 74 71
REMARK SMILES IDX 68 73 67 75 23 77 55 80 35 81 54 82 36 83 39 84 53 85 72 86
REMARK SMILES IDX 37 87 38 89 52 91 73 92 40 95 24 97 25 98 33 99 26 100
REMARK SMILES IDX 27 101 31 102 34 103 28 104 29 105 32 106 30 107 56 108
REMARK SMILES IDX 57 109 65 110 58 111 59 112 63 113 66 114 60 115 61 116
REMARK SMILES IDX 64 117 62 118 41 119 42 120 50 121 43 122 44 123 48 124
REMARK SMILES IDX 51 125 45 126 46 127 49 128 47 129
REMARK H PARENT 8 2 8 3 7 5 7 6 6 8 6 9 5 13 2 15 1 17 1 18 1 19 79 24 90 26
REMARK H PARENT 80 28 89 29 85 36 86 38 87 39 9 41 9 42 10 44 10 45 11 47
REMARK H PARENT 11 48 12 51 16 57 77 59 17 61 76 62 75 72 69 74 71 76 74 78
REMARK H PARENT 68 79 36 88 39 90 72 93 37 94 73 96
REMARK Flexibility Score: inf
ROOT
ATOM      1  C   UNL A   1      37.033  22.186  24.413  1.00  0.00    -0.052 C 
ATOM      2  H   UNL A   1      37.536  22.747  25.173  1.00  0.00     0.027 H 
ATOM      3  H   UNL A   1      37.641  21.991  23.554  1.00  0.00     0.027 H 
ENDROOT
BRANCH   1   4
ATOM      4  C   UNL A   1      35.843  23.019  23.914  1.00  0.00    -0.036 C 
ATOM      5  H   UNL A   1      36.157  23.569  23.052  1.00  0.00     0.028 H 
ATOM      6  H   UNL A   1      35.054  22.329  23.702  1.00  0.00     0.028 H 
BRANCH   4   7
ATOM      7  C   UNL A   1      35.295  24.011  24.943  1.00  0.00     0.017 C 
ATOM      8  H   UNL A   1      34.763  23.475  25.701  1.00  0.00     0.049 H 
ATOM      9  H   UNL A   1      36.113  24.547  25.378  1.00  0.00     0.049 H 
BRANCH   7  10
ATOM     10  N   UNL A   1      34.401  24.955  24.311  1.00  0.00    -0.356 N 
ATOM     11  C   UNL A   1      33.047  24.949  24.170  1.00  0.00     0.227 C 
ATOM     12  O   UNL A   1      32.589  25.851  23.466  1.00  0.00    -0.274 OA
ATOM     13  H   UNL A   1      34.849  25.736  23.914  1.00  0.00     0.163 HD
BRANCH  11  14
ATOM     14  C   UNL A   1      32.195  23.900  24.910  1.00  0.00     0.060 C 
ATOM     15  H   UNL A   1      31.203  24.202  24.646  1.00  0.00     0.045 H 
BRANCH  14  16
ATOM     16  C   UNL A   1      32.377  23.936  26.430  1.00  0.00    -0.049 C 
ATOM     17  H   UNL A   1      31.582  24.501  26.871  1.00  0.00     0.024 H 
ATOM     18  H   UNL A   1      33.314  24.395  26.667  1.00  0.00     0.024 H 
ATOM     19  H   UNL A   1      32.361  22.938  26.815  1.00  0.00     0.024 H 
ENDBRANCH  14  16
BRANCH  14  20
ATOM     20  C   UNL A   1      32.383  22.452  24.451  1.00  0.00    -0.036 A 
ATOM     21  C   UNL A   1      32.743  21.418  25.326  1.00  0.00    -0.058 A 
ATOM     22  C   UNL A   1      32.088  22.116  23.121  1.00  0.00    -0.058 A 
ATOM     23  C   UNL A   1      32.867  20.103  24.874  1.00  0.00    -0.051 A 
ATOM     24  H   UNL A   1      32.919  21.632  26.319  1.00  0.00     0.063 H 
ATOM     25  C   UNL A   1      32.169  20.791  22.676  1.00  0.00    -0.051 A 
ATOM     26  H   UNL A   1      31.806  22.857  22.460  1.00  0.00     0.063 H 
ATOM     27  C   UNL A   1      32.578  19.772  23.546  1.00  0.00     0.023 A 
ATOM     28  H   UNL A   1      33.174  19.366  25.528  1.00  0.00     0.063 H 
ATOM     29  H   UNL A   1      31.923  20.563  21.701  1.00  0.00     0.063 H 
BRANCH  27  30
ATOM     30  C   UNL A   1      32.672  18.329  23.147  1.00  0.00     0.202 C 
ATOM     31  O   UNL A   1      32.153  17.983  22.086  1.00  0.00    -0.288 OA
BRANCH  30  32
ATOM     32  C   UNL A   1      33.402  17.404  23.991  1.00  0.00     0.075 A 
ATOM     33  C   UNL A   1      34.756  17.139  24.048  1.00  0.00    -0.040 A 
ATOM     34  S   UNL A   1      32.526  16.487  25.139  1.00  0.00    -0.140 S 
ATOM     35  C   UNL A   1      35.064  16.128  25.006  1.00  0.00    -0.051 A 
ATOM     36  H   UNL A   1      35.463  17.616  23.466  1.00  0.00     0.064 H 
ATOM     37  C   UNL A   1      33.939  15.685  25.667  1.00  0.00    -0.009 A 
ATOM     38  H   UNL A   1      36.016  15.772  25.184  1.00  0.00     0.063 H 
ATOM     39  H   UNL A   1      33.951  14.954  26.396  1.00  0.00     0.074 H 
ENDBRANCH  30  32
ENDBRANCH  27  30
ENDBRANCH  14  20
ENDBRANCH  11  14
ENDBRANCH   7  10
ENDBRANCH   4   7
ENDBRANCH   1   4
BRANCH   1  40
ATOM     40  C   UNL A   1      36.668  20.818  24.997  1.00  0.00    -0.052 C 
ATOM     41  H   UNL A   1      35.861  20.415  24.422  1.00  0.00     0.027 H 
ATOM     42  H   UNL A   1      36.411  20.987  26.022  1.00  0.00     0.027 H 
BRANCH  40  43
ATOM     43  C   UNL A   1      37.808  19.799  25.000  1.00  0.00    -0.036 C 
ATOM     44  H   UNL A   1      38.037  19.549  23.986  1.00  0.00     0.028 H 
ATOM     45  H   UNL A   1      37.465  18.960  25.569  1.00  0.00     0.028 H 
BRANCH  43  46
ATOM     46  C   UNL A   1      39.087  20.287  25.671  1.00  0.00     0.018 C 
ATOM     47  H   UNL A   1      38.837  20.718  26.618  1.00  0.00     0.049 H 
ATOM     48  H   UNL A   1      39.543  21.008  25.025  1.00  0.00     0.049 H 
BRANCH  46  49
ATOM     49  N   UNL A   1      40.038  19.209  25.883  1.00  0.00    -0.352 N 
ATOM     50  C   UNL A   1      41.386  19.276  26.124  1.00  0.00     0.251 C 
ATOM     51  H   UNL A   1      39.661  18.299  25.848  1.00  0.00     0.163 HD
ATOM     52  O   UNL A   1      42.077  18.262  26.076  1.00  0.00    -0.269 OA
BRANCH  50  53
ATOM     53  C   UNL A   1      42.014  20.581  26.420  1.00  0.00     0.039 A 
ATOM     54  C   UNL A   1      42.579  21.311  25.373  1.00  0.00    -0.049 A 
ATOM     55  C   UNL A   1      42.043  21.084  27.725  1.00  0.00    -0.049 A 
ATOM     56  C   UNL A   1      43.114  22.576  25.622  1.00  0.00    -0.053 A 
ATOM     57  H   UNL A   1      42.600  20.917  24.419  1.00  0.00     0.063 H 
ATOM     58  C   UNL A   1      42.508  22.375  27.959  1.00  0.00    -0.053 A 
ATOM     59  H   UNL A   1      41.721  20.499  28.513  1.00  0.00     0.063 H 
ATOM     60  C   UNL A   1      43.046  23.135  26.910  1.00  0.00    -0.014 A 
ATOM     61  H   UNL A   1      43.561  23.103  24.856  1.00  0.00     0.063 H 
ATOM     62  H   UNL A   1      42.458  22.775  28.909  1.00  0.00     0.063 H 
BRANCH  60  63
ATOM     63  C   UNL A   1      43.514  24.522  27.167  1.00  0.00     0.031 A 
ATOM     64  C   UNL A   1      42.558  25.567  27.671  1.00  0.00     0.074 A 
ATOM     65  C   UNL A   1      44.791  24.851  26.887  1.00  0.00     0.049 A 
ATOM     66  N   UNL A   1      42.770  26.839  27.898  1.00  0.00    -0.248 NA
ATOM     67  C   UNL A   1      41.177  25.133  27.935  1.00  0.00    -0.034 C 
ATOM     68  C   UNL A   1      45.801  23.937  26.348  1.00  0.00    -0.036 A 
ATOM     69  N   UNL A   1      45.458  26.045  27.006  1.00  0.00    -0.354 N 
ATOM     70  C   UNL A   1      41.552  27.357  28.319  1.00  0.00     0.074 A 
ATOM     71  C   UNL A   1      40.593  26.275  28.270  1.00  0.00    -0.034 C 
ATOM     72  H   UNL A   1      40.770  24.187  27.876  1.00  0.00     0.065 H 
ATOM     73  C   UNL A   1      46.961  24.598  26.205  1.00  0.00    -0.036 A 
ATOM     74  H   UNL A   1      45.645  22.944  26.116  1.00  0.00     0.065 H 
ATOM     75  C   UNL A   1      46.768  25.990  26.598  1.00  0.00     0.049 A 
ATOM     76  H   UNL A   1      45.036  26.866  27.353  1.00  0.00     0.167 HD
ATOM     77  C   UNL A   1      41.266  28.616  28.729  1.00  0.00     0.037 A 
ATOM     78  H   UNL A   1      39.585  26.378  28.469  1.00  0.00     0.065 H 
ATOM     79  H   UNL A   1      47.847  24.187  25.872  1.00  0.00     0.065 H 
ATOM     80  C   UNL A   1      47.705  26.956  26.533  1.00  0.00     0.037 A 
ATOM     81  C   UNL A   1      42.230  29.682  28.800  1.00  0.00     0.049 A 
ATOM     82  C   UNL A   1      47.351  28.350  26.981  1.00  0.00     0.074 A 
ATOM     83  C   UNL A   1      42.052  30.974  29.266  1.00  0.00    -0.036 A 
ATOM     84  N   UNL A   1      43.551  29.585  28.389  1.00  0.00    -0.354 N 
ATOM     85  N   UNL A   1      46.216  28.805  27.453  1.00  0.00    -0.248 NA
ATOM     86  C   UNL A   1      48.411  29.363  26.891  1.00  0.00    -0.034 C 
ATOM     87  C   UNL A   1      43.247  31.675  29.081  1.00  0.00    -0.036 A 
ATOM     88  H   UNL A   1      41.186  31.354  29.679  1.00  0.00     0.065 H 
ATOM     89  C   UNL A   1      44.189  30.803  28.560  1.00  0.00     0.049 A 
ATOM     90  H   UNL A   1      43.972  28.772  28.028  1.00  0.00     0.167 HD
ATOM     91  C   UNL A   1      46.435  30.145  27.747  1.00  0.00     0.074 A 
ATOM     92  C   UNL A   1      47.817  30.422  27.418  1.00  0.00    -0.034 C 
ATOM     93  H   UNL A   1      49.368  29.273  26.515  1.00  0.00     0.065 H 
ATOM     94  H   UNL A   1      43.401  32.672  29.296  1.00  0.00     0.065 H 
ATOM     95  C   UNL A   1      45.569  31.062  28.240  1.00  0.00     0.037 A 
ATOM     96  H   UNL A   1      48.281  31.331  27.576  1.00  0.00     0.065 H 
BRANCH  77  97
ATOM     97  C   UNL A   1      39.855  28.920  29.140  1.00  0.00     0.064 A 
ATOM     98  C   UNL A   1      38.894  29.354  28.214  1.00  0.00     0.173 A 
ATOM     99  C   UNL A   1      39.437  28.697  30.462  1.00  0.00     0.173 A 
ATOM    100  F   UNL A   1      39.242  29.592  26.941  1.00  0.00    -0.203 F 
ATOM    101  C   UNL A   1      37.573  29.568  28.599  1.00  0.00     0.198 A 
ATOM    102  C   UNL A   1      38.108  28.882  30.835  1.00  0.00     0.198 A 
ATOM    103  F   UNL A   1      40.313  28.276  31.386  1.00  0.00    -0.203 F 
ATOM    104  F   UNL A   1      36.681  30.016  27.705  1.00  0.00    -0.200 F 
ATOM    105  C   UNL A   1      37.179  29.322  29.906  1.00  0.00     0.200 A 
ATOM    106  F   UNL A   1      37.727  28.628  32.094  1.00  0.00    -0.200 F 
ATOM    107  F   UNL A   1      35.903  29.509  30.269  1.00  0.00    -0.200 F 
ENDBRANCH  77  97
BRANCH  80 108
ATOM    108  C   UNL A   1      49.070  26.647  26.026  1.00  0.00     0.064 A 
ATOM    109  C   UNL A   1      50.049  26.103  26.870  1.00  0.00     0.173 A 
ATOM    110  C   UNL A   1      49.437  26.929  24.701  1.00  0.00     0.173 A 
ATOM    111  F   UNL A   1      49.755  25.835  28.151  1.00  0.00    -0.203 F 
ATOM    112  C   UNL A   1      51.350  25.888  26.419  1.00  0.00     0.198 A 
ATOM    113  C   UNL A   1      50.729  26.679  24.242  1.00  0.00     0.198 A 
ATOM    114  F   UNL A   1      48.538  27.444  23.850  1.00  0.00    -0.203 F 
ATOM    115  F   UNL A   1      52.282  25.432  27.267  1.00  0.00    -0.200 F 
ATOM    116  C   UNL A   1      51.688  26.172  25.106  1.00  0.00     0.200 A 
ATOM    117  F   UNL A   1      51.045  26.939  22.967  1.00  0.00    -0.200 F 
ATOM    118  F   UNL A   1      52.940  25.971  24.674  1.00  0.00    -0.200 F 
ENDBRANCH  80 108
BRANCH  95 119
ATOM    119  C   UNL A   1      46.100  32.444  28.497  1.00  0.00     0.064 A 
ATOM    120  C   UNL A   1      46.679  32.798  29.725  1.00  0.00     0.173 A 
ATOM    121  C   UNL A   1      46.062  33.417  27.485  1.00  0.00     0.173 A 
ATOM    122  F   UNL A   1      46.727  31.909  30.729  1.00  0.00    -0.203 F 
ATOM    123  C   UNL A   1      47.169  34.082  29.942  1.00  0.00     0.198 A 
ATOM    124  C   UNL A   1      46.587  34.689  27.694  1.00  0.00     0.198 A 
ATOM    125  F   UNL A   1      45.528  33.129  26.289  1.00  0.00    -0.203 F 
ATOM    126  F   UNL A   1      47.666  34.414  31.142  1.00  0.00    -0.200 F 
ATOM    127  C   UNL A   1      47.131  35.024  28.924  1.00  0.00     0.200 A 
ATOM    128  F   UNL A   1      46.565  35.592  26.703  1.00  0.00    -0.200 F 
ATOM    129  F   UNL A   1      47.611  36.257  29.133  1.00  0.00    -0.200 F 
ENDBRANCH  95 119
ENDBRANCH  60  63
ENDBRANCH  50  53
ENDBRANCH  46  49
ENDBRANCH  43  46
ENDBRANCH  40  43
ENDBRANCH   1  40
TORSDOF 17
ENDMDL
MODEL 7
REMARK VINA RESULT:     -11.7      5.944     10.241
REMARK SMILES C[C@@H](C(=O)NCCCCCCNC(=O)c1ccc(-c2c3nc(c(-c4c(F)c(F)c(F)c(F)c4F)c4ccc([nH]4)c(-c4c(F)c(F)c(F)c(F)c4F)c4nc(c(-c5c(F)c(F)c(F)c(F)c5F)c5ccc2[nH]5)C=C4)C=C3)cc1)c1ccc(C(=O)c2cccs2)cc1
REMARK SMILES IDX 8 1 7 4 6 7 5 10 3 11 4 12 2 14 1 16 78 20 79 21 90 22 80 23
REMARK SMILES IDX 89 25 81 27 82 30 83 31 84 32 85 33 88 34 86 35 87 37 9 40
REMARK SMILES IDX 10 43 11 46 12 49 13 50 14 52 15 53 16 54 77 55 17 56 76 58
REMARK SMILES IDX 18 60 19 63 20 64 70 65 21 66 75 67 69 68 71 69 22 70 74 71
REMARK SMILES IDX 68 73 67 75 23 77 55 80 35 81 54 82 36 83 39 84 53 85 72 86
REMARK SMILES IDX 37 87 38 89 52 91 73 92 40 95 24 97 25 98 33 99 26 100
REMARK SMILES IDX 27 101 31 102 34 103 28 104 29 105 32 106 30 107 56 108
REMARK SMILES IDX 57 109 65 110 58 111 59 112 63 113 66 114 60 115 61 116
REMARK SMILES IDX 64 117 62 118 41 119 42 120 50 121 43 122 44 123 48 124
REMARK SMILES IDX 51 125 45 126 46 127 49 128 47 129
REMARK H PARENT 8 2 8 3 7 5 7 6 6 8 6 9 5 13 2 15 1 17 1 18 1 19 79 24 90 26
REMARK H PARENT 80 28 89 29 85 36 86 38 87 39 9 41 9 42 10 44 10 45 11 47
REMARK H PARENT 11 48 12 51 16 57 77 59 17 61 76 62 75 72 69 74 71 76 74 78
REMARK H PARENT 68 79 36 88 39 90 72 93 37 94 73 96
REMARK Flexibility Score: inf
ROOT
ATOM      1  C   UNL A   1      36.512  21.967  24.641  1.00  0.00    -0.052 C 
ATOM      2  H   UNL A   1      37.492  22.260  24.327  1.00  0.00     0.027 H 
ATOM      3  H   UNL A   1      35.773  22.060  23.873  1.00  0.00     0.027 H 
ENDROOT
BRANCH   1   4
ATOM      4  C   UNL A   1      36.073  22.909  25.773  1.00  0.00    -0.036 C 
ATOM      5  H   UNL A   1      35.510  22.339  26.483  1.00  0.00     0.028 H 
ATOM      6  H   UNL A   1      36.965  23.326  26.189  1.00  0.00     0.028 H 
BRANCH   4   7
ATOM      7  C   UNL A   1      35.211  24.086  25.311  1.00  0.00     0.017 C 
ATOM      8  H   UNL A   1      35.782  24.988  25.375  1.00  0.00     0.049 H 
ATOM      9  H   UNL A   1      34.904  23.916  24.300  1.00  0.00     0.049 H 
BRANCH   7  10
ATOM     10  N   UNL A   1      34.033  24.209  26.141  1.00  0.00    -0.356 N 
ATOM     11  C   UNL A   1      32.710  24.211  25.822  1.00  0.00     0.227 C 
ATOM     12  O   UNL A   1      31.945  24.459  26.757  1.00  0.00    -0.274 OA
ATOM     13  H   UNL A   1      34.222  24.310  27.101  1.00  0.00     0.163 HD
BRANCH  11  14
ATOM     14  C   UNL A   1      32.255  23.862  24.391  1.00  0.00     0.060 C 
ATOM     15  H   UNL A   1      33.007  24.342  23.802  1.00  0.00     0.045 H 
BRANCH  14  16
ATOM     16  C   UNL A   1      30.870  24.415  24.045  1.00  0.00    -0.049 C 
ATOM     17  H   UNL A   1      30.976  25.270  23.409  1.00  0.00     0.024 H 
ATOM     18  H   UNL A   1      30.364  24.699  24.944  1.00  0.00     0.024 H 
ATOM     19  H   UNL A   1      30.303  23.662  23.538  1.00  0.00     0.024 H 
ENDBRANCH  14  16
BRANCH  14  20
ATOM     20  C   UNL A   1      32.264  22.372  24.042  1.00  0.00    -0.036 A 
ATOM     21  C   UNL A   1      32.122  21.898  22.730  1.00  0.00    -0.058 A 
ATOM     22  C   UNL A   1      32.527  21.437  25.054  1.00  0.00    -0.058 A 
ATOM     23  C   UNL A   1      32.176  20.531  22.449  1.00  0.00    -0.051 A 
ATOM     24  H   UNL A   1      31.976  22.569  21.961  1.00  0.00     0.063 H 
ATOM     25  C   UNL A   1      32.625  20.069  24.767  1.00  0.00    -0.051 A 
ATOM     26  H   UNL A   1      32.651  21.761  26.026  1.00  0.00     0.063 H 
ATOM     27  C   UNL A   1      32.430  19.601  23.462  1.00  0.00     0.023 A 
ATOM     28  H   UNL A   1      32.026  20.204  21.481  1.00  0.00     0.063 H 
ATOM     29  H   UNL A   1      32.843  19.402  25.523  1.00  0.00     0.063 H 
BRANCH  27  30
ATOM     30  C   UNL A   1      32.537  18.155  23.075  1.00  0.00     0.202 C 
ATOM     31  O   UNL A   1      32.179  17.826  21.945  1.00  0.00    -0.288 OA
BRANCH  30  32
ATOM     32  C   UNL A   1      33.095  17.207  24.018  1.00  0.00     0.075 A 
ATOM     33  C   UNL A   1      32.459  16.359  24.903  1.00  0.00    -0.040 A 
ATOM     34  S   UNL A   1      34.796  17.030  24.081  1.00  0.00    -0.140 S 
ATOM     35  C   UNL A   1      33.384  15.602  25.679  1.00  0.00    -0.051 A 
ATOM     36  H   UNL A   1      31.433  16.282  24.992  1.00  0.00     0.064 H 
ATOM     37  C   UNL A   1      34.690  15.875  25.335  1.00  0.00    -0.009 A 
ATOM     38  H   UNL A   1      33.108  14.929  26.412  1.00  0.00     0.063 H 
ATOM     39  H   UNL A   1      35.508  15.431  25.783  1.00  0.00     0.074 H 
ENDBRANCH  30  32
ENDBRANCH  27  30
ENDBRANCH  14  20
ENDBRANCH  11  14
ENDBRANCH   7  10
ENDBRANCH   4   7
ENDBRANCH   1   4
BRANCH   1  40
ATOM     40  C   UNL A   1      36.557  20.483  25.014  1.00  0.00    -0.052 C 
ATOM     41  H   UNL A   1      35.825  19.969  24.427  1.00  0.00     0.027 H 
ATOM     42  H   UNL A   1      36.366  20.430  26.066  1.00  0.00     0.027 H 
BRANCH  40  43
ATOM     43  C   UNL A   1      37.909  19.806  24.787  1.00  0.00    -0.036 C 
ATOM     44  H   UNL A   1      38.230  20.026  23.790  1.00  0.00     0.028 H 
ATOM     45  H   UNL A   1      37.760  18.761  24.956  1.00  0.00     0.028 H 
BRANCH  43  46
ATOM     46  C   UNL A   1      39.005  20.251  25.749  1.00  0.00     0.018 C 
ATOM     47  H   UNL A   1      38.565  20.455  26.703  1.00  0.00     0.049 H 
ATOM     48  H   UNL A   1      39.467  21.126  25.341  1.00  0.00     0.049 H 
BRANCH  46  49
ATOM     49  N   UNL A   1      40.032  19.236  25.914  1.00  0.00    -0.352 N 
ATOM     50  C   UNL A   1      41.380  19.390  26.111  1.00  0.00     0.251 C 
ATOM     51  H   UNL A   1      39.715  18.304  25.880  1.00  0.00     0.163 HD
ATOM     52  O   UNL A   1      42.135  18.424  26.025  1.00  0.00    -0.269 OA
BRANCH  50  53
ATOM     53  C   UNL A   1      41.931  20.730  26.403  1.00  0.00     0.039 A 
ATOM     54  C   UNL A   1      42.219  21.588  25.339  1.00  0.00    -0.049 A 
ATOM     55  C   UNL A   1      42.160  21.141  27.720  1.00  0.00    -0.049 A 
ATOM     56  C   UNL A   1      42.673  22.883  25.599  1.00  0.00    -0.053 A 
ATOM     57  H   UNL A   1      42.095  21.267  24.366  1.00  0.00     0.063 H 
ATOM     58  C   UNL A   1      42.540  22.454  27.980  1.00  0.00    -0.053 A 
ATOM     59  H   UNL A   1      42.047  20.471  28.498  1.00  0.00     0.063 H 
ATOM     60  C   UNL A   1      42.798  23.339  26.922  1.00  0.00    -0.014 A 
ATOM     61  H   UNL A   1      42.918  23.507  24.815  1.00  0.00     0.063 H 
ATOM     62  H   UNL A   1      42.633  22.779  28.955  1.00  0.00     0.063 H 
BRANCH  60  63
ATOM     63  C   UNL A   1      43.177  24.746  27.212  1.00  0.00     0.031 A 
ATOM     64  C   UNL A   1      44.582  25.223  26.964  1.00  0.00     0.074 A 
ATOM     65  C   UNL A   1      42.267  25.578  27.756  1.00  0.00     0.049 A 
ATOM     66  N   UNL A   1      45.111  26.395  27.208  1.00  0.00    -0.248 NA
ATOM     67  C   UNL A   1      45.521  24.250  26.384  1.00  0.00    -0.034 C 
ATOM     68  C   UNL A   1      40.886  25.219  28.089  1.00  0.00    -0.036 A 
ATOM     69  N   UNL A   1      42.366  26.893  28.138  1.00  0.00    -0.354 N 
ATOM     70  C   UNL A   1      46.443  26.297  26.825  1.00  0.00     0.074 A 
ATOM     71  C   UNL A   1      46.655  24.938  26.377  1.00  0.00    -0.034 C 
ATOM     72  H   UNL A   1      45.344  23.285  26.066  1.00  0.00     0.065 H 
ATOM     73  C   UNL A   1      40.263  26.292  28.602  1.00  0.00    -0.036 A 
ATOM     74  H   UNL A   1      40.461  24.290  27.950  1.00  0.00     0.065 H 
ATOM     75  C   UNL A   1      41.209  27.401  28.678  1.00  0.00     0.049 A 
ATOM     76  H   UNL A   1      43.189  27.424  28.033  1.00  0.00     0.167 HD
ATOM     77  C   UNL A   1      47.395  27.260  26.827  1.00  0.00     0.037 A 
ATOM     78  H   UNL A   1      47.569  24.554  26.089  1.00  0.00     0.065 H 
ATOM     79  H   UNL A   1      39.274  26.327  28.895  1.00  0.00     0.065 H 
ATOM     80  C   UNL A   1      40.944  28.618  29.190  1.00  0.00     0.037 A 
ATOM     81  C   UNL A   1      47.172  28.618  27.250  1.00  0.00     0.049 A 
ATOM     82  C   UNL A   1      42.030  29.662  29.193  1.00  0.00     0.074 A 
ATOM     83  C   UNL A   1      48.056  29.683  27.226  1.00  0.00    -0.036 A 
ATOM     84  N   UNL A   1      45.984  29.098  27.780  1.00  0.00    -0.354 N 
ATOM     85  N   UNL A   1      43.261  29.579  28.752  1.00  0.00    -0.248 NA
ATOM     86  C   UNL A   1      41.686  30.973  29.762  1.00  0.00    -0.034 C 
ATOM     87  C   UNL A   1      47.423  30.791  27.796  1.00  0.00    -0.036 A 
ATOM     88  H   UNL A   1      49.017  29.663  26.851  1.00  0.00     0.065 H 
ATOM     89  C   UNL A   1      46.123  30.435  28.116  1.00  0.00     0.049 A 
ATOM     90  H   UNL A   1      45.163  28.567  27.900  1.00  0.00     0.167 HD
ATOM     91  C   UNL A   1      43.826  30.831  28.958  1.00  0.00     0.074 A 
ATOM     92  C   UNL A   1      42.796  31.661  29.545  1.00  0.00    -0.034 C 
ATOM     93  H   UNL A   1      40.808  31.278  30.211  1.00  0.00     0.065 H 
ATOM     94  H   UNL A   1      47.851  31.717  27.952  1.00  0.00     0.065 H 
ATOM     95  C   UNL A   1      45.085  31.253  28.689  1.00  0.00     0.037 A 
ATOM     96  H   UNL A   1      42.913  32.662  29.767  1.00  0.00     0.065 H 
BRANCH  77  97
ATOM     97  C   UNL A   1      48.771  26.892  26.355  1.00  0.00     0.064 A 
ATOM     98  C   UNL A   1      49.703  26.277  27.205  1.00  0.00     0.173 A 
ATOM     99  C   UNL A   1      49.135  27.083  25.012  1.00  0.00     0.173 A 
ATOM    100  F   UNL A   1      49.410  26.081  28.499  1.00  0.00    -0.203 F 
ATOM    101  C   UNL A   1      50.952  25.882  26.733  1.00  0.00     0.198 A 
ATOM    102  C   UNL A   1      50.374  26.658  24.537  1.00  0.00     0.198 A 
ATOM    103  F   UNL A   1      48.280  27.660  24.155  1.00  0.00    -0.203 F 
ATOM    104  F   UNL A   1      51.838  25.328  27.572  1.00  0.00    -0.200 F 
ATOM    105  C   UNL A   1      51.282  26.062  25.398  1.00  0.00     0.200 A 
ATOM    106  F   UNL A   1      50.683  26.818  23.243  1.00  0.00    -0.200 F 
ATOM    107  F   UNL A   1      52.477  25.662  24.942  1.00  0.00    -0.200 F 
ENDBRANCH  77  97
BRANCH  80 108
ATOM    108  C   UNL A   1      39.597  28.925  29.744  1.00  0.00     0.064 A 
ATOM    109  C   UNL A   1      39.290  28.661  31.087  1.00  0.00     0.173 A 
ATOM    110  C   UNL A   1      38.577  29.447  28.934  1.00  0.00     0.173 A 
ATOM    111  F   UNL A   1      40.224  28.142  31.898  1.00  0.00    -0.203 F 
ATOM    112  C   UNL A   1      38.006  28.872  31.588  1.00  0.00     0.198 A 
ATOM    113  C   UNL A   1      37.305  29.692  29.446  1.00  0.00     0.198 A 
ATOM    114  F   UNL A   1      38.819  29.724  27.644  1.00  0.00    -0.203 F 
ATOM    115  F   UNL A   1      37.724  28.546  32.856  1.00  0.00    -0.200 F 
ATOM    116  C   UNL A   1      37.016  29.390  30.768  1.00  0.00     0.200 A 
ATOM    117  F   UNL A   1      36.356  30.210  28.654  1.00  0.00    -0.200 F 
ATOM    118  F   UNL A   1      35.781  29.589  31.248  1.00  0.00    -0.200 F 
ENDBRANCH  80 108
BRANCH  95 119
ATOM    119  C   UNL A   1      45.409  32.689  28.987  1.00  0.00     0.064 A 
ATOM    120  C   UNL A   1      45.169  33.710  28.055  1.00  0.00     0.173 A 
ATOM    121  C   UNL A   1      45.934  33.053  30.237  1.00  0.00     0.173 A 
ATOM    122  F   UNL A   1      44.681  33.414  26.841  1.00  0.00    -0.203 F 
ATOM    123  C   UNL A   1      45.472  35.036  28.351  1.00  0.00     0.198 A 
ATOM    124  C   UNL A   1      46.202  34.384  30.543  1.00  0.00     0.198 A 
ATOM    125  F   UNL A   1      46.175  32.118  31.167  1.00  0.00    -0.203 F 
ATOM    126  F   UNL A   1      45.286  35.987  27.424  1.00  0.00    -0.200 F 
ATOM    127  C   UNL A   1      45.980  35.374  29.597  1.00  0.00     0.200 A 
ATOM    128  F   UNL A   1      46.676  34.710  31.754  1.00  0.00    -0.200 F 
ATOM    129  F   UNL A   1      46.263  36.651  29.882  1.00  0.00    -0.200 F 
ENDBRANCH  95 119
ENDBRANCH  60  63
ENDBRANCH  50  53
ENDBRANCH  46  49
ENDBRANCH  43  46
ENDBRANCH  40  43
ENDBRANCH   1  40
TORSDOF 17
ENDMDL
MODEL 8
REMARK VINA RESULT:     -11.7      1.327      7.308
REMARK SMILES C[C@@H](C(=O)NCCCCCCNC(=O)c1ccc(-c2c3nc(c(-c4c(F)c(F)c(F)c(F)c4F)c4ccc([nH]4)c(-c4c(F)c(F)c(F)c(F)c4F)c4nc(c(-c5c(F)c(F)c(F)c(F)c5F)c5ccc2[nH]5)C=C4)C=C3)cc1)c1ccc(C(=O)c2cccs2)cc1
REMARK SMILES IDX 8 1 7 4 6 7 5 10 3 11 4 12 2 14 1 16 78 20 79 21 90 22 80 23
REMARK SMILES IDX 89 25 81 27 82 30 83 31 84 32 85 33 88 34 86 35 87 37 9 40
REMARK SMILES IDX 10 43 11 46 12 49 13 50 14 52 15 53 16 54 77 55 17 56 76 58
REMARK SMILES IDX 18 60 19 63 20 64 70 65 21 66 75 67 69 68 71 69 22 70 74 71
REMARK SMILES IDX 68 73 67 75 23 77 55 80 35 81 54 82 36 83 39 84 53 85 72 86
REMARK SMILES IDX 37 87 38 89 52 91 73 92 40 95 24 97 25 98 33 99 26 100
REMARK SMILES IDX 27 101 31 102 34 103 28 104 29 105 32 106 30 107 56 108
REMARK SMILES IDX 57 109 65 110 58 111 59 112 63 113 66 114 60 115 61 116
REMARK SMILES IDX 64 117 62 118 41 119 42 120 50 121 43 122 44 123 48 124
REMARK SMILES IDX 51 125 45 126 46 127 49 128 47 129
REMARK H PARENT 8 2 8 3 7 5 7 6 6 8 6 9 5 13 2 15 1 17 1 18 1 19 79 24 90 26
REMARK H PARENT 80 28 89 29 85 36 86 38 87 39 9 41 9 42 10 44 10 45 11 47
REMARK H PARENT 11 48 12 51 16 57 77 59 17 61 76 62 75 72 69 74 71 76 74 78
REMARK H PARENT 68 79 36 88 39 90 72 93 37 94 73 96
REMARK Flexibility Score: inf
ROOT
ATOM      1  C   UNL A   1      31.994  27.729  26.359  1.00  0.00    -0.052 C 
ATOM      2  H   UNL A   1      31.858  26.779  26.832  1.00  0.00     0.027 H 
ATOM      3  H   UNL A   1      31.286  27.923  25.580  1.00  0.00     0.027 H 
ENDROOT
BRANCH   1   4
ATOM      4  C   UNL A   1      33.377  27.735  25.691  1.00  0.00    -0.036 C 
ATOM      5  H   UNL A   1      33.286  28.211  24.737  1.00  0.00     0.028 H 
ATOM      6  H   UNL A   1      34.036  28.256  26.353  1.00  0.00     0.028 H 
BRANCH   4   7
ATOM      7  C   UNL A   1      33.977  26.343  25.477  1.00  0.00     0.017 C 
ATOM      8  H   UNL A   1      34.953  26.309  25.915  1.00  0.00     0.049 H 
ATOM      9  H   UNL A   1      33.341  25.617  25.939  1.00  0.00     0.049 H 
BRANCH   7  10
ATOM     10  N   UNL A   1      34.079  26.046  24.066  1.00  0.00    -0.356 N 
ATOM     11  C   UNL A   1      33.243  25.369  23.232  1.00  0.00     0.227 C 
ATOM     12  O   UNL A   1      33.677  25.180  22.094  1.00  0.00    -0.274 OA
ATOM     13  H   UNL A   1      34.894  26.390  23.636  1.00  0.00     0.163 HD
BRANCH  11  14
ATOM     14  C   UNL A   1      31.841  24.947  23.713  1.00  0.00     0.060 C 
ATOM     15  H   UNL A   1      31.994  24.844  24.766  1.00  0.00     0.045 H 
BRANCH  14  16
ATOM     16  C   UNL A   1      31.368  23.621  23.109  1.00  0.00    -0.049 C 
ATOM     17  H   UNL A   1      32.101  23.264  22.416  1.00  0.00     0.024 H 
ATOM     18  H   UNL A   1      30.439  23.771  22.600  1.00  0.00     0.024 H 
ATOM     19  H   UNL A   1      31.236  22.901  23.890  1.00  0.00     0.024 H 
ENDBRANCH  14  16
BRANCH  14  20
ATOM     20  C   UNL A   1      30.731  25.979  23.498  1.00  0.00    -0.036 A 
ATOM     21  C   UNL A   1      29.461  25.861  24.078  1.00  0.00    -0.058 A 
ATOM     22  C   UNL A   1      31.019  27.147  22.776  1.00  0.00    -0.058 A 
ATOM     23  C   UNL A   1      28.489  26.846  23.889  1.00  0.00    -0.051 A 
ATOM     24  H   UNL A   1      29.240  25.034  24.653  1.00  0.00     0.063 H 
ATOM     25  C   UNL A   1      30.060  28.156  22.622  1.00  0.00    -0.051 A 
ATOM     26  H   UNL A   1      31.952  27.266  22.352  1.00  0.00     0.063 H 
ATOM     27  C   UNL A   1      28.777  28.006  23.162  1.00  0.00     0.023 A 
ATOM     28  H   UNL A   1      27.547  26.717  24.291  1.00  0.00     0.063 H 
ATOM     29  H   UNL A   1      30.302  29.018  22.108  1.00  0.00     0.063 H 
BRANCH  27  30
ATOM     30  C   UNL A   1      27.704  29.050  23.054  1.00  0.00     0.202 C 
ATOM     31  O   UNL A   1      26.534  28.701  23.212  1.00  0.00    -0.288 OA
BRANCH  30  32
ATOM     32  C   UNL A   1      28.077  30.430  22.816  1.00  0.00     0.075 A 
ATOM     33  C   UNL A   1      28.502  31.397  23.705  1.00  0.00    -0.040 A 
ATOM     34  S   UNL A   1      28.040  31.015  21.209  1.00  0.00    -0.140 S 
ATOM     35  C   UNL A   1      28.742  32.647  23.062  1.00  0.00    -0.051 A 
ATOM     36  H   UNL A   1      28.631  31.235  24.716  1.00  0.00     0.064 H 
ATOM     37  C   UNL A   1      28.524  32.578  21.704  1.00  0.00    -0.009 A 
ATOM     38  H   UNL A   1      29.044  33.501  23.556  1.00  0.00     0.063 H 
ATOM     39  H   UNL A   1      28.640  33.377  21.061  1.00  0.00     0.074 H 
ENDBRANCH  30  32
ENDBRANCH  27  30
ENDBRANCH  14  20
ENDBRANCH  11  14
ENDBRANCH   7  10
ENDBRANCH   4   7
ENDBRANCH   1   4
BRANCH   1  40
ATOM     40  C   UNL A   1      31.779  28.820  27.412  1.00  0.00    -0.052 C 
ATOM     41  H   UNL A   1      32.688  28.935  27.964  1.00  0.00     0.027 H 
ATOM     42  H   UNL A   1      30.957  28.496  28.018  1.00  0.00     0.027 H 
BRANCH  40  43
ATOM     43  C   UNL A   1      31.386  30.186  26.848  1.00  0.00    -0.036 C 
ATOM     44  H   UNL A   1      30.902  30.741  27.624  1.00  0.00     0.028 H 
ATOM     45  H   UNL A   1      30.750  29.998  26.009  1.00  0.00     0.028 H 
BRANCH  43  46
ATOM     46  C   UNL A   1      32.557  31.013  26.330  1.00  0.00     0.018 C 
ATOM     47  H   UNL A   1      32.557  30.979  25.260  1.00  0.00     0.049 H 
ATOM     48  H   UNL A   1      33.458  30.596  26.730  1.00  0.00     0.049 H 
BRANCH  46  49
ATOM     49  N   UNL A   1      32.477  32.400  26.756  1.00  0.00    -0.352 N 
ATOM     50  C   UNL A   1      33.233  33.068  27.684  1.00  0.00     0.251 C 
ATOM     51  H   UNL A   1      31.779  32.938  26.315  1.00  0.00     0.163 HD
ATOM     52  O   UNL A   1      32.898  34.185  28.071  1.00  0.00    -0.269 OA
BRANCH  50  53
ATOM     53  C   UNL A   1      34.445  32.430  28.241  1.00  0.00     0.039 A 
ATOM     54  C   UNL A   1      35.615  33.183  28.348  1.00  0.00    -0.049 A 
ATOM     55  C   UNL A   1      34.425  31.095  28.658  1.00  0.00    -0.049 A 
ATOM     56  C   UNL A   1      36.748  32.618  28.936  1.00  0.00    -0.053 A 
ATOM     57  H   UNL A   1      35.642  34.152  27.995  1.00  0.00     0.063 H 
ATOM     58  C   UNL A   1      35.531  30.558  29.312  1.00  0.00    -0.053 A 
ATOM     59  H   UNL A   1      33.593  30.510  28.482  1.00  0.00     0.063 H 
ATOM     60  C   UNL A   1      36.703  31.315  29.459  1.00  0.00    -0.014 A 
ATOM     61  H   UNL A   1      37.624  33.162  28.986  1.00  0.00     0.063 H 
ATOM     62  H   UNL A   1      35.489  29.599  29.689  1.00  0.00     0.063 H 
BRANCH  60  63
ATOM     63  C   UNL A   1      37.867  30.741  30.182  1.00  0.00     0.031 A 
ATOM     64  C   UNL A   1      38.152  31.137  31.604  1.00  0.00     0.074 A 
ATOM     65  C   UNL A   1      38.702  29.905  29.532  1.00  0.00     0.049 A 
ATOM     66  N   UNL A   1      39.149  30.785  32.376  1.00  0.00    -0.248 NA
ATOM     67  C   UNL A   1      37.203  32.066  32.238  1.00  0.00    -0.034 C 
ATOM     68  C   UNL A   1      38.560  29.484  28.137  1.00  0.00    -0.036 A 
ATOM     69  N   UNL A   1      39.843  29.268  29.953  1.00  0.00    -0.354 N 
ATOM     70  C   UNL A   1      38.956  31.457  33.576  1.00  0.00     0.074 A 
ATOM     71  C   UNL A   1      37.773  32.275  33.417  1.00  0.00    -0.034 C 
ATOM     72  H   UNL A   1      36.324  32.455  31.863  1.00  0.00     0.065 H 
ATOM     73  C   UNL A   1      39.559  28.643  27.826  1.00  0.00    -0.036 A 
ATOM     74  H   UNL A   1      37.810  29.785  27.495  1.00  0.00     0.065 H 
ATOM     75  C   UNL A   1      40.439  28.500  28.982  1.00  0.00     0.049 A 
ATOM     76  H   UNL A   1      40.202  29.353  30.868  1.00  0.00     0.167 HD
ATOM     77  C   UNL A   1      39.687  31.381  34.714  1.00  0.00     0.037 A 
ATOM     78  H   UNL A   1      37.420  32.935  34.128  1.00  0.00     0.065 H 
ATOM     79  H   UNL A   1      39.685  28.173  26.916  1.00  0.00     0.065 H 
ATOM     80  C   UNL A   1      41.573  27.775  29.014  1.00  0.00     0.037 A 
ATOM     81  C   UNL A   1      40.848  30.545  34.875  1.00  0.00     0.049 A 
ATOM     82  C   UNL A   1      42.372  27.724  30.290  1.00  0.00     0.074 A 
ATOM     83  C   UNL A   1      41.616  30.349  36.010  1.00  0.00    -0.036 A 
ATOM     84  N   UNL A   1      41.414  29.773  33.872  1.00  0.00    -0.354 N 
ATOM     85  N   UNL A   1      42.132  28.300  31.442  1.00  0.00    -0.248 NA
ATOM     86  C   UNL A   1      43.600  26.916  30.270  1.00  0.00    -0.034 C 
ATOM     87  C   UNL A   1      42.680  29.506  35.679  1.00  0.00    -0.036 A 
ATOM     88  H   UNL A   1      41.434  30.755  36.941  1.00  0.00     0.065 H 
ATOM     89  C   UNL A   1      42.540  29.124  34.354  1.00  0.00     0.049 A 
ATOM     90  H   UNL A   1      41.068  29.697  32.954  1.00  0.00     0.167 HD
ATOM     91  C   UNL A   1      43.156  27.899  32.291  1.00  0.00     0.074 A 
ATOM     92  C   UNL A   1      44.008  27.014  31.526  1.00  0.00    -0.034 C 
ATOM     93  H   UNL A   1      44.030  26.405  29.484  1.00  0.00     0.065 H 
ATOM     94  H   UNL A   1      43.441  29.217  36.313  1.00  0.00     0.065 H 
ATOM     95  C   UNL A   1      43.372  28.236  33.585  1.00  0.00     0.037 A 
ATOM     96  H   UNL A   1      44.830  26.522  31.911  1.00  0.00     0.065 H 
BRANCH  77  97
ATOM     97  C   UNL A   1      39.258  32.216  35.884  1.00  0.00     0.064 A 
ATOM     98  C   UNL A   1      38.392  31.717  36.869  1.00  0.00     0.173 A 
ATOM     99  C   UNL A   1      39.783  33.505  36.066  1.00  0.00     0.173 A 
ATOM    100  F   UNL A   1      37.854  30.496  36.739  1.00  0.00    -0.203 F 
ATOM    101  C   UNL A   1      38.056  32.483  37.983  1.00  0.00     0.198 A 
ATOM    102  C   UNL A   1      39.470  34.255  37.197  1.00  0.00     0.198 A 
ATOM    103  F   UNL A   1      40.621  34.029  35.158  1.00  0.00    -0.203 F 
ATOM    104  F   UNL A   1      37.200  31.998  38.893  1.00  0.00    -0.200 F 
ATOM    105  C   UNL A   1      38.604  33.746  38.152  1.00  0.00     0.200 A 
ATOM    106  F   UNL A   1      40.013  35.468  37.366  1.00  0.00    -0.200 F 
ATOM    107  F   UNL A   1      38.295  34.472  39.235  1.00  0.00    -0.200 F 
ENDBRANCH  77  97
BRANCH  80 108
ATOM    108  C   UNL A   1      42.027  27.035  27.806  1.00  0.00     0.064 A 
ATOM    109  C   UNL A   1      41.604  25.721  27.560  1.00  0.00     0.173 A 
ATOM    110  C   UNL A   1      42.927  27.609  26.895  1.00  0.00     0.173 A 
ATOM    111  F   UNL A   1      40.760  25.119  28.412  1.00  0.00    -0.203 F 
ATOM    112  C   UNL A   1      42.090  24.998  26.472  1.00  0.00     0.198 A 
ATOM    113  C   UNL A   1      43.384  26.897  25.787  1.00  0.00     0.198 A 
ATOM    114  F   UNL A   1      43.360  28.865  27.078  1.00  0.00    -0.203 F 
ATOM    115  F   UNL A   1      41.721  23.721  26.302  1.00  0.00    -0.200 F 
ATOM    116  C   UNL A   1      42.977  25.587  25.586  1.00  0.00     0.200 A 
ATOM    117  F   UNL A   1      44.228  27.477  24.923  1.00  0.00    -0.200 F 
ATOM    118  F   UNL A   1      43.448  24.891  24.543  1.00  0.00    -0.200 F 
ENDBRANCH  80 108
BRANCH  95 119
ATOM    119  C   UNL A   1      44.554  27.613  34.271  1.00  0.00     0.064 A 
ATOM    120  C   UNL A   1      45.805  28.246  34.310  1.00  0.00     0.173 A 
ATOM    121  C   UNL A   1      44.422  26.381  34.931  1.00  0.00     0.173 A 
ATOM    122  F   UNL A   1      45.988  29.418  33.683  1.00  0.00    -0.203 F 
ATOM    123  C   UNL A   1      46.888  27.654  34.955  1.00  0.00     0.198 A 
ATOM    124  C   UNL A   1      45.497  25.809  35.606  1.00  0.00     0.198 A 
ATOM    125  F   UNL A   1      43.246  25.736  34.932  1.00  0.00    -0.203 F 
ATOM    126  F   UNL A   1      48.088  28.251  34.930  1.00  0.00    -0.200 F 
ATOM    127  C   UNL A   1      46.731  26.441  35.610  1.00  0.00     0.200 A 
ATOM    128  F   UNL A   1      45.339  24.646  36.252  1.00  0.00    -0.200 F 
ATOM    129  F   UNL A   1      47.773  25.878  36.236  1.00  0.00    -0.200 F 
ENDBRANCH  95 119
ENDBRANCH  60  63
ENDBRANCH  50  53
ENDBRANCH  46  49
ENDBRANCH  43  46
ENDBRANCH  40  43
ENDBRANCH   1  40
TORSDOF 17
ENDMDL
MODEL 9
REMARK VINA RESULT:     -11.6      5.941     10.282
REMARK SMILES C[C@@H](C(=O)NCCCCCCNC(=O)c1ccc(-c2c3nc(c(-c4c(F)c(F)c(F)c(F)c4F)c4ccc([nH]4)c(-c4c(F)c(F)c(F)c(F)c4F)c4nc(c(-c5c(F)c(F)c(F)c(F)c5F)c5ccc2[nH]5)C=C4)C=C3)cc1)c1ccc(C(=O)c2cccs2)cc1
REMARK SMILES IDX 8 1 7 4 6 7 5 10 3 11 4 12 2 14 1 16 78 20 79 21 90 22 80 23
REMARK SMILES IDX 89 25 81 27 82 30 83 31 84 32 85 33 88 34 86 35 87 37 9 40
REMARK SMILES IDX 10 43 11 46 12 49 13 50 14 52 15 53 16 54 77 55 17 56 76 58
REMARK SMILES IDX 18 60 19 63 20 64 70 65 21 66 75 67 69 68 71 69 22 70 74 71
REMARK SMILES IDX 68 73 67 75 23 77 55 80 35 81 54 82 36 83 39 84 53 85 72 86
REMARK SMILES IDX 37 87 38 89 52 91 73 92 40 95 24 97 25 98 33 99 26 100
REMARK SMILES IDX 27 101 31 102 34 103 28 104 29 105 32 106 30 107 56 108
REMARK SMILES IDX 57 109 65 110 58 111 59 112 63 113 66 114 60 115 61 116
REMARK SMILES IDX 64 117 62 118 41 119 42 120 50 121 43 122 44 123 48 124
REMARK SMILES IDX 51 125 45 126 46 127 49 128 47 129
REMARK H PARENT 8 2 8 3 7 5 7 6 6 8 6 9 5 13 2 15 1 17 1 18 1 19 79 24 90 26
REMARK H PARENT 80 28 89 29 85 36 86 38 87 39 9 41 9 42 10 44 10 45 11 47
REMARK H PARENT 11 48 12 51 16 57 77 59 17 61 76 62 75 72 69 74 71 76 74 78
REMARK H PARENT 68 79 36 88 39 90 72 93 37 94 73 96
REMARK Flexibility Score: inf
ROOT
ATOM      1  C   UNL A   1      37.026  22.031  24.395  1.00  0.00    -0.052 C 
ATOM      2  H   UNL A   1      37.480  22.562  25.205  1.00  0.00     0.027 H 
ATOM      3  H   UNL A   1      37.680  21.887  23.561  1.00  0.00     0.027 H 
ENDROOT
BRANCH   1   4
ATOM      4  C   UNL A   1      35.848  22.868  23.875  1.00  0.00    -0.036 C 
ATOM      5  H   UNL A   1      36.174  23.403  23.008  1.00  0.00     0.028 H 
ATOM      6  H   UNL A   1      35.053  22.184  23.667  1.00  0.00     0.028 H 
BRANCH   4   7
ATOM      7  C   UNL A   1      35.303  23.880  24.886  1.00  0.00     0.017 C 
ATOM      8  H   UNL A   1      34.772  23.359  25.655  1.00  0.00     0.049 H 
ATOM      9  H   UNL A   1      36.122  24.425  25.308  1.00  0.00     0.049 H 
BRANCH   7  10
ATOM     10  N   UNL A   1      34.407  24.812  24.238  1.00  0.00    -0.356 N 
ATOM     11  C   UNL A   1      33.052  24.807  24.109  1.00  0.00     0.227 C 
ATOM     12  O   UNL A   1      32.591  25.693  23.386  1.00  0.00    -0.274 OA
ATOM     13  H   UNL A   1      34.854  25.580  23.816  1.00  0.00     0.163 HD
BRANCH  11  14
ATOM     14  C   UNL A   1      32.201  23.782  24.883  1.00  0.00     0.060 C 
ATOM     15  H   UNL A   1      31.208  24.097  24.642  1.00  0.00     0.045 H 
BRANCH  14  16
ATOM     16  C   UNL A   1      32.424  23.832  26.397  1.00  0.00    -0.049 C 
ATOM     17  H   UNL A   1      33.387  23.424  26.630  1.00  0.00     0.024 H 
ATOM     18  H   UNL A   1      31.666  23.259  26.890  1.00  0.00     0.024 H 
ATOM     19  H   UNL A   1      32.379  24.848  26.731  1.00  0.00     0.024 H 
ENDBRANCH  14  16
BRANCH  14  20
ATOM     20  C   UNL A   1      32.354  22.325  24.437  1.00  0.00    -0.036 A 
ATOM     21  C   UNL A   1      32.633  21.282  25.330  1.00  0.00    -0.058 A 
ATOM     22  C   UNL A   1      32.106  21.995  23.096  1.00  0.00    -0.058 A 
ATOM     23  C   UNL A   1      32.726  19.961  24.887  1.00  0.00    -0.051 A 
ATOM     24  H   UNL A   1      32.773  21.493  26.329  1.00  0.00     0.063 H 
ATOM     25  C   UNL A   1      32.155  20.666  22.658  1.00  0.00    -0.051 A 
ATOM     26  H   UNL A   1      31.883  22.744  22.421  1.00  0.00     0.063 H 
ATOM     27  C   UNL A   1      32.486  19.636  23.548  1.00  0.00     0.023 A 
ATOM     28  H   UNL A   1      32.974  19.215  25.556  1.00  0.00     0.063 H 
ATOM     29  H   UNL A   1      31.946  20.444  21.673  1.00  0.00     0.063 H 
BRANCH  27  30
ATOM     30  C   UNL A   1      32.541  18.188  23.157  1.00  0.00     0.202 C 
ATOM     31  O   UNL A   1      32.156  17.874  22.031  1.00  0.00    -0.288 OA
BRANCH  30  32
ATOM     32  C   UNL A   1      33.083  17.221  24.089  1.00  0.00     0.075 A 
ATOM     33  C   UNL A   1      32.435  16.400  24.991  1.00  0.00    -0.040 A 
ATOM     34  S   UNL A   1      34.777  16.978  24.114  1.00  0.00    -0.140 S 
ATOM     35  C   UNL A   1      33.348  15.609  25.748  1.00  0.00    -0.051 A 
ATOM     36  H   UNL A   1      31.409  16.363  25.103  1.00  0.00     0.064 H 
ATOM     37  C   UNL A   1      34.655  15.830  25.374  1.00  0.00    -0.009 A 
ATOM     38  H   UNL A   1      33.063  14.949  26.488  1.00  0.00     0.063 H 
ATOM     39  H   UNL A   1      35.465  15.356  25.804  1.00  0.00     0.074 H 
ENDBRANCH  30  32
ENDBRANCH  27  30
ENDBRANCH  14  20
ENDBRANCH  11  14
ENDBRANCH   7  10
ENDBRANCH   4   7
ENDBRANCH   1   4
BRANCH   1  40
ATOM     40  C   UNL A   1      36.656  20.630  24.893  1.00  0.00    -0.052 C 
ATOM     41  H   UNL A   1      35.939  20.215  24.217  1.00  0.00     0.027 H 
ATOM     42  H   UNL A   1      36.276  20.755  25.886  1.00  0.00     0.027 H 
BRANCH  40  43
ATOM     43  C   UNL A   1      37.831  19.658  24.999  1.00  0.00    -0.036 C 
ATOM     44  H   UNL A   1      38.144  19.402  24.009  1.00  0.00     0.028 H 
ATOM     45  H   UNL A   1      37.480  18.815  25.557  1.00  0.00     0.028 H 
BRANCH  43  46
ATOM     46  C   UNL A   1      39.037  20.207  25.752  1.00  0.00     0.018 C 
ATOM     47  H   UNL A   1      38.718  20.543  26.717  1.00  0.00     0.049 H 
ATOM     48  H   UNL A   1      39.446  21.012  25.178  1.00  0.00     0.049 H 
BRANCH  46  49
ATOM     49  N   UNL A   1      40.076  19.205  25.925  1.00  0.00    -0.352 N 
ATOM     50  C   UNL A   1      41.421  19.377  26.126  1.00  0.00     0.251 C 
ATOM     51  H   UNL A   1      39.770  18.269  25.892  1.00  0.00     0.163 HD
ATOM     52  O   UNL A   1      42.188  18.420  26.046  1.00  0.00    -0.269 OA
BRANCH  50  53
ATOM     53  C   UNL A   1      41.955  20.725  26.416  1.00  0.00     0.039 A 
ATOM     54  C   UNL A   1      42.275  21.567  25.350  1.00  0.00    -0.049 A 
ATOM     55  C   UNL A   1      42.134  21.157  27.734  1.00  0.00    -0.049 A 
ATOM     56  C   UNL A   1      42.713  22.868  25.606  1.00  0.00    -0.053 A 
ATOM     57  H   UNL A   1      42.188  21.230  24.379  1.00  0.00     0.063 H 
ATOM     58  C   UNL A   1      42.498  22.477  27.986  1.00  0.00    -0.053 A 
ATOM     59  H   UNL A   1      41.997  20.499  28.518  1.00  0.00     0.063 H 
ATOM     60  C   UNL A   1      42.789  23.346  26.924  1.00  0.00    -0.014 A 
ATOM     61  H   UNL A   1      42.982  23.481  24.820  1.00  0.00     0.063 H 
ATOM     62  H   UNL A   1      42.554  22.817  28.958  1.00  0.00     0.063 H 
BRANCH  60  63
ATOM     63  C   UNL A   1      43.150  24.760  27.205  1.00  0.00     0.031 A 
ATOM     64  C   UNL A   1      44.547  25.254  26.951  1.00  0.00     0.074 A 
ATOM     65  C   UNL A   1      42.229  25.583  27.746  1.00  0.00     0.049 A 
ATOM     66  N   UNL A   1      45.062  26.434  27.188  1.00  0.00    -0.248 NA
ATOM     67  C   UNL A   1      45.498  24.290  26.376  1.00  0.00    -0.034 C 
ATOM     68  C   UNL A   1      40.854  25.208  28.084  1.00  0.00    -0.036 A 
ATOM     69  N   UNL A   1      42.312  26.902  28.120  1.00  0.00    -0.354 N 
ATOM     70  C   UNL A   1      46.394  26.351  26.802  1.00  0.00     0.074 A 
ATOM     71  C   UNL A   1      46.623  24.993  26.362  1.00  0.00    -0.034 C 
ATOM     72  H   UNL A   1      45.334  23.320  26.064  1.00  0.00     0.065 H 
ATOM     73  C   UNL A   1      40.218  26.276  28.592  1.00  0.00    -0.036 A 
ATOM     74  H   UNL A   1      40.441  24.272  27.952  1.00  0.00     0.065 H 
ATOM     75  C   UNL A   1      41.150  27.397  28.659  1.00  0.00     0.049 A 
ATOM     76  H   UNL A   1      43.128  27.443  28.010  1.00  0.00     0.167 HD
ATOM     77  C   UNL A   1      47.333  27.327  26.797  1.00  0.00     0.037 A 
ATOM     78  H   UNL A   1      47.541  24.619  26.075  1.00  0.00     0.065 H 
ATOM     79  H   UNL A   1      39.230  26.299  28.886  1.00  0.00     0.065 H 
ATOM     80  C   UNL A   1      40.870  28.614  29.165  1.00  0.00     0.037 A 
ATOM     81  C   UNL A   1      47.094  28.684  27.212  1.00  0.00     0.049 A 
ATOM     82  C   UNL A   1      41.942  29.672  29.159  1.00  0.00     0.074 A 
ATOM     83  C   UNL A   1      47.963  29.760  27.180  1.00  0.00    -0.036 A 
ATOM     84  N   UNL A   1      45.900  29.152  27.742  1.00  0.00    -0.354 N 
ATOM     85  N   UNL A   1      43.173  29.603  28.716  1.00  0.00    -0.248 NA
ATOM     86  C   UNL A   1      41.581  30.982  29.721  1.00  0.00    -0.034 C 
ATOM     87  C   UNL A   1      47.317  30.863  27.745  1.00  0.00    -0.036 A 
ATOM     88  H   UNL A   1      48.924  29.751  26.803  1.00  0.00     0.065 H 
ATOM     89  C   UNL A   1      46.022  30.492  28.070  1.00  0.00     0.049 A 
ATOM     90  H   UNL A   1      45.087  28.611  27.866  1.00  0.00     0.167 HD
ATOM     91  C   UNL A   1      43.722  30.863  28.914  1.00  0.00     0.074 A 
ATOM     92  C   UNL A   1      42.682  31.683  29.498  1.00  0.00    -0.034 C 
ATOM     93  H   UNL A   1      40.701  31.278  30.170  1.00  0.00     0.065 H 
ATOM     94  H   UNL A   1      47.733  31.795  27.895  1.00  0.00     0.065 H 
ATOM     95  C   UNL A   1      44.975  31.300  28.640  1.00  0.00     0.037 A 
ATOM     96  H   UNL A   1      42.787  32.687  29.714  1.00  0.00     0.065 H 
BRANCH  77  97
ATOM     97  C   UNL A   1      48.713  26.974  26.324  1.00  0.00     0.064 A 
ATOM     98  C   UNL A   1      49.677  26.439  27.193  1.00  0.00     0.173 A 
ATOM     99  C   UNL A   1      49.051  27.096  24.967  1.00  0.00     0.173 A 
ATOM    100  F   UNL A   1      49.409  26.311  28.501  1.00  0.00    -0.203 F 
ATOM    101  C   UNL A   1      50.931  26.056  26.724  1.00  0.00     0.198 A 
ATOM    102  C   UNL A   1      50.295  26.682  24.497  1.00  0.00     0.198 A 
ATOM    103  F   UNL A   1      48.165  27.595  24.091  1.00  0.00    -0.203 F 
ATOM    104  F   UNL A   1      51.847  25.580  27.579  1.00  0.00    -0.200 F 
ATOM    105  C   UNL A   1      51.235  26.166  25.376  1.00  0.00     0.200 A 
ATOM    106  F   UNL A   1      50.580  26.775  23.191  1.00  0.00    -0.200 F 
ATOM    107  F   UNL A   1      52.435  25.778  24.924  1.00  0.00    -0.200 F 
ENDBRANCH  77  97
BRANCH  80 108
ATOM    108  C   UNL A   1      39.520  28.906  29.719  1.00  0.00     0.064 A 
ATOM    109  C   UNL A   1      38.512  29.459  28.916  1.00  0.00     0.173 A 
ATOM    110  C   UNL A   1      39.223  28.679  31.072  1.00  0.00     0.173 A 
ATOM    111  F   UNL A   1      38.752  29.715  27.622  1.00  0.00    -0.203 F 
ATOM    112  C   UNL A   1      37.273  29.808  29.452  1.00  0.00     0.198 A 
ATOM    113  C   UNL A   1      37.971  28.994  31.597  1.00  0.00     0.198 A 
ATOM    114  F   UNL A   1      40.148  28.146  31.883  1.00  0.00    -0.203 F 
ATOM    115  F   UNL A   1      36.354  30.398  28.677  1.00  0.00    -0.200 F 
ATOM    116  C   UNL A   1      37.003  29.572  30.790  1.00  0.00     0.200 A 
ATOM    117  F   UNL A   1      37.709  28.748  32.888  1.00  0.00    -0.200 F 
ATOM    118  F   UNL A   1      35.814  29.912  31.307  1.00  0.00    -0.200 F 
ENDBRANCH  80 108
BRANCH  95 119
ATOM    119  C   UNL A   1      45.280  32.742  28.928  1.00  0.00     0.064 A 
ATOM    120  C   UNL A   1      45.851  33.148  30.143  1.00  0.00     0.173 A 
ATOM    121  C   UNL A   1      45.031  33.727  27.959  1.00  0.00     0.173 A 
ATOM    122  F   UNL A   1      46.095  32.248  31.108  1.00  0.00    -0.203 F 
ATOM    123  C   UNL A   1      46.131  34.490  30.391  1.00  0.00     0.198 A 
ATOM    124  C   UNL A   1      45.346  35.062  28.196  1.00  0.00     0.198 A 
ATOM    125  F   UNL A   1      44.495  33.392  26.776  1.00  0.00    -0.203 F 
ATOM    126  F   UNL A   1      46.623  34.861  31.581  1.00  0.00    -0.200 F 
ATOM    127  C   UNL A   1      45.887  35.444  29.414  1.00  0.00     0.200 A 
ATOM    128  F   UNL A   1      45.126  35.980  27.244  1.00  0.00    -0.200 F 
ATOM    129  F   UNL A   1      46.164  36.733  29.651  1.00  0.00    -0.200 F 
ENDBRANCH  95 119
ENDBRANCH  60  63
ENDBRANCH  50  53
ENDBRANCH  46  49
ENDBRANCH  43  46
ENDBRANCH  40  43
ENDBRANCH   1  40
TORSDOF 17
ENDMDL
MODEL 10
REMARK VINA RESULT:     -11.5      2.536      8.314
REMARK SMILES C[C@@H](C(=O)NCCCCCCNC(=O)c1ccc(-c2c3nc(c(-c4c(F)c(F)c(F)c(F)c4F)c4ccc([nH]4)c(-c4c(F)c(F)c(F)c(F)c4F)c4nc(c(-c5c(F)c(F)c(F)c(F)c5F)c5ccc2[nH]5)C=C4)C=C3)cc1)c1ccc(C(=O)c2cccs2)cc1
REMARK SMILES IDX 8 1 7 4 6 7 5 10 3 11 4 12 2 14 1 16 78 20 79 21 90 22 80 23
REMARK SMILES IDX 89 25 81 27 82 30 83 31 84 32 85 33 88 34 86 35 87 37 9 40
REMARK SMILES IDX 10 43 11 46 12 49 13 50 14 52 15 53 16 54 77 55 17 56 76 58
REMARK SMILES IDX 18 60 19 63 20 64 70 65 21 66 75 67 69 68 71 69 22 70 74 71
REMARK SMILES IDX 68 73 67 75 23 77 55 80 35 81 54 82 36 83 39 84 53 85 72 86
REMARK SMILES IDX 37 87 38 89 52 91 73 92 40 95 24 97 25 98 33 99 26 100
REMARK SMILES IDX 27 101 31 102 34 103 28 104 29 105 32 106 30 107 56 108
REMARK SMILES IDX 57 109 65 110 58 111 59 112 63 113 66 114 60 115 61 116
REMARK SMILES IDX 64 117 62 118 41 119 42 120 50 121 43 122 44 123 48 124
REMARK SMILES IDX 51 125 45 126 46 127 49 128 47 129
REMARK H PARENT 8 2 8 3 7 5 7 6 6 8 6 9 5 13 2 15 1 17 1 18 1 19 79 24 90 26
REMARK H PARENT 80 28 89 29 85 36 86 38 87 39 9 41 9 42 10 44 10 45 11 47
REMARK H PARENT 11 48 12 51 16 57 77 59 17 61 76 62 75 72 69 74 71 76 74 78
REMARK H PARENT 68 79 36 88 39 90 72 93 37 94 73 96
REMARK Flexibility Score: inf
ROOT
ATOM      1  C   UNL A   1      35.131  32.589  28.832  1.00  0.00    -0.052 C 
ATOM      2  H   UNL A   1      36.112  32.331  28.491  1.00  0.00     0.027 H 
ATOM      3  H   UNL A   1      34.941  32.295  29.844  1.00  0.00     0.027 H 
ENDROOT
BRANCH   1   4
ATOM      4  C   UNL A   1      34.111  31.833  27.969  1.00  0.00    -0.036 C 
ATOM      5  H   UNL A   1      33.195  31.761  28.517  1.00  0.00     0.028 H 
ATOM      6  H   UNL A   1      34.008  32.388  27.060  1.00  0.00     0.028 H 
BRANCH   4   7
ATOM      7  C   UNL A   1      34.546  30.420  27.574  1.00  0.00     0.017 C 
ATOM      8  H   UNL A   1      34.747  30.393  26.523  1.00  0.00     0.049 H 
ATOM      9  H   UNL A   1      35.428  30.162  28.124  1.00  0.00     0.049 H 
BRANCH   7  10
ATOM     10  N   UNL A   1      33.507  29.464  27.884  1.00  0.00    -0.356 N 
ATOM     11  C   UNL A   1      32.661  28.768  27.075  1.00  0.00     0.227 C 
ATOM     12  O   UNL A   1      31.796  28.113  27.660  1.00  0.00    -0.274 OA
ATOM     13  H   UNL A   1      33.390  29.288  28.845  1.00  0.00     0.163 HD
BRANCH  11  14
ATOM     14  C   UNL A   1      32.858  28.786  25.547  1.00  0.00     0.060 C 
ATOM     15  H   UNL A   1      33.657  29.488  25.440  1.00  0.00     0.045 H 
BRANCH  14  16
ATOM     16  C   UNL A   1      31.620  29.265  24.784  1.00  0.00    -0.049 C 
ATOM     17  H   UNL A   1      31.906  30.015  24.075  1.00  0.00     0.024 H 
ATOM     18  H   UNL A   1      30.913  29.677  25.472  1.00  0.00     0.024 H 
ATOM     19  H   UNL A   1      31.178  28.439  24.268  1.00  0.00     0.024 H 
ENDBRANCH  14  16
BRANCH  14  20
ATOM     20  C   UNL A   1      33.308  27.462  24.924  1.00  0.00    -0.036 A 
ATOM     21  C   UNL A   1      33.689  26.353  25.690  1.00  0.00    -0.058 A 
ATOM     22  C   UNL A   1      33.241  27.309  23.531  1.00  0.00    -0.058 A 
ATOM     23  C   UNL A   1      34.056  25.150  25.082  1.00  0.00    -0.051 A 
ATOM     24  H   UNL A   1      33.701  26.426  26.718  1.00  0.00     0.063 H 
ATOM     25  C   UNL A   1      33.565  26.090  22.922  1.00  0.00    -0.051 A 
ATOM     26  H   UNL A   1      32.947  28.106  22.945  1.00  0.00     0.063 H 
ATOM     27  C   UNL A   1      33.995  25.003  23.692  1.00  0.00     0.023 A 
ATOM     28  H   UNL A   1      34.374  24.360  25.665  1.00  0.00     0.063 H 
ATOM     29  H   UNL A   1      33.485  25.993  21.898  1.00  0.00     0.063 H 
BRANCH  27  30
ATOM     30  C   UNL A   1      34.343  23.662  23.114  1.00  0.00     0.202 C 
ATOM     31  O   UNL A   1      33.796  23.321  22.065  1.00  0.00    -0.288 OA
BRANCH  30  32
ATOM     32  C   UNL A   1      35.335  22.839  23.775  1.00  0.00     0.075 A 
ATOM     33  C   UNL A   1      36.713  22.934  23.766  1.00  0.00    -0.040 A 
ATOM     34  S   UNL A   1      34.794  21.549  24.760  1.00  0.00    -0.140 S 
ATOM     35  C   UNL A   1      37.326  21.899  24.531  1.00  0.00    -0.051 A 
ATOM     36  H   UNL A   1      37.237  23.669  23.265  1.00  0.00     0.064 H 
ATOM     37  C   UNL A   1      36.395  21.073  25.121  1.00  0.00    -0.009 A 
ATOM     38  H   UNL A   1      38.347  21.783  24.630  1.00  0.00     0.063 H 
ATOM     39  H   UNL A   1      36.638  20.263  25.714  1.00  0.00     0.074 H 
ENDBRANCH  30  32
ENDBRANCH  27  30
ENDBRANCH  14  20
ENDBRANCH  11  14
ENDBRANCH   7  10
ENDBRANCH   4   7
ENDBRANCH   1   4
BRANCH   1  40
ATOM     40  C   UNL A   1      35.003  34.115  28.801  1.00  0.00    -0.052 C 
ATOM     41  H   UNL A   1      35.341  34.458  27.846  1.00  0.00     0.027 H 
ATOM     42  H   UNL A   1      35.594  34.483  29.614  1.00  0.00     0.027 H 
BRANCH  40  43
ATOM     43  C   UNL A   1      33.585  34.643  29.024  1.00  0.00    -0.036 C 
ATOM     44  H   UNL A   1      33.084  33.980  29.698  1.00  0.00     0.028 H 
ATOM     45  H   UNL A   1      33.122  34.688  28.061  1.00  0.00     0.028 H 
BRANCH  43  46
ATOM     46  C   UNL A   1      33.522  36.051  29.605  1.00  0.00     0.018 C 
ATOM     47  H   UNL A   1      33.267  36.735  28.822  1.00  0.00     0.049 H 
ATOM     48  H   UNL A   1      34.481  36.279  30.022  1.00  0.00     0.049 H 
BRANCH  46  49
ATOM     49  N   UNL A   1      32.534  36.161  30.665  1.00  0.00    -0.352 N 
ATOM     50  C   UNL A   1      32.536  35.597  31.915  1.00  0.00     0.251 C 
ATOM     51  H   UNL A   1      31.750  36.720  30.456  1.00  0.00     0.163 HD
ATOM     52  O   UNL A   1      31.524  35.626  32.611  1.00  0.00    -0.269 OA
BRANCH  50  53
ATOM     53  C   UNL A   1      33.755  34.929  32.417  1.00  0.00     0.039 A 
ATOM     54  C   UNL A   1      33.657  33.626  32.907  1.00  0.00    -0.049 A 
ATOM     55  C   UNL A   1      34.991  35.584  32.400  1.00  0.00    -0.049 A 
ATOM     56  C   UNL A   1      34.810  32.954  33.320  1.00  0.00    -0.053 A 
ATOM     57  H   UNL A   1      32.737  33.161  32.964  1.00  0.00     0.063 H 
ATOM     58  C   UNL A   1      36.148  34.889  32.740  1.00  0.00    -0.053 A 
ATOM     59  H   UNL A   1      35.044  36.581  32.137  1.00  0.00     0.063 H 
ATOM     60  C   UNL A   1      36.069  33.566  33.202  1.00  0.00    -0.014 A 
ATOM     61  H   UNL A   1      34.736  32.004  33.714  1.00  0.00     0.063 H 
ATOM     62  H   UNL A   1      37.067  35.348  32.654  1.00  0.00     0.063 H 
BRANCH  60  63
ATOM     63  C   UNL A   1      37.313  32.826  33.536  1.00  0.00     0.031 A 
ATOM     64  C   UNL A   1      38.070  33.139  34.797  1.00  0.00     0.074 A 
ATOM     65  C   UNL A   1      37.792  31.910  32.670  1.00  0.00     0.049 A 
ATOM     66  N   UNL A   1      39.201  32.639  35.228  1.00  0.00    -0.248 NA
ATOM     67  C   UNL A   1      37.492  34.162  35.683  1.00  0.00    -0.034 C 
ATOM     68  C   UNL A   1      37.174  31.554  31.390  1.00  0.00    -0.036 A 
ATOM     69  N   UNL A   1      38.913  31.121  32.725  1.00  0.00    -0.354 N 
ATOM     70  C   UNL A   1      39.475  33.293  36.422  1.00  0.00     0.074 A 
ATOM     71  C   UNL A   1      38.418  34.260  36.626  1.00  0.00    -0.034 C 
ATOM     72  H   UNL A   1      36.599  34.671  35.593  1.00  0.00     0.065 H 
ATOM     73  C   UNL A   1      37.911  30.602  30.795  1.00  0.00    -0.036 A 
ATOM     74  H   UNL A   1      36.310  31.968  31.008  1.00  0.00     0.065 H 
ATOM     75  C   UNL A   1      39.076  30.313  31.626  1.00  0.00     0.049 A 
ATOM     76  H   UNL A   1      39.543  31.131  33.484  1.00  0.00     0.167 HD
ATOM     77  C   UNL A   1      40.503  33.089  37.280  1.00  0.00     0.037 A 
ATOM     78  H   UNL A   1      38.389  34.938  37.405  1.00  0.00     0.065 H 
ATOM     79  H   UNL A   1      37.689  30.148  29.896  1.00  0.00     0.065 H 
ATOM     80  C   UNL A   1      40.060  29.448  31.315  1.00  0.00     0.037 A 
ATOM     81  C   UNL A   1      41.538  32.108  37.085  1.00  0.00     0.049 A 
ATOM     82  C   UNL A   1      41.199  29.256  32.282  1.00  0.00     0.074 A 
ATOM     83  C   UNL A   1      42.584  31.781  37.929  1.00  0.00    -0.036 A 
ATOM     84  N   UNL A   1      41.663  31.300  35.964  1.00  0.00    -0.354 N 
ATOM     85  N   UNL A   1      41.401  29.823  33.446  1.00  0.00    -0.248 NA
ATOM     86  C   UNL A   1      42.243  28.299  31.893  1.00  0.00    -0.034 C 
ATOM     87  C   UNL A   1      43.375  30.819  37.295  1.00  0.00    -0.036 A 
ATOM     88  H   UNL A   1      42.751  32.178  38.867  1.00  0.00     0.065 H 
ATOM     89  C   UNL A   1      42.786  30.499  36.083  1.00  0.00     0.049 A 
ATOM     90  H   UNL A   1      41.044  31.297  35.198  1.00  0.00     0.167 HD
ATOM     91  C   UNL A   1      42.574  29.269  33.942  1.00  0.00     0.074 A 
ATOM     92  C   UNL A   1      43.026  28.306  32.961  1.00  0.00    -0.034 C 
ATOM     93  H   UNL A   1      42.341  27.761  31.018  1.00  0.00     0.065 H 
ATOM     94  H   UNL A   1      44.249  30.416  37.667  1.00  0.00     0.065 H 
ATOM     95  C   UNL A   1      43.219  29.536  35.103  1.00  0.00     0.037 A 
ATOM     96  H   UNL A   1      43.855  27.701  33.080  1.00  0.00     0.065 H 
BRANCH  77  97
ATOM     97  C   UNL A   1      40.567  33.937  38.517  1.00  0.00     0.064 A 
ATOM     98  C   UNL A   1      39.921  33.559  39.704  1.00  0.00     0.173 A 
ATOM     99  C   UNL A   1      41.351  35.101  38.539  1.00  0.00     0.173 A 
ATOM    100  F   UNL A   1      39.151  32.461  39.734  1.00  0.00    -0.203 F 
ATOM    101  C   UNL A   1      40.045  34.323  40.862  1.00  0.00     0.198 A 
ATOM    102  C   UNL A   1      41.497  35.846  39.707  1.00  0.00     0.198 A 
ATOM    103  F   UNL A   1      41.995  35.505  37.433  1.00  0.00    -0.203 F 
ATOM    104  F   UNL A   1      39.391  33.962  41.974  1.00  0.00    -0.200 F 
ATOM    105  C   UNL A   1      40.842  35.459  40.866  1.00  0.00     0.200 A 
ATOM    106  F   UNL A   1      42.281  36.933  39.713  1.00  0.00    -0.200 F 
ATOM    107  F   UNL A   1      40.976  36.181  41.986  1.00  0.00    -0.200 F 
ENDBRANCH  77  97
BRANCH  80 108
ATOM    108  C   UNL A   1      40.021  28.693  30.033  1.00  0.00     0.064 A 
ATOM    109  C   UNL A   1      39.418  27.430  29.955  1.00  0.00     0.173 A 
ATOM    110  C   UNL A   1      40.622  29.199  28.870  1.00  0.00     0.173 A 
ATOM    111  F   UNL A   1      38.848  26.892  31.044  1.00  0.00    -0.203 F 
ATOM    112  C   UNL A   1      39.450  26.686  28.777  1.00  0.00     0.198 A 
ATOM    113  C   UNL A   1      40.621  28.470  27.682  1.00  0.00     0.198 A 
ATOM    114  F   UNL A   1      41.207  30.405  28.886  1.00  0.00    -0.203 F 
ATOM    115  F   UNL A   1      38.927  25.453  28.752  1.00  0.00    -0.200 F 
ATOM    116  C   UNL A   1      40.048  27.208  27.641  1.00  0.00     0.200 A 
ATOM    117  F   UNL A   1      41.185  28.987  26.582  1.00  0.00    -0.200 F 
ATOM    118  F   UNL A   1      40.084  26.492  26.509  1.00  0.00    -0.200 F 
ENDBRANCH  80 108
BRANCH  95 119
ATOM    119  C   UNL A   1      44.462  28.746  35.399  1.00  0.00     0.064 A 
ATOM    120  C   UNL A   1      45.731  29.188  34.998  1.00  0.00     0.173 A 
ATOM    121  C   UNL A   1      44.384  27.547  36.125  1.00  0.00     0.173 A 
ATOM    122  F   UNL A   1      45.859  30.320  34.288  1.00  0.00    -0.203 F 
ATOM    123  C   UNL A   1      46.873  28.444  35.284  1.00  0.00     0.198 A 
ATOM    124  C   UNL A   1      45.531  26.825  36.442  1.00  0.00     0.198 A 
ATOM    125  F   UNL A   1      43.197  27.084  36.541  1.00  0.00    -0.203 F 
ATOM    126  F   UNL A   1      48.069  28.858  34.841  1.00  0.00    -0.200 F 
ATOM    127  C   UNL A   1      46.773  27.268  36.013  1.00  0.00     0.200 A 
ATOM    128  F   UNL A   1      45.434  25.698  37.162  1.00  0.00    -0.200 F 
ATOM    129  F   UNL A   1      47.874  26.558  36.295  1.00  0.00    -0.200 F 
ENDBRANCH  95 119
ENDBRANCH  60  63
ENDBRANCH  50  53
ENDBRANCH  46  49
ENDBRANCH  43  46
ENDBRANCH  40  43
ENDBRANCH   1  40
TORSDOF 17
ENDMDL
