MODEL 1
REMARK VINA RESULT:     -12.5      0.000      0.000
REMARK SMILES O=C(Cn1cnc(-c2ccccc2)c1-c1ccccc1)NCCCCCCNC(=O)c1ccc(-c2c3nc(c(-c4c(F)c(F)c(F)c(F)c4F)c4ccc([nH]4)c(-c4c(F)c(F)c(F)c(F)c4F)c4nc(c(-c5c(F)c(F)c(F)c(F)c5F)c5ccc2[nH]5)C=C4)C=C3)cc1
REMARK SMILES IDX 24 1 23 4 22 7 21 10 1 11 2 12 3 14 4 17 5 18 14 19 6 20
REMARK SMILES IDX 7 22 15 23 16 24 20 25 17 26 19 28 18 30 8 34 9 35 13 36
REMARK SMILES IDX 10 37 12 39 11 41 25 45 26 48 27 51 28 54 29 55 30 57 31 58
REMARK SMILES IDX 32 59 93 60 33 61 92 63 34 65 35 68 36 69 86 70 37 71 91 72
REMARK SMILES IDX 85 73 87 74 38 75 90 76 84 78 83 80 39 82 71 85 51 86 70 87
REMARK SMILES IDX 52 88 55 89 69 90 88 91 53 92 54 94 68 96 89 97 56 100
REMARK SMILES IDX 40 102 41 103 49 104 42 105 43 106 47 107 50 108 44 109
REMARK SMILES IDX 45 110 48 111 46 112 72 113 73 114 81 115 74 116 75 117
REMARK SMILES IDX 79 118 82 119 76 120 77 121 80 122 78 123 57 124 58 125
REMARK SMILES IDX 66 126 59 127 60 128 64 129 67 130 61 131 62 132 65 133
REMARK SMILES IDX 63 134
REMARK H PARENT 24 2 24 3 23 5 23 6 22 8 22 9 21 13 3 15 3 16 5 21 16 27 20 29
REMARK H PARENT 17 31 19 32 18 33 9 38 13 40 10 42 12 43 11 44 25 46 25 47
REMARK H PARENT 26 49 26 50 27 52 27 53 28 56 32 62 93 64 33 66 92 67 91 77
REMARK H PARENT 85 79 87 81 90 83 84 84 52 93 55 95 88 98 53 99 89 101
REMARK Flexibility Score: inf
ROOT
ATOM      1  C   UNL A   1      39.013  21.721  25.781  1.00  0.00    -0.052 C 
ATOM      2  H   UNL A   1      39.339  21.949  24.787  1.00  0.00     0.027 H 
ATOM      3  H   UNL A   1      38.316  20.912  25.847  1.00  0.00     0.027 H 
ENDROOT
BRANCH   1   4
ATOM      4  C   UNL A   1      38.262  22.945  26.315  1.00  0.00    -0.036 C 
ATOM      5  H   UNL A   1      37.635  22.626  27.122  1.00  0.00     0.028 H 
ATOM      6  H   UNL A   1      39.010  23.649  26.616  1.00  0.00     0.028 H 
BRANCH   4   7
ATOM      7  C   UNL A   1      37.388  23.659  25.291  1.00  0.00     0.017 C 
ATOM      8  H   UNL A   1      37.795  24.632  25.113  1.00  0.00     0.049 H 
ATOM      9  H   UNL A   1      37.382  23.060  24.404  1.00  0.00     0.049 H 
BRANCH   7  10
ATOM     10  N   UNL A   1      36.010  23.806  25.725  1.00  0.00    -0.355 N 
ATOM     11  O   UNL A   1      35.123  23.815  23.615  1.00  0.00    -0.273 OA
ATOM     12  C   UNL A   1      34.956  23.774  24.834  1.00  0.00     0.239 C 
ATOM     13  H   UNL A   1      35.822  23.933  26.682  1.00  0.00     0.163 HD
BRANCH  12  14
ATOM     14  C   UNL A   1      33.564  23.773  25.431  1.00  0.00     0.103 C 
ATOM     15  H   UNL A   1      33.603  24.302  26.360  1.00  0.00     0.060 H 
ATOM     16  H   UNL A   1      33.287  22.745  25.537  1.00  0.00     0.060 H 
BRANCH  14  17
ATOM     17  N   UNL A   1      32.537  24.386  24.604  1.00  0.00    -0.321 N 
ATOM     18  C   UNL A   1      31.809  23.698  23.668  1.00  0.00     0.096 A 
ATOM     19  C   UNL A   1      32.026  25.667  24.676  1.00  0.00     0.076 A 
ATOM     20  N   UNL A   1      30.878  24.444  23.126  1.00  0.00    -0.236 NA
ATOM     21  H   UNL A   1      31.974  22.709  23.420  1.00  0.00     0.104 H 
ATOM     22  C   UNL A   1      31.001  25.667  23.736  1.00  0.00     0.096 A 
BRANCH  19  23
ATOM     23  C   UNL A   1      32.452  26.725  25.590  1.00  0.00     0.000 A 
ATOM     24  C   UNL A   1      31.613  27.135  26.632  1.00  0.00    -0.053 A 
ATOM     25  C   UNL A   1      33.644  27.422  25.372  1.00  0.00    -0.053 A 
ATOM     26  C   UNL A   1      31.976  28.203  27.455  1.00  0.00    -0.062 A 
ATOM     27  H   UNL A   1      30.720  26.643  26.794  1.00  0.00     0.063 H 
ATOM     28  C   UNL A   1      34.023  28.472  26.210  1.00  0.00    -0.062 A 
ATOM     29  H   UNL A   1      34.252  27.157  24.582  1.00  0.00     0.063 H 
ATOM     30  C   UNL A   1      33.186  28.864  27.251  1.00  0.00    -0.062 A 
ATOM     31  H   UNL A   1      31.347  28.504  28.216  1.00  0.00     0.062 H 
ATOM     32  H   UNL A   1      34.920  28.958  26.058  1.00  0.00     0.062 H 
ATOM     33  H   UNL A   1      33.462  29.642  27.870  1.00  0.00     0.062 H 
ENDBRANCH  19  23
BRANCH  22  34
ATOM     34  C   UNL A   1      30.132  26.792  23.450  1.00  0.00     0.002 A 
ATOM     35  C   UNL A   1      30.623  27.887  22.730  1.00  0.00    -0.053 A 
ATOM     36  C   UNL A   1      28.789  26.774  23.847  1.00  0.00    -0.053 A 
ATOM     37  C   UNL A   1      29.768  28.935  22.381  1.00  0.00    -0.062 A 
ATOM     38  H   UNL A   1      31.617  27.920  22.456  1.00  0.00     0.063 H 
ATOM     39  C   UNL A   1      27.938  27.825  23.502  1.00  0.00    -0.062 A 
ATOM     40  H   UNL A   1      28.427  25.980  24.396  1.00  0.00     0.063 H 
ATOM     41  C   UNL A   1      28.427  28.901  22.763  1.00  0.00    -0.062 A 
ATOM     42  H   UNL A   1      30.129  29.736  21.839  1.00  0.00     0.062 H 
ATOM     43  H   UNL A   1      26.949  27.805  23.795  1.00  0.00     0.062 H 
ATOM     44  H   UNL A   1      27.795  29.673  22.499  1.00  0.00     0.062 H 
ENDBRANCH  22  34
ENDBRANCH  14  17
ENDBRANCH  12  14
ENDBRANCH   7  10
ENDBRANCH   4   7
ENDBRANCH   1   4
BRANCH   1  45
ATOM     45  C   UNL A   1      40.241  21.264  26.580  1.00  0.00    -0.052 C 
ATOM     46  H   UNL A   1      39.934  21.132  27.597  1.00  0.00     0.027 H 
ATOM     47  H   UNL A   1      40.974  22.028  26.425  1.00  0.00     0.027 H 
BRANCH  45  48
ATOM     48  C   UNL A   1      40.923  19.964  26.131  1.00  0.00    -0.036 C 
ATOM     49  H   UNL A   1      41.060  20.009  25.070  1.00  0.00     0.028 H 
ATOM     50  H   UNL A   1      40.282  19.165  26.441  1.00  0.00     0.028 H 
BRANCH  48  51
ATOM     51  C   UNL A   1      42.278  19.700  26.772  1.00  0.00     0.018 C 
ATOM     52  H   UNL A   1      42.206  18.818  27.373  1.00  0.00     0.049 H 
ATOM     53  H   UNL A   1      42.528  20.563  27.354  1.00  0.00     0.049 H 
BRANCH  51  54
ATOM     54  N   UNL A   1      43.350  19.511  25.796  1.00  0.00    -0.352 N 
ATOM     55  C   UNL A   1      43.991  20.471  25.031  1.00  0.00     0.251 C 
ATOM     56  H   UNL A   1      43.655  18.584  25.665  1.00  0.00     0.163 HD
ATOM     57  O   UNL A   1      44.587  20.176  24.010  1.00  0.00    -0.269 OA
BRANCH  55  58
ATOM     58  C   UNL A   1      43.937  21.874  25.482  1.00  0.00     0.039 A 
ATOM     59  C   UNL A   1      43.028  22.784  24.935  1.00  0.00    -0.049 A 
ATOM     60  C   UNL A   1      44.798  22.256  26.504  1.00  0.00    -0.049 A 
ATOM     61  C   UNL A   1      42.932  24.056  25.494  1.00  0.00    -0.053 A 
ATOM     62  H   UNL A   1      42.436  22.517  24.132  1.00  0.00     0.063 H 
ATOM     63  C   UNL A   1      44.588  23.441  27.158  1.00  0.00    -0.053 A 
ATOM     64  H   UNL A   1      45.591  21.651  26.768  1.00  0.00     0.063 H 
ATOM     65  C   UNL A   1      43.702  24.373  26.625  1.00  0.00    -0.014 A 
ATOM     66  H   UNL A   1      42.302  24.761  25.081  1.00  0.00     0.063 H 
ATOM     67  H   UNL A   1      45.084  23.643  28.040  1.00  0.00     0.063 H 
BRANCH  65  68
ATOM     68  C   UNL A   1      43.526  25.642  27.326  1.00  0.00     0.031 A 
ATOM     69  C   UNL A   1      44.498  26.710  26.959  1.00  0.00     0.074 A 
ATOM     70  C   UNL A   1      42.427  25.914  28.064  1.00  0.00     0.049 A 
ATOM     71  N   UNL A   1      45.351  27.306  27.725  1.00  0.00    -0.248 NA
ATOM     72  C   UNL A   1      44.601  27.098  25.543  1.00  0.00    -0.034 C 
ATOM     73  C   UNL A   1      41.227  25.084  28.247  1.00  0.00    -0.036 A 
ATOM     74  N   UNL A   1      42.095  27.059  28.722  1.00  0.00    -0.354 N 
ATOM     75  C   UNL A   1      45.976  28.271  26.935  1.00  0.00     0.074 A 
ATOM     76  C   UNL A   1      45.594  27.989  25.577  1.00  0.00    -0.034 C 
ATOM     77  H   UNL A   1      44.050  26.768  24.735  1.00  0.00     0.065 H 
ATOM     78  C   UNL A   1      40.224  25.838  28.745  1.00  0.00    -0.036 A 
ATOM     79  H   UNL A   1      41.163  24.078  28.027  1.00  0.00     0.065 H 
ATOM     80  C   UNL A   1      40.760  27.139  29.094  1.00  0.00     0.049 A 
ATOM     81  H   UNL A   1      42.747  27.771  28.916  1.00  0.00     0.167 HD
ATOM     82  C   UNL A   1      46.565  29.364  27.495  1.00  0.00     0.037 A 
ATOM     83  H   UNL A   1      46.028  28.417  24.744  1.00  0.00     0.065 H 
ATOM     84  H   UNL A   1      39.244  25.538  28.858  1.00  0.00     0.065 H 
ATOM     85  C   UNL A   1      40.126  28.207  29.633  1.00  0.00     0.037 A 
ATOM     86  C   UNL A   1      46.792  29.162  28.904  1.00  0.00     0.049 A 
ATOM     87  C   UNL A   1      41.169  29.095  30.193  1.00  0.00     0.074 A 
ATOM     88  C   UNL A   1      47.537  28.281  29.662  1.00  0.00    -0.036 A 
ATOM     89  N   UNL A   1      45.897  29.737  29.770  1.00  0.00    -0.354 N 
ATOM     90  N   UNL A   1      41.917  28.789  31.217  1.00  0.00    -0.248 NA
ATOM     91  C   UNL A   1      41.667  30.174  29.356  1.00  0.00    -0.034 C 
ATOM     92  C   UNL A   1      46.749  28.036  30.826  1.00  0.00    -0.036 A 
ATOM     93  H   UNL A   1      48.463  27.887  29.436  1.00  0.00     0.065 H 
ATOM     94  C   UNL A   1      45.598  28.821  30.742  1.00  0.00     0.049 A 
ATOM     95  H   UNL A   1      45.533  30.649  29.704  1.00  0.00     0.167 HD
ATOM     96  C   UNL A   1      43.162  29.314  30.909  1.00  0.00     0.074 A 
ATOM     97  C   UNL A   1      42.915  30.258  29.823  1.00  0.00    -0.034 C 
ATOM     98  H   UNL A   1      41.194  30.716  28.615  1.00  0.00     0.065 H 
ATOM     99  H   UNL A   1      46.988  27.390  31.595  1.00  0.00     0.065 H 
ATOM    100  C   UNL A   1      44.300  28.719  31.369  1.00  0.00     0.037 A 
ATOM    101  H   UNL A   1      43.623  30.915  29.459  1.00  0.00     0.065 H 
BRANCH  82 102
ATOM    102  C   UNL A   1      46.570  30.751  26.887  1.00  0.00     0.064 A 
ATOM    103  C   UNL A   1      47.772  31.494  26.890  1.00  0.00     0.173 A 
ATOM    104  C   UNL A   1      45.404  31.494  26.604  1.00  0.00     0.173 A 
ATOM    105  F   UNL A   1      48.943  30.899  27.156  1.00  0.00    -0.203 F 
ATOM    106  C   UNL A   1      47.785  32.883  26.726  1.00  0.00     0.198 A 
ATOM    107  C   UNL A   1      45.429  32.872  26.386  1.00  0.00     0.198 A 
ATOM    108  F   UNL A   1      44.183  30.950  26.639  1.00  0.00    -0.203 F 
ATOM    109  F   UNL A   1      48.931  33.560  26.880  1.00  0.00    -0.200 F 
ATOM    110  C   UNL A   1      46.612  33.571  26.484  1.00  0.00     0.200 A 
ATOM    111  F   UNL A   1      44.278  33.524  26.170  1.00  0.00    -0.200 F 
ATOM    112  F   UNL A   1      46.611  34.908  26.396  1.00  0.00    -0.200 F 
ENDBRANCH  82 102
BRANCH  85 113
ATOM    113  C   UNL A   1      38.724  28.642  29.452  1.00  0.00     0.064 A 
ATOM    114  C   UNL A   1      37.892  28.879  30.558  1.00  0.00     0.173 A 
ATOM    115  C   UNL A   1      38.261  29.111  28.207  1.00  0.00     0.173 A 
ATOM    116  F   UNL A   1      38.279  28.496  31.784  1.00  0.00    -0.203 F 
ATOM    117  C   UNL A   1      36.688  29.576  30.434  1.00  0.00     0.198 A 
ATOM    118  C   UNL A   1      37.056  29.803  28.083  1.00  0.00     0.198 A 
ATOM    119  F   UNL A   1      39.018  28.994  27.106  1.00  0.00    -0.203 F 
ATOM    120  F   UNL A   1      35.955  29.845  31.524  1.00  0.00    -0.200 F 
ATOM    121  C   UNL A   1      36.277  30.050  29.198  1.00  0.00     0.200 A 
ATOM    122  F   UNL A   1      36.688  30.286  26.888  1.00  0.00    -0.200 F 
ATOM    123  F   UNL A   1      35.157  30.779  29.089  1.00  0.00    -0.200 F 
ENDBRANCH  85 113
BRANCH 100 124
ATOM    124  C   UNL A   1      44.159  27.707  32.473  1.00  0.00     0.064 A 
ATOM    125  C   UNL A   1      44.061  26.319  32.272  1.00  0.00     0.173 A 
ATOM    126  C   UNL A   1      44.257  28.159  33.795  1.00  0.00     0.173 A 
ATOM    127  F   UNL A   1      44.059  25.796  31.040  1.00  0.00    -0.203 F 
ATOM    128  C   UNL A   1      44.018  25.433  33.348  1.00  0.00     0.198 A 
ATOM    129  C   UNL A   1      44.252  27.271  34.866  1.00  0.00     0.198 A 
ATOM    130  F   UNL A   1      44.404  29.469  34.046  1.00  0.00    -0.203 F 
ATOM    131  F   UNL A   1      43.908  24.114  33.129  1.00  0.00    -0.200 F 
ATOM    132  C   UNL A   1      44.122  25.910  34.643  1.00  0.00     0.200 A 
ATOM    133  F   UNL A   1      44.400  27.734  36.114  1.00  0.00    -0.200 F 
ATOM    134  F   UNL A   1      44.120  25.056  35.678  1.00  0.00    -0.200 F 
ENDBRANCH 100 124
ENDBRANCH  65  68
ENDBRANCH  55  58
ENDBRANCH  51  54
ENDBRANCH  48  51
ENDBRANCH  45  48
ENDBRANCH   1  45
TORSDOF 16
ENDMDL
MODEL 2
REMARK VINA RESULT:     -12.4      1.754      6.388
REMARK SMILES O=C(Cn1cnc(-c2ccccc2)c1-c1ccccc1)NCCCCCCNC(=O)c1ccc(-c2c3nc(c(-c4c(F)c(F)c(F)c(F)c4F)c4ccc([nH]4)c(-c4c(F)c(F)c(F)c(F)c4F)c4nc(c(-c5c(F)c(F)c(F)c(F)c5F)c5ccc2[nH]5)C=C4)C=C3)cc1
REMARK SMILES IDX 24 1 23 4 22 7 21 10 1 11 2 12 3 14 4 17 5 18 14 19 6 20
REMARK SMILES IDX 7 22 15 23 16 24 20 25 17 26 19 28 18 30 8 34 9 35 13 36
REMARK SMILES IDX 10 37 12 39 11 41 25 45 26 48 27 51 28 54 29 55 30 57 31 58
REMARK SMILES IDX 32 59 93 60 33 61 92 63 34 65 35 68 36 69 86 70 37 71 91 72
REMARK SMILES IDX 85 73 87 74 38 75 90 76 84 78 83 80 39 82 71 85 51 86 70 87
REMARK SMILES IDX 52 88 55 89 69 90 88 91 53 92 54 94 68 96 89 97 56 100
REMARK SMILES IDX 40 102 41 103 49 104 42 105 43 106 47 107 50 108 44 109
REMARK SMILES IDX 45 110 48 111 46 112 72 113 73 114 81 115 74 116 75 117
REMARK SMILES IDX 79 118 82 119 76 120 77 121 80 122 78 123 57 124 58 125
REMARK SMILES IDX 66 126 59 127 60 128 64 129 67 130 61 131 62 132 65 133
REMARK SMILES IDX 63 134
REMARK H PARENT 24 2 24 3 23 5 23 6 22 8 22 9 21 13 3 15 3 16 5 21 16 27 20 29
REMARK H PARENT 17 31 19 32 18 33 9 38 13 40 10 42 12 43 11 44 25 46 25 47
REMARK H PARENT 26 49 26 50 27 52 27 53 28 56 32 62 93 64 33 66 92 67 91 77
REMARK H PARENT 85 79 87 81 90 83 84 84 52 93 55 95 88 98 53 99 89 101
REMARK Flexibility Score: inf
ROOT
ATOM      1  C   UNL A   1      38.126  22.110  25.756  1.00  0.00    -0.052 C 
ATOM      2  H   UNL A   1      37.987  21.932  26.803  1.00  0.00     0.027 H 
ATOM      3  H   UNL A   1      39.145  22.240  25.458  1.00  0.00     0.027 H 
ENDROOT
BRANCH   1   4
ATOM      4  C   UNL A   1      37.434  23.433  25.414  1.00  0.00    -0.036 C 
ATOM      5  H   UNL A   1      36.998  23.822  26.311  1.00  0.00     0.028 H 
ATOM      6  H   UNL A   1      38.189  24.070  25.002  1.00  0.00     0.028 H 
BRANCH   4   7
ATOM      7  C   UNL A   1      36.337  23.330  24.361  1.00  0.00     0.017 C 
ATOM      8  H   UNL A   1      36.630  23.901  23.505  1.00  0.00     0.049 H 
ATOM      9  H   UNL A   1      36.216  22.293  24.127  1.00  0.00     0.049 H 
BRANCH   7  10
ATOM     10  N   UNL A   1      35.054  23.823  24.828  1.00  0.00    -0.355 N 
ATOM     11  O   UNL A   1      34.100  21.754  25.050  1.00  0.00    -0.273 OA
ATOM     12  C   UNL A   1      34.048  22.969  25.237  1.00  0.00     0.239 C 
ATOM     13  H   UNL A   1      34.896  24.794  24.854  1.00  0.00     0.163 HD
BRANCH  12  14
ATOM     14  C   UNL A   1      32.824  23.612  25.855  1.00  0.00     0.103 C 
ATOM     15  H   UNL A   1      33.155  24.313  26.592  1.00  0.00     0.060 H 
ATOM     16  H   UNL A   1      32.240  22.812  26.259  1.00  0.00     0.060 H 
BRANCH  14  17
ATOM     17  N   UNL A   1      31.957  24.315  24.922  1.00  0.00    -0.321 N 
ATOM     18  C   UNL A   1      31.177  23.680  23.989  1.00  0.00     0.096 A 
ATOM     19  C   UNL A   1      31.662  25.663  24.870  1.00  0.00     0.076 A 
ATOM     20  N   UNL A   1      30.412  24.521  23.337  1.00  0.00    -0.236 NA
ATOM     21  H   UNL A   1      31.190  22.662  23.822  1.00  0.00     0.104 H 
ATOM     22  C   UNL A   1      30.703  25.753  23.867  1.00  0.00     0.096 A 
BRANCH  19  23
ATOM     23  C   UNL A   1      32.207  26.708  25.734  1.00  0.00     0.000 A 
ATOM     24  C   UNL A   1      31.420  27.264  26.750  1.00  0.00    -0.053 A 
ATOM     25  C   UNL A   1      33.473  27.250  25.492  1.00  0.00    -0.053 A 
ATOM     26  C   UNL A   1      31.905  28.322  27.522  1.00  0.00    -0.062 A 
ATOM     27  H   UNL A   1      30.475  26.888  26.929  1.00  0.00     0.063 H 
ATOM     28  C   UNL A   1      33.970  28.289  26.280  1.00  0.00    -0.062 A 
ATOM     29  H   UNL A   1      34.047  26.878  24.720  1.00  0.00     0.063 H 
ATOM     30  C   UNL A   1      33.183  28.826  27.295  1.00  0.00    -0.062 A 
ATOM     31  H   UNL A   1      31.313  28.731  28.263  1.00  0.00     0.062 H 
ATOM     32  H   UNL A   1      34.918  28.658  26.111  1.00  0.00     0.062 H 
ATOM     33  H   UNL A   1      33.547  29.597  27.877  1.00  0.00     0.062 H 
ENDBRANCH  19  23
BRANCH  22  34
ATOM     34  C   UNL A   1      30.048  26.977  23.447  1.00  0.00     0.002 A 
ATOM     35  C   UNL A   1      30.786  27.980  22.810  1.00  0.00    -0.053 A 
ATOM     36  C   UNL A   1      28.670  27.146  23.631  1.00  0.00    -0.053 A 
ATOM     37  C   UNL A   1      30.144  29.123  22.329  1.00  0.00    -0.062 A 
ATOM     38  H   UNL A   1      31.806  27.874  22.693  1.00  0.00     0.063 H 
ATOM     39  C   UNL A   1      28.031  28.293  23.156  1.00  0.00    -0.062 A 
ATOM     40  H   UNL A   1      28.124  26.420  24.119  1.00  0.00     0.063 H 
ATOM     41  C   UNL A   1      28.768  29.277  22.499  1.00  0.00    -0.062 A 
ATOM     42  H   UNL A   1      30.689  29.857  21.849  1.00  0.00     0.062 H 
ATOM     43  H   UNL A   1      27.016  28.412  23.292  1.00  0.00     0.062 H 
ATOM     44  H   UNL A   1      28.295  30.120  22.138  1.00  0.00     0.062 H 
ENDBRANCH  22  34
ENDBRANCH  14  17
ENDBRANCH  12  14
ENDBRANCH   7  10
ENDBRANCH   4   7
ENDBRANCH   1   4
BRANCH   1  45
ATOM     45  C   UNL A   1      37.639  20.864  25.004  1.00  0.00    -0.052 C 
ATOM     46  H   UNL A   1      37.442  21.153  23.992  1.00  0.00     0.027 H 
ATOM     47  H   UNL A   1      36.784  20.525  25.552  1.00  0.00     0.027 H 
BRANCH  45  48
ATOM     48  C   UNL A   1      38.587  19.657  24.962  1.00  0.00    -0.036 C 
ATOM     49  H   UNL A   1      39.139  19.699  24.046  1.00  0.00     0.028 H 
ATOM     50  H   UNL A   1      37.971  18.787  25.045  1.00  0.00     0.028 H 
BRANCH  48  51
ATOM     51  C   UNL A   1      39.583  19.589  26.112  1.00  0.00     0.018 C 
ATOM     52  H   UNL A   1      39.138  19.043  26.917  1.00  0.00     0.049 H 
ATOM     53  H   UNL A   1      39.818  20.595  26.389  1.00  0.00     0.049 H 
BRANCH  51  54
ATOM     54  N   UNL A   1      40.840  18.935  25.747  1.00  0.00    -0.352 N 
ATOM     55  C   UNL A   1      42.097  19.504  25.627  1.00  0.00     0.251 C 
ATOM     56  H   UNL A   1      40.786  17.970  25.564  1.00  0.00     0.163 HD
ATOM     57  O   UNL A   1      42.976  18.970  24.974  1.00  0.00    -0.269 OA
BRANCH  55  58
ATOM     58  C   UNL A   1      42.354  20.784  26.313  1.00  0.00     0.039 A 
ATOM     59  C   UNL A   1      42.623  21.955  25.599  1.00  0.00    -0.049 A 
ATOM     60  C   UNL A   1      42.279  20.798  27.701  1.00  0.00    -0.049 A 
ATOM     61  C   UNL A   1      42.724  23.157  26.296  1.00  0.00    -0.053 A 
ATOM     62  H   UNL A   1      42.744  21.929  24.574  1.00  0.00     0.063 H 
ATOM     63  C   UNL A   1      42.210  21.995  28.363  1.00  0.00    -0.053 A 
ATOM     64  H   UNL A   1      42.275  19.911  28.229  1.00  0.00     0.063 H 
ATOM     65  C   UNL A   1      42.492  23.175  27.680  1.00  0.00    -0.014 A 
ATOM     66  H   UNL A   1      42.967  24.029  25.798  1.00  0.00     0.063 H 
ATOM     67  H   UNL A   1      41.952  22.023  29.361  1.00  0.00     0.063 H 
BRANCH  65  68
ATOM     68  C   UNL A   1      42.447  24.432  28.421  1.00  0.00     0.031 A 
ATOM     69  C   UNL A   1      41.218  25.250  28.211  1.00  0.00     0.074 A 
ATOM     70  C   UNL A   1      43.326  24.724  29.405  1.00  0.00     0.049 A 
ATOM     71  N   UNL A   1      41.131  26.443  27.722  1.00  0.00    -0.248 NA
ATOM     72  C   UNL A   1      39.915  24.626  28.489  1.00  0.00    -0.034 C 
ATOM     73  C   UNL A   1      44.390  23.872  29.954  1.00  0.00    -0.036 A 
ATOM     74  N   UNL A   1      43.376  25.817  30.216  1.00  0.00    -0.354 N 
ATOM     75  C   UNL A   1      39.784  26.796  27.797  1.00  0.00     0.074 A 
ATOM     76  C   UNL A   1      39.068  25.590  28.122  1.00  0.00    -0.034 C 
ATOM     77  H   UNL A   1      39.708  23.689  28.869  1.00  0.00     0.065 H 
ATOM     78  C   UNL A   1      44.804  24.366  31.140  1.00  0.00    -0.036 A 
ATOM     79  H   UNL A   1      44.764  23.024  29.501  1.00  0.00     0.065 H 
ATOM     80  C   UNL A   1      44.178  25.659  31.339  1.00  0.00     0.049 A 
ATOM     81  H   UNL A   1      42.885  26.648  30.024  1.00  0.00     0.167 HD
ATOM     82  C   UNL A   1      39.400  28.103  27.817  1.00  0.00     0.037 A 
ATOM     83  H   UNL A   1      38.042  25.486  28.078  1.00  0.00     0.065 H 
ATOM     84  H   UNL A   1      45.454  23.903  31.793  1.00  0.00     0.065 H 
ATOM     85  C   UNL A   1      44.306  26.519  32.377  1.00  0.00     0.037 A 
ATOM     86  C   UNL A   1      40.464  28.960  27.361  1.00  0.00     0.049 A 
ATOM     87  C   UNL A   1      43.836  27.842  31.907  1.00  0.00     0.074 A 
ATOM     88  C   UNL A   1      41.168  29.108  26.182  1.00  0.00    -0.036 A 
ATOM     89  N   UNL A   1      41.200  29.609  28.320  1.00  0.00    -0.354 N 
ATOM     90  N   UNL A   1      44.444  28.554  31.001  1.00  0.00    -0.248 NA
ATOM     91  C   UNL A   1      42.448  28.198  32.154  1.00  0.00    -0.034 C 
ATOM     92  C   UNL A   1      42.499  29.431  26.583  1.00  0.00    -0.036 A 
ATOM     93  H   UNL A   1      40.808  29.008  25.221  1.00  0.00     0.065 H 
ATOM     94  C   UNL A   1      42.521  29.519  27.976  1.00  0.00     0.049 A 
ATOM     95  H   UNL A   1      40.839  30.061  29.116  1.00  0.00     0.167 HD
ATOM     96  C   UNL A   1      43.422  29.133  30.266  1.00  0.00     0.074 A 
ATOM     97  C   UNL A   1      42.230  28.984  31.097  1.00  0.00    -0.034 C 
ATOM     98  H   UNL A   1      41.816  27.923  32.922  1.00  0.00     0.065 H 
ATOM     99  H   UNL A   1      43.304  29.575  25.953  1.00  0.00     0.065 H 
ATOM    100  C   UNL A   1      43.591  29.416  28.942  1.00  0.00     0.037 A 
ATOM    101  H   UNL A   1      41.324  29.433  30.891  1.00  0.00     0.065 H 
BRANCH  82 102
ATOM    102  C   UNL A   1      38.235  28.650  28.616  1.00  0.00     0.064 A 
ATOM    103  C   UNL A   1      37.384  29.605  28.017  1.00  0.00     0.173 A 
ATOM    104  C   UNL A   1      38.112  28.530  30.017  1.00  0.00     0.173 A 
ATOM    105  F   UNL A   1      37.418  29.816  26.693  1.00  0.00    -0.203 F 
ATOM    106  C   UNL A   1      36.556  30.440  28.774  1.00  0.00     0.198 A 
ATOM    107  C   UNL A   1      37.243  29.327  30.763  1.00  0.00     0.198 A 
ATOM    108  F   UNL A   1      38.900  27.726  30.738  1.00  0.00    -0.203 F 
ATOM    109  F   UNL A   1      35.876  31.425  28.173  1.00  0.00    -0.200 F 
ATOM    110  C   UNL A   1      36.494  30.306  30.148  1.00  0.00     0.200 A 
ATOM    111  F   UNL A   1      37.211  29.193  32.096  1.00  0.00    -0.200 F 
ATOM    112  F   UNL A   1      35.757  31.149  30.883  1.00  0.00    -0.200 F 
ENDBRANCH  82 102
BRANCH  85 113
ATOM    113  C   UNL A   1      44.540  26.220  33.807  1.00  0.00     0.064 A 
ATOM    114  C   UNL A   1      43.491  25.800  34.638  1.00  0.00     0.173 A 
ATOM    115  C   UNL A   1      45.845  26.061  34.313  1.00  0.00     0.173 A 
ATOM    116  F   UNL A   1      42.221  25.882  34.214  1.00  0.00    -0.203 F 
ATOM    117  C   UNL A   1      43.732  25.220  35.887  1.00  0.00     0.198 A 
ATOM    118  C   UNL A   1      46.085  25.488  35.562  1.00  0.00     0.198 A 
ATOM    119  F   UNL A   1      46.914  26.368  33.563  1.00  0.00    -0.203 F 
ATOM    120  F   UNL A   1      42.708  24.766  36.623  1.00  0.00    -0.200 F 
ATOM    121  C   UNL A   1      45.031  25.052  36.342  1.00  0.00     0.200 A 
ATOM    122  F   UNL A   1      47.347  25.298  35.974  1.00  0.00    -0.200 F 
ATOM    123  F   UNL A   1      45.266  24.433  37.508  1.00  0.00    -0.200 F 
ENDBRANCH  85 113
BRANCH 100 124
ATOM    124  C   UNL A   1      44.994  29.399  28.400  1.00  0.00     0.064 A 
ATOM    125  C   UNL A   1      45.621  28.267  27.852  1.00  0.00     0.173 A 
ATOM    126  C   UNL A   1      45.680  30.617  28.319  1.00  0.00     0.173 A 
ATOM    127  F   UNL A   1      44.996  27.085  27.803  1.00  0.00    -0.203 F 
ATOM    128  C   UNL A   1      46.895  28.347  27.291  1.00  0.00     0.198 A 
ATOM    129  C   UNL A   1      46.936  30.702  27.724  1.00  0.00     0.198 A 
ATOM    130  F   UNL A   1      45.109  31.742  28.779  1.00  0.00    -0.203 F 
ATOM    131  F   UNL A   1      47.479  27.248  26.789  1.00  0.00    -0.200 F 
ATOM    132  C   UNL A   1      47.547  29.566  27.220  1.00  0.00     0.200 A 
ATOM    133  F   UNL A   1      47.541  31.892  27.615  1.00  0.00    -0.200 F 
ATOM    134  F   UNL A   1      48.755  29.651  26.644  1.00  0.00    -0.200 F 
ENDBRANCH 100 124
ENDBRANCH  65  68
ENDBRANCH  55  58
ENDBRANCH  51  54
ENDBRANCH  48  51
ENDBRANCH  45  48
ENDBRANCH   1  45
TORSDOF 16
ENDMDL
MODEL 3
REMARK VINA RESULT:     -12.3      2.370      3.338
REMARK SMILES O=C(Cn1cnc(-c2ccccc2)c1-c1ccccc1)NCCCCCCNC(=O)c1ccc(-c2c3nc(c(-c4c(F)c(F)c(F)c(F)c4F)c4ccc([nH]4)c(-c4c(F)c(F)c(F)c(F)c4F)c4nc(c(-c5c(F)c(F)c(F)c(F)c5F)c5ccc2[nH]5)C=C4)C=C3)cc1
REMARK SMILES IDX 24 1 23 4 22 7 21 10 1 11 2 12 3 14 4 17 5 18 14 19 6 20
REMARK SMILES IDX 7 22 15 23 16 24 20 25 17 26 19 28 18 30 8 34 9 35 13 36
REMARK SMILES IDX 10 37 12 39 11 41 25 45 26 48 27 51 28 54 29 55 30 57 31 58
REMARK SMILES IDX 32 59 93 60 33 61 92 63 34 65 35 68 36 69 86 70 37 71 91 72
REMARK SMILES IDX 85 73 87 74 38 75 90 76 84 78 83 80 39 82 71 85 51 86 70 87
REMARK SMILES IDX 52 88 55 89 69 90 88 91 53 92 54 94 68 96 89 97 56 100
REMARK SMILES IDX 40 102 41 103 49 104 42 105 43 106 47 107 50 108 44 109
REMARK SMILES IDX 45 110 48 111 46 112 72 113 73 114 81 115 74 116 75 117
REMARK SMILES IDX 79 118 82 119 76 120 77 121 80 122 78 123 57 124 58 125
REMARK SMILES IDX 66 126 59 127 60 128 64 129 67 130 61 131 62 132 65 133
REMARK SMILES IDX 63 134
REMARK H PARENT 24 2 24 3 23 5 23 6 22 8 22 9 21 13 3 15 3 16 5 21 16 27 20 29
REMARK H PARENT 17 31 19 32 18 33 9 38 13 40 10 42 12 43 11 44 25 46 25 47
REMARK H PARENT 26 49 26 50 27 52 27 53 28 56 32 62 93 64 33 66 92 67 91 77
REMARK H PARENT 85 79 87 81 90 83 84 84 52 93 55 95 88 98 53 99 89 101
REMARK Flexibility Score: inf
ROOT
ATOM      1  C   UNL A   1      35.043  20.745  24.998  1.00  0.00    -0.052 C 
ATOM      2  H   UNL A   1      35.418  20.830  23.999  1.00  0.00     0.027 H 
ATOM      3  H   UNL A   1      35.168  19.779  25.441  1.00  0.00     0.027 H 
ENDROOT
BRANCH   1   4
ATOM      4  C   UNL A   1      33.528  20.972  24.946  1.00  0.00    -0.036 C 
ATOM      5  H   UNL A   1      33.053  20.019  24.832  1.00  0.00     0.028 H 
ATOM      6  H   UNL A   1      33.267  21.467  25.858  1.00  0.00     0.028 H 
BRANCH   4   7
ATOM      7  C   UNL A   1      33.054  21.876  23.815  1.00  0.00     0.017 C 
ATOM      8  H   UNL A   1      33.680  21.715  22.963  1.00  0.00     0.049 H 
ATOM      9  H   UNL A   1      32.033  21.625  23.613  1.00  0.00     0.049 H 
BRANCH   7  10
ATOM     10  N   UNL A   1      33.095  23.285  24.160  1.00  0.00    -0.355 N 
ATOM     11  O   UNL A   1      34.824  23.799  22.752  1.00  0.00    -0.273 OA
ATOM     12  C   UNL A   1      33.933  24.172  23.514  1.00  0.00     0.239 C 
ATOM     13  H   UNL A   1      32.509  23.619  24.878  1.00  0.00     0.163 HD
BRANCH  12  14
ATOM     14  C   UNL A   1      33.760  25.638  23.854  1.00  0.00     0.103 C 
ATOM     15  H   UNL A   1      34.673  26.142  23.620  1.00  0.00     0.060 H 
ATOM     16  H   UNL A   1      33.508  25.674  24.893  1.00  0.00     0.060 H 
BRANCH  14  17
ATOM     17  N   UNL A   1      32.679  26.312  23.152  1.00  0.00    -0.321 N 
ATOM     18  C   UNL A   1      32.194  25.901  21.936  1.00  0.00     0.096 A 
ATOM     19  C   UNL A   1      31.886  27.354  23.591  1.00  0.00     0.076 A 
ATOM     20  N   UNL A   1      31.157  26.608  21.559  1.00  0.00    -0.236 NA
ATOM     21  H   UNL A   1      32.597  25.127  21.386  1.00  0.00     0.104 H 
ATOM     22  C   UNL A   1      30.956  27.515  22.569  1.00  0.00     0.096 A 
BRANCH  19  23
ATOM     23  C   UNL A   1      31.996  28.053  24.870  1.00  0.00     0.000 A 
ATOM     24  C   UNL A   1      31.453  27.488  26.029  1.00  0.00    -0.053 A 
ATOM     25  C   UNL A   1      32.535  29.341  24.938  1.00  0.00    -0.053 A 
ATOM     26  C   UNL A   1      31.478  28.189  27.237  1.00  0.00    -0.062 A 
ATOM     27  H   UNL A   1      31.033  26.545  25.991  1.00  0.00     0.063 H 
ATOM     28  C   UNL A   1      32.586  30.032  26.149  1.00  0.00    -0.062 A 
ATOM     29  H   UNL A   1      32.901  29.786  24.083  1.00  0.00     0.063 H 
ATOM     30  C   UNL A   1      32.054  29.456  27.299  1.00  0.00    -0.062 A 
ATOM     31  H   UNL A   1      31.067  27.767  28.085  1.00  0.00     0.062 H 
ATOM     32  H   UNL A   1      33.016  30.969  26.193  1.00  0.00     0.062 H 
ATOM     33  H   UNL A   1      32.087  29.966  28.196  1.00  0.00     0.062 H 
ENDBRANCH  19  23
BRANCH  22  34
ATOM     34  C   UNL A   1      29.876  28.482  22.570  1.00  0.00     0.002 A 
ATOM     35  C   UNL A   1      30.065  29.739  21.988  1.00  0.00    -0.053 A 
ATOM     36  C   UNL A   1      28.625  28.152  23.108  1.00  0.00    -0.053 A 
ATOM     37  C   UNL A   1      29.002  30.643  21.912  1.00  0.00    -0.062 A 
ATOM     38  H   UNL A   1      30.990  30.000  21.612  1.00  0.00     0.063 H 
ATOM     39  C   UNL A   1      27.566  29.058  23.037  1.00  0.00    -0.062 A 
ATOM     40  H   UNL A   1      28.486  27.234  23.558  1.00  0.00     0.063 H 
ATOM     41  C   UNL A   1      27.754  30.300  22.433  1.00  0.00    -0.062 A 
ATOM     42  H   UNL A   1      29.141  31.566  21.471  1.00  0.00     0.062 H 
ATOM     43  H   UNL A   1      26.647  28.809  23.432  1.00  0.00     0.062 H 
ATOM     44  H   UNL A   1      26.968  30.966  22.370  1.00  0.00     0.062 H 
ENDBRANCH  22  34
ENDBRANCH  14  17
ENDBRANCH  12  14
ENDBRANCH   7  10
ENDBRANCH   4   7
ENDBRANCH   1   4
BRANCH   1  45
ATOM     45  C   UNL A   1      35.852  21.704  25.882  1.00  0.00    -0.052 C 
ATOM     46  H   UNL A   1      36.273  21.129  26.682  1.00  0.00     0.027 H 
ATOM     47  H   UNL A   1      35.155  22.457  26.186  1.00  0.00     0.027 H 
BRANCH  45  48
ATOM     48  C   UNL A   1      37.000  22.472  25.212  1.00  0.00    -0.036 C 
ATOM     49  H   UNL A   1      36.578  23.280  24.652  1.00  0.00     0.028 H 
ATOM     50  H   UNL A   1      37.522  21.764  24.603  1.00  0.00     0.028 H 
BRANCH  48  51
ATOM     51  C   UNL A   1      38.028  23.050  26.175  1.00  0.00     0.018 C 
ATOM     52  H   UNL A   1      37.566  23.179  27.131  1.00  0.00     0.049 H 
ATOM     53  H   UNL A   1      38.364  23.978  25.762  1.00  0.00     0.049 H 
BRANCH  51  54
ATOM     54  N   UNL A   1      39.206  22.198  26.340  1.00  0.00    -0.352 N 
ATOM     55  C   UNL A   1      40.530  22.584  26.473  1.00  0.00     0.251 C 
ATOM     56  H   UNL A   1      39.038  21.229  26.358  1.00  0.00     0.163 HD
ATOM     57  O   UNL A   1      41.443  21.813  26.233  1.00  0.00    -0.269 OA
BRANCH  55  58
ATOM     58  C   UNL A   1      40.815  23.961  26.915  1.00  0.00     0.039 A 
ATOM     59  C   UNL A   1      40.337  25.069  26.211  1.00  0.00    -0.049 A 
ATOM     60  C   UNL A   1      41.547  24.124  28.086  1.00  0.00    -0.049 A 
ATOM     61  C   UNL A   1      40.525  26.340  26.751  1.00  0.00    -0.053 A 
ATOM     62  H   UNL A   1      39.851  24.949  25.307  1.00  0.00     0.063 H 
ATOM     63  C   UNL A   1      41.584  25.350  28.696  1.00  0.00    -0.053 A 
ATOM     64  H   UNL A   1      42.059  23.325  28.492  1.00  0.00     0.063 H 
ATOM     65  C   UNL A   1      41.131  26.472  28.010  1.00  0.00    -0.014 A 
ATOM     66  H   UNL A   1      40.221  27.178  26.229  1.00  0.00     0.063 H 
ATOM     67  H   UNL A   1      41.945  25.440  29.658  1.00  0.00     0.063 H 
BRANCH  65  68
ATOM     68  C   UNL A   1      41.216  27.771  28.673  1.00  0.00     0.031 A 
ATOM     69  C   UNL A   1      42.377  28.615  28.270  1.00  0.00     0.074 A 
ATOM     70  C   UNL A   1      40.201  28.275  29.408  1.00  0.00     0.049 A 
ATOM     71  N   UNL A   1      43.339  29.052  29.014  1.00  0.00    -0.248 NA
ATOM     72  C   UNL A   1      42.540  28.934  26.843  1.00  0.00    -0.034 C 
ATOM     73  C   UNL A   1      38.863  27.705  29.621  1.00  0.00    -0.036 A 
ATOM     74  N   UNL A   1      40.109  29.482  30.032  1.00  0.00    -0.354 N 
ATOM     75  C   UNL A   1      44.134  29.851  28.193  1.00  0.00     0.074 A 
ATOM     76  C   UNL A   1      43.689  29.612  26.845  1.00  0.00    -0.034 C 
ATOM     77  H   UNL A   1      41.926  28.697  26.047  1.00  0.00     0.065 H 
ATOM     78  C   UNL A   1      38.034  28.656  30.101  1.00  0.00    -0.036 A 
ATOM     79  H   UNL A   1      38.599  26.726  29.431  1.00  0.00     0.065 H 
ATOM     80  C   UNL A   1      38.819  29.835  30.408  1.00  0.00     0.049 A 
ATOM     81  H   UNL A   1      40.890  30.057  30.202  1.00  0.00     0.167 HD
ATOM     82  C   UNL A   1      44.933  30.822  28.717  1.00  0.00     0.037 A 
ATOM     83  H   UNL A   1      44.191  29.921  25.998  1.00  0.00     0.065 H 
ATOM     84  H   UNL A   1      37.015  28.559  30.228  1.00  0.00     0.065 H 
ATOM     85  C   UNL A   1      38.415  31.022  30.917  1.00  0.00     0.037 A 
ATOM     86  C   UNL A   1      45.130  30.619  30.130  1.00  0.00     0.049 A 
ATOM     87  C   UNL A   1      39.618  31.702  31.447  1.00  0.00     0.074 A 
ATOM     88  C   UNL A   1      45.694  29.630  30.910  1.00  0.00    -0.036 A 
ATOM     89  N   UNL A   1      44.375  31.384  30.982  1.00  0.00    -0.354 N 
ATOM     90  N   UNL A   1      40.301  31.284  32.475  1.00  0.00    -0.248 NA
ATOM     91  C   UNL A   1      40.311  32.637  30.575  1.00  0.00    -0.034 C 
ATOM     92  C   UNL A   1      44.885  29.579  32.085  1.00  0.00    -0.036 A 
ATOM     93  H   UNL A   1      46.521  29.055  30.692  1.00  0.00     0.065 H 
ATOM     94  C   UNL A   1      43.912  30.573  31.983  1.00  0.00     0.049 A 
ATOM     95  H   UNL A   1      44.197  32.348  30.891  1.00  0.00     0.167 HD
ATOM     96  C   UNL A   1      41.622  31.543  32.146  1.00  0.00     0.074 A 
ATOM     97  C   UNL A   1      41.555  32.486  31.033  1.00  0.00    -0.034 C 
ATOM     98  H   UNL A   1      39.947  33.240  29.820  1.00  0.00     0.065 H 
ATOM     99  H   UNL A   1      45.000  28.921  32.872  1.00  0.00     0.065 H 
ATOM    100  C   UNL A   1      42.625  30.748  32.619  1.00  0.00     0.037 A 
ATOM    101  H   UNL A   1      42.375  32.980  30.646  1.00  0.00     0.065 H 
BRANCH  82 102
ATOM    102  C   UNL A   1      45.205  32.163  28.067  1.00  0.00     0.064 A 
ATOM    103  C   UNL A   1      44.123  33.040  27.833  1.00  0.00     0.173 A 
ATOM    104  C   UNL A   1      46.397  32.481  27.382  1.00  0.00     0.173 A 
ATOM    105  F   UNL A   1      42.936  32.834  28.420  1.00  0.00    -0.203 F 
ATOM    106  C   UNL A   1      44.204  34.087  26.910  1.00  0.00     0.198 A 
ATOM    107  C   UNL A   1      46.490  33.561  26.503  1.00  0.00     0.198 A 
ATOM    108  F   UNL A   1      47.484  31.705  27.439  1.00  0.00    -0.203 F 
ATOM    109  F   UNL A   1      43.110  34.803  26.617  1.00  0.00    -0.200 F 
ATOM    110  C   UNL A   1      45.385  34.340  26.238  1.00  0.00     0.200 A 
ATOM    111  F   UNL A   1      47.639  33.778  25.849  1.00  0.00    -0.200 F 
ATOM    112  F   UNL A   1      45.447  35.296  25.302  1.00  0.00    -0.200 F 
ENDBRANCH  82 102
BRANCH  85 113
ATOM    113  C   UNL A   1      37.124  31.720  30.731  1.00  0.00     0.064 A 
ATOM    114  C   UNL A   1      36.176  31.776  31.764  1.00  0.00     0.173 A 
ATOM    115  C   UNL A   1      36.917  32.589  29.642  1.00  0.00     0.173 A 
ATOM    116  F   UNL A   1      36.323  31.008  32.854  1.00  0.00    -0.203 F 
ATOM    117  C   UNL A   1      35.106  32.674  31.730  1.00  0.00     0.198 A 
ATOM    118  C   UNL A   1      35.845  33.481  29.604  1.00  0.00     0.198 A 
ATOM    119  F   UNL A   1      37.806  32.658  28.640  1.00  0.00    -0.203 F 
ATOM    120  F   UNL A   1      34.261  32.748  32.768  1.00  0.00    -0.200 F 
ATOM    121  C   UNL A   1      34.949  33.536  30.655  1.00  0.00     0.200 A 
ATOM    122  F   UNL A   1      35.725  34.334  28.577  1.00  0.00    -0.200 F 
ATOM    123  F   UNL A   1      33.963  34.444  30.654  1.00  0.00    -0.200 F 
ENDBRANCH  85 113
BRANCH 100 124
ATOM    124  C   UNL A   1      42.299  29.816  33.753  1.00  0.00     0.064 A 
ATOM    125  C   UNL A   1      41.821  28.504  33.592  1.00  0.00     0.173 A 
ATOM    126  C   UNL A   1      42.607  30.232  35.054  1.00  0.00     0.173 A 
ATOM    127  F   UNL A   1      41.592  27.994  32.375  1.00  0.00    -0.203 F 
ATOM    128  C   UNL A   1      41.620  27.667  34.689  1.00  0.00     0.198 A 
ATOM    129  C   UNL A   1      42.442  29.382  36.144  1.00  0.00     0.198 A 
ATOM    130  F   UNL A   1      43.116  31.456  35.264  1.00  0.00    -0.203 F 
ATOM    131  F   UNL A   1      41.148  26.424  34.509  1.00  0.00    -0.200 F 
ATOM    132  C   UNL A   1      41.939  28.104  35.963  1.00  0.00     0.200 A 
ATOM    133  F   UNL A   1      42.797  29.795  37.368  1.00  0.00    -0.200 F 
ATOM    134  F   UNL A   1      41.784  27.287  37.015  1.00  0.00    -0.200 F 
ENDBRANCH 100 124
ENDBRANCH  65  68
ENDBRANCH  55  58
ENDBRANCH  51  54
ENDBRANCH  48  51
ENDBRANCH  45  48
ENDBRANCH   1  45
TORSDOF 16
ENDMDL
MODEL 4
REMARK VINA RESULT:     -12.2      3.059      8.276
REMARK SMILES O=C(Cn1cnc(-c2ccccc2)c1-c1ccccc1)NCCCCCCNC(=O)c1ccc(-c2c3nc(c(-c4c(F)c(F)c(F)c(F)c4F)c4ccc([nH]4)c(-c4c(F)c(F)c(F)c(F)c4F)c4nc(c(-c5c(F)c(F)c(F)c(F)c5F)c5ccc2[nH]5)C=C4)C=C3)cc1
REMARK SMILES IDX 24 1 23 4 22 7 21 10 1 11 2 12 3 14 4 17 5 18 14 19 6 20
REMARK SMILES IDX 7 22 15 23 16 24 20 25 17 26 19 28 18 30 8 34 9 35 13 36
REMARK SMILES IDX 10 37 12 39 11 41 25 45 26 48 27 51 28 54 29 55 30 57 31 58
REMARK SMILES IDX 32 59 93 60 33 61 92 63 34 65 35 68 36 69 86 70 37 71 91 72
REMARK SMILES IDX 85 73 87 74 38 75 90 76 84 78 83 80 39 82 71 85 51 86 70 87
REMARK SMILES IDX 52 88 55 89 69 90 88 91 53 92 54 94 68 96 89 97 56 100
REMARK SMILES IDX 40 102 41 103 49 104 42 105 43 106 47 107 50 108 44 109
REMARK SMILES IDX 45 110 48 111 46 112 72 113 73 114 81 115 74 116 75 117
REMARK SMILES IDX 79 118 82 119 76 120 77 121 80 122 78 123 57 124 58 125
REMARK SMILES IDX 66 126 59 127 60 128 64 129 67 130 61 131 62 132 65 133
REMARK SMILES IDX 63 134
REMARK H PARENT 24 2 24 3 23 5 23 6 22 8 22 9 21 13 3 15 3 16 5 21 16 27 20 29
REMARK H PARENT 17 31 19 32 18 33 9 38 13 40 10 42 12 43 11 44 25 46 25 47
REMARK H PARENT 26 49 26 50 27 52 27 53 28 56 32 62 93 64 33 66 92 67 91 77
REMARK H PARENT 85 79 87 81 90 83 84 84 52 93 55 95 88 98 53 99 89 101
REMARK Flexibility Score: inf
ROOT
ATOM      1  C   UNL A   1      33.312  28.031  26.902  1.00  0.00    -0.052 C 
ATOM      2  H   UNL A   1      33.208  27.661  27.901  1.00  0.00     0.027 H 
ATOM      3  H   UNL A   1      32.395  28.340  26.444  1.00  0.00     0.027 H 
ENDROOT
BRANCH   1   4
ATOM      4  C   UNL A   1      33.830  26.881  26.032  1.00  0.00    -0.036 C 
ATOM      5  H   UNL A   1      33.721  27.165  25.006  1.00  0.00     0.028 H 
ATOM      6  H   UNL A   1      34.848  26.722  26.320  1.00  0.00     0.028 H 
BRANCH   4   7
ATOM      7  C   UNL A   1      33.114  25.551  26.234  1.00  0.00     0.017 C 
ATOM      8  H   UNL A   1      33.842  24.768  26.237  1.00  0.00     0.049 H 
ATOM      9  H   UNL A   1      32.587  25.610  27.164  1.00  0.00     0.049 H 
BRANCH   7  10
ATOM     10  N   UNL A   1      32.137  25.270  25.198  1.00  0.00    -0.355 N 
ATOM     11  O   UNL A   1      30.314  25.811  26.473  1.00  0.00    -0.273 OA
ATOM     12  C   UNL A   1      30.791  25.522  25.375  1.00  0.00     0.239 C 
ATOM     13  H   UNL A   1      32.442  24.888  24.344  1.00  0.00     0.163 HD
BRANCH  12  14
ATOM     14  C   UNL A   1      29.902  25.339  24.162  1.00  0.00     0.103 C 
ATOM     15  H   UNL A   1      29.187  24.577  24.388  1.00  0.00     0.060 H 
ATOM     16  H   UNL A   1      30.554  25.086  23.352  1.00  0.00     0.060 H 
BRANCH  14  17
ATOM     17  N   UNL A   1      29.177  26.528  23.743  1.00  0.00    -0.321 N 
ATOM     18  C   UNL A   1      27.823  26.681  23.893  1.00  0.00     0.096 A 
ATOM     19  C   UNL A   1      29.684  27.719  23.258  1.00  0.00     0.076 A 
ATOM     20  N   UNL A   1      27.422  27.876  23.532  1.00  0.00    -0.236 NA
ATOM     21  H   UNL A   1      27.194  25.944  24.249  1.00  0.00     0.104 H 
ATOM     22  C   UNL A   1      28.561  28.529  23.132  1.00  0.00     0.096 A 
BRANCH  19  23
ATOM     23  C   UNL A   1      31.091  28.031  23.013  1.00  0.00     0.000 A 
ATOM     24  C   UNL A   1      31.856  27.214  22.172  1.00  0.00    -0.053 A 
ATOM     25  C   UNL A   1      31.723  29.072  23.697  1.00  0.00    -0.053 A 
ATOM     26  C   UNL A   1      33.221  27.456  22.002  1.00  0.00    -0.062 A 
ATOM     27  H   UNL A   1      31.408  26.428  21.675  1.00  0.00     0.063 H 
ATOM     28  C   UNL A   1      33.081  29.333  23.507  1.00  0.00    -0.062 A 
ATOM     29  H   UNL A   1      31.180  29.656  24.351  1.00  0.00     0.063 H 
ATOM     30  C   UNL A   1      33.830  28.522  22.660  1.00  0.00    -0.062 A 
ATOM     31  H   UNL A   1      33.779  26.842  21.387  1.00  0.00     0.062 H 
ATOM     32  H   UNL A   1      33.529  30.125  23.993  1.00  0.00     0.062 H 
ATOM     33  H   UNL A   1      34.836  28.710  22.520  1.00  0.00     0.062 H 
ENDBRANCH  19  23
BRANCH  22  34
ATOM     34  C   UNL A   1      28.573  29.906  22.679  1.00  0.00     0.002 A 
ATOM     35  C   UNL A   1      28.330  30.200  21.334  1.00  0.00    -0.053 A 
ATOM     36  C   UNL A   1      28.780  30.953  23.587  1.00  0.00    -0.053 A 
ATOM     37  C   UNL A   1      28.258  31.529  20.909  1.00  0.00    -0.062 A 
ATOM     38  H   UNL A   1      28.201  29.435  20.654  1.00  0.00     0.063 H 
ATOM     39  C   UNL A   1      28.715  32.280  23.160  1.00  0.00    -0.062 A 
ATOM     40  H   UNL A   1      28.982  30.742  24.576  1.00  0.00     0.063 H 
ATOM     41  C   UNL A   1      28.447  32.566  21.823  1.00  0.00    -0.062 A 
ATOM     42  H   UNL A   1      28.066  31.744  19.918  1.00  0.00     0.062 H 
ATOM     43  H   UNL A   1      28.866  33.046  23.833  1.00  0.00     0.062 H 
ATOM     44  H   UNL A   1      28.387  33.548  21.509  1.00  0.00     0.062 H 
ENDBRANCH  22  34
ENDBRANCH  14  17
ENDBRANCH  12  14
ENDBRANCH   7  10
ENDBRANCH   4   7
ENDBRANCH   1   4
BRANCH   1  45
ATOM     45  C   UNL A   1      34.180  29.295  26.962  1.00  0.00    -0.052 C 
ATOM     46  H   UNL A   1      34.572  29.465  25.980  1.00  0.00     0.027 H 
ATOM     47  H   UNL A   1      34.916  29.091  27.712  1.00  0.00     0.027 H 
BRANCH  45  48
ATOM     48  C   UNL A   1      33.497  30.593  27.417  1.00  0.00    -0.036 C 
ATOM     49  H   UNL A   1      32.992  30.396  28.340  1.00  0.00     0.028 H 
ATOM     50  H   UNL A   1      32.837  30.879  26.626  1.00  0.00     0.028 H 
BRANCH  48  51
ATOM     51  C   UNL A   1      34.441  31.767  27.635  1.00  0.00     0.018 C 
ATOM     52  H   UNL A   1      34.193  32.539  26.937  1.00  0.00     0.049 H 
ATOM     53  H   UNL A   1      35.438  31.404  27.496  1.00  0.00     0.049 H 
BRANCH  51  54
ATOM     54  N   UNL A   1      34.366  32.323  28.987  1.00  0.00    -0.352 N 
ATOM     55  C   UNL A   1      35.114  31.973  30.098  1.00  0.00     0.251 C 
ATOM     56  H   UNL A   1      33.701  33.035  29.123  1.00  0.00     0.163 HD
ATOM     57  O   UNL A   1      34.728  32.222  31.227  1.00  0.00    -0.269 OA
BRANCH  55  58
ATOM     58  C   UNL A   1      36.401  31.285  29.887  1.00  0.00     0.039 A 
ATOM     59  C   UNL A   1      37.580  31.996  29.651  1.00  0.00    -0.049 A 
ATOM     60  C   UNL A   1      36.412  29.897  29.972  1.00  0.00    -0.049 A 
ATOM     61  C   UNL A   1      38.785  31.298  29.593  1.00  0.00    -0.053 A 
ATOM     62  H   UNL A   1      37.560  33.020  29.521  1.00  0.00     0.063 H 
ATOM     63  C   UNL A   1      37.606  29.235  30.083  1.00  0.00    -0.053 A 
ATOM     64  H   UNL A   1      35.525  29.370  29.951  1.00  0.00     0.063 H 
ATOM     65  C   UNL A   1      38.794  29.915  29.834  1.00  0.00    -0.014 A 
ATOM     66  H   UNL A   1      39.664  31.793  29.374  1.00  0.00     0.063 H 
ATOM     67  H   UNL A   1      37.624  28.239  30.349  1.00  0.00     0.063 H 
BRANCH  65  68
ATOM     68  C   UNL A   1      40.049  29.174  29.925  1.00  0.00     0.031 A 
ATOM     69  C   UNL A   1      40.579  28.987  31.305  1.00  0.00     0.074 A 
ATOM     70  C   UNL A   1      40.567  28.498  28.875  1.00  0.00     0.049 A 
ATOM     71  N   UNL A   1      41.701  29.406  31.790  1.00  0.00    -0.248 NA
ATOM     72  C   UNL A   1      39.710  28.337  32.299  1.00  0.00    -0.034 C 
ATOM     73  C   UNL A   1      39.985  28.313  27.538  1.00  0.00    -0.036 A 
ATOM     74  N   UNL A   1      41.684  27.722  28.820  1.00  0.00    -0.354 N 
ATOM     75  C   UNL A   1      41.767  28.920  33.095  1.00  0.00     0.074 A 
ATOM     76  C   UNL A   1      40.455  28.413  33.403  1.00  0.00    -0.034 C 
ATOM     77  H   UNL A   1      38.770  27.928  32.176  1.00  0.00     0.065 H 
ATOM     78  C   UNL A   1      40.614  27.300  26.904  1.00  0.00    -0.036 A 
ATOM     79  H   UNL A   1      39.213  28.873  27.144  1.00  0.00     0.065 H 
ATOM     80  C   UNL A   1      41.754  26.898  27.704  1.00  0.00     0.049 A 
ATOM     81  H   UNL A   1      42.384  27.742  29.513  1.00  0.00     0.167 HD
ATOM     82  C   UNL A   1      42.964  28.762  33.727  1.00  0.00     0.037 A 
ATOM     83  H   UNL A   1      40.136  28.146  34.348  1.00  0.00     0.065 H 
ATOM     84  H   UNL A   1      40.330  26.883  26.005  1.00  0.00     0.065 H 
ATOM     85  C   UNL A   1      42.672  25.934  27.459  1.00  0.00     0.037 A 
ATOM     86  C   UNL A   1      44.001  29.505  33.058  1.00  0.00     0.049 A 
ATOM     87  C   UNL A   1      43.842  26.216  28.321  1.00  0.00     0.074 A 
ATOM     88  C   UNL A   1      44.235  30.838  32.790  1.00  0.00    -0.036 A 
ATOM     89  N   UNL A   1      44.837  28.804  32.227  1.00  0.00    -0.354 N 
ATOM     90  N   UNL A   1      44.621  27.252  28.181  1.00  0.00    -0.248 NA
ATOM     91  C   UNL A   1      43.911  25.554  29.614  1.00  0.00    -0.034 C 
ATOM     92  C   UNL A   1      44.850  30.855  31.502  1.00  0.00    -0.036 A 
ATOM     93  H   UNL A   1      44.015  31.648  33.391  1.00  0.00     0.065 H 
ATOM     94  C   UNL A   1      45.009  29.534  31.083  1.00  0.00     0.049 A 
ATOM     95  H   UNL A   1      45.242  27.928  32.421  1.00  0.00     0.167 HD
ATOM     96  C   UNL A   1      44.935  27.631  29.476  1.00  0.00     0.074 A 
ATOM     97  C   UNL A   1      44.580  26.481  30.302  1.00  0.00    -0.034 C 
ATOM     98  H   UNL A   1      43.547  24.635  29.912  1.00  0.00     0.065 H 
ATOM     99  H   UNL A   1      45.129  31.697  30.974  1.00  0.00     0.065 H 
ATOM    100  C   UNL A   1      45.181  28.939  29.776  1.00  0.00     0.037 A 
ATOM    101  H   UNL A   1      44.819  26.395  31.303  1.00  0.00     0.065 H 
BRANCH  82 102
ATOM    102  C   UNL A   1      43.293  27.638  34.687  1.00  0.00     0.064 A 
ATOM    103  C   UNL A   1      43.605  27.954  36.028  1.00  0.00     0.173 A 
ATOM    104  C   UNL A   1      43.628  26.327  34.285  1.00  0.00     0.173 A 
ATOM    105  F   UNL A   1      43.343  29.173  36.522  1.00  0.00    -0.203 F 
ATOM    106  C   UNL A   1      44.290  27.064  36.860  1.00  0.00     0.198 A 
ATOM    107  C   UNL A   1      44.262  25.422  35.137  1.00  0.00     0.198 A 
ATOM    108  F   UNL A   1      43.466  25.901  33.028  1.00  0.00    -0.203 F 
ATOM    109  F   UNL A   1      44.691  27.462  38.075  1.00  0.00    -0.200 F 
ATOM    110  C   UNL A   1      44.627  25.802  36.410  1.00  0.00     0.200 A 
ATOM    111  F   UNL A   1      44.596  24.209  34.675  1.00  0.00    -0.200 F 
ATOM    112  F   UNL A   1      45.344  24.972  37.179  1.00  0.00    -0.200 F 
ENDBRANCH  82 102
BRANCH  85 113
ATOM    113  C   UNL A   1      42.500  24.648  26.748  1.00  0.00     0.064 A 
ATOM    114  C   UNL A   1      43.191  24.383  25.556  1.00  0.00     0.173 A 
ATOM    115  C   UNL A   1      41.882  23.548  27.373  1.00  0.00     0.173 A 
ATOM    116  F   UNL A   1      43.839  25.370  24.920  1.00  0.00    -0.203 F 
ATOM    117  C   UNL A   1      43.291  23.089  25.038  1.00  0.00     0.198 A 
ATOM    118  C   UNL A   1      41.976  22.256  26.853  1.00  0.00     0.198 A 
ATOM    119  F   UNL A   1      41.258  23.689  28.552  1.00  0.00    -0.203 F 
ATOM    120  F   UNL A   1      44.019  22.863  23.936  1.00  0.00    -0.200 F 
ATOM    121  C   UNL A   1      42.695  22.024  25.695  1.00  0.00     0.200 A 
ATOM    122  F   UNL A   1      41.425  21.231  27.518  1.00  0.00    -0.200 F 
ATOM    123  F   UNL A   1      42.848  20.773  25.238  1.00  0.00    -0.200 F 
ENDBRANCH  85 113
BRANCH 100 124
ATOM    124  C   UNL A   1      45.433  29.882  28.631  1.00  0.00     0.064 A 
ATOM    125  C   UNL A   1      44.428  30.582  27.942  1.00  0.00     0.173 A 
ATOM    126  C   UNL A   1      46.762  30.181  28.308  1.00  0.00     0.173 A 
ATOM    127  F   UNL A   1      43.136  30.427  28.256  1.00  0.00    -0.203 F 
ATOM    128  C   UNL A   1      44.743  31.505  26.946  1.00  0.00     0.198 A 
ATOM    129  C   UNL A   1      47.075  31.130  27.339  1.00  0.00     0.198 A 
ATOM    130  F   UNL A   1      47.765  29.581  28.969  1.00  0.00    -0.203 F 
ATOM    131  F   UNL A   1      43.764  32.149  26.292  1.00  0.00    -0.200 F 
ATOM    132  C   UNL A   1      46.066  31.784  26.651  1.00  0.00     0.200 A 
ATOM    133  F   UNL A   1      48.357  31.430  27.092  1.00  0.00    -0.200 F 
ATOM    134  F   UNL A   1      46.371  32.700  25.720  1.00  0.00    -0.200 F 
ENDBRANCH 100 124
ENDBRANCH  65  68
ENDBRANCH  55  58
ENDBRANCH  51  54
ENDBRANCH  48  51
ENDBRANCH  45  48
ENDBRANCH   1  45
TORSDOF 16
ENDMDL
MODEL 5
REMARK VINA RESULT:     -12.2      2.357      3.202
REMARK SMILES O=C(Cn1cnc(-c2ccccc2)c1-c1ccccc1)NCCCCCCNC(=O)c1ccc(-c2c3nc(c(-c4c(F)c(F)c(F)c(F)c4F)c4ccc([nH]4)c(-c4c(F)c(F)c(F)c(F)c4F)c4nc(c(-c5c(F)c(F)c(F)c(F)c5F)c5ccc2[nH]5)C=C4)C=C3)cc1
REMARK SMILES IDX 24 1 23 4 22 7 21 10 1 11 2 12 3 14 4 17 5 18 14 19 6 20
REMARK SMILES IDX 7 22 15 23 16 24 20 25 17 26 19 28 18 30 8 34 9 35 13 36
REMARK SMILES IDX 10 37 12 39 11 41 25 45 26 48 27 51 28 54 29 55 30 57 31 58
REMARK SMILES IDX 32 59 93 60 33 61 92 63 34 65 35 68 36 69 86 70 37 71 91 72
REMARK SMILES IDX 85 73 87 74 38 75 90 76 84 78 83 80 39 82 71 85 51 86 70 87
REMARK SMILES IDX 52 88 55 89 69 90 88 91 53 92 54 94 68 96 89 97 56 100
REMARK SMILES IDX 40 102 41 103 49 104 42 105 43 106 47 107 50 108 44 109
REMARK SMILES IDX 45 110 48 111 46 112 72 113 73 114 81 115 74 116 75 117
REMARK SMILES IDX 79 118 82 119 76 120 77 121 80 122 78 123 57 124 58 125
REMARK SMILES IDX 66 126 59 127 60 128 64 129 67 130 61 131 62 132 65 133
REMARK SMILES IDX 63 134
REMARK H PARENT 24 2 24 3 23 5 23 6 22 8 22 9 21 13 3 15 3 16 5 21 16 27 20 29
REMARK H PARENT 17 31 19 32 18 33 9 38 13 40 10 42 12 43 11 44 25 46 25 47
REMARK H PARENT 26 49 26 50 27 52 27 53 28 56 32 62 93 64 33 66 92 67 91 77
REMARK H PARENT 85 79 87 81 90 83 84 84 52 93 55 95 88 98 53 99 89 101
REMARK Flexibility Score: inf
ROOT
ATOM      1  C   UNL A   1      36.294  22.029  24.325  1.00  0.00    -0.052 C 
ATOM      2  H   UNL A   1      35.975  22.883  23.762  1.00  0.00     0.027 H 
ATOM      3  H   UNL A   1      36.747  21.255  23.741  1.00  0.00     0.027 H 
ENDROOT
BRANCH   1   4
ATOM      4  C   UNL A   1      35.049  21.390  24.946  1.00  0.00    -0.036 C 
ATOM      5  H   UNL A   1      35.074  20.340  24.738  1.00  0.00     0.028 H 
ATOM      6  H   UNL A   1      35.086  21.613  25.992  1.00  0.00     0.028 H 
BRANCH   4   7
ATOM      7  C   UNL A   1      33.723  21.941  24.437  1.00  0.00     0.017 C 
ATOM      8  H   UNL A   1      33.332  21.268  23.703  1.00  0.00     0.049 H 
ATOM      9  H   UNL A   1      33.071  22.035  25.281  1.00  0.00     0.049 H 
BRANCH   7  10
ATOM     10  N   UNL A   1      33.848  23.257  23.837  1.00  0.00    -0.355 N 
ATOM     11  O   UNL A   1      32.734  24.359  25.506  1.00  0.00    -0.273 OA
ATOM     12  C   UNL A   1      33.418  24.399  24.484  1.00  0.00     0.239 C 
ATOM     13  H   UNL A   1      34.251  23.338  22.943  1.00  0.00     0.163 HD
BRANCH  12  14
ATOM     14  C   UNL A   1      33.756  25.719  23.823  1.00  0.00     0.103 C 
ATOM     15  H   UNL A   1      34.531  25.542  23.108  1.00  0.00     0.060 H 
ATOM     16  H   UNL A   1      34.048  26.380  24.613  1.00  0.00     0.060 H 
BRANCH  14  17
ATOM     17  N   UNL A   1      32.649  26.370  23.140  1.00  0.00    -0.321 N 
ATOM     18  C   UNL A   1      32.145  25.941  21.938  1.00  0.00     0.096 A 
ATOM     19  C   UNL A   1      31.849  27.403  23.588  1.00  0.00     0.076 A 
ATOM     20  N   UNL A   1      31.089  26.628  21.578  1.00  0.00    -0.236 NA
ATOM     21  H   UNL A   1      32.549  25.169  21.385  1.00  0.00     0.104 H 
ATOM     22  C   UNL A   1      30.894  27.539  22.585  1.00  0.00     0.096 A 
BRANCH  19  23
ATOM     23  C   UNL A   1      31.974  28.114  24.858  1.00  0.00     0.000 A 
ATOM     24  C   UNL A   1      32.763  29.267  24.944  1.00  0.00    -0.053 A 
ATOM     25  C   UNL A   1      31.410  27.596  26.027  1.00  0.00    -0.053 A 
ATOM     26  C   UNL A   1      32.957  29.901  26.173  1.00  0.00    -0.062 A 
ATOM     27  H   UNL A   1      33.203  29.651  24.093  1.00  0.00     0.063 H 
ATOM     28  C   UNL A   1      31.579  28.244  27.252  1.00  0.00    -0.062 A 
ATOM     29  H   UNL A   1      30.860  26.724  25.985  1.00  0.00     0.063 H 
ATOM     30  C   UNL A   1      32.356  29.397  27.324  1.00  0.00    -0.062 A 
ATOM     31  H   UNL A   1      33.548  30.746  26.228  1.00  0.00     0.062 H 
ATOM     32  H   UNL A   1      31.131  27.870  28.102  1.00  0.00     0.062 H 
ATOM     33  H   UNL A   1      32.486  29.876  28.229  1.00  0.00     0.062 H 
ENDBRANCH  19  23
BRANCH  22  34
ATOM     34  C   UNL A   1      29.798  28.488  22.602  1.00  0.00     0.002 A 
ATOM     35  C   UNL A   1      29.972  29.764  22.056  1.00  0.00    -0.053 A 
ATOM     36  C   UNL A   1      28.548  28.123  23.118  1.00  0.00    -0.053 A 
ATOM     37  C   UNL A   1      28.895  30.652  21.995  1.00  0.00    -0.062 A 
ATOM     38  H   UNL A   1      30.896  30.050  21.697  1.00  0.00     0.063 H 
ATOM     39  C   UNL A   1      27.475  29.014  23.062  1.00  0.00    -0.062 A 
ATOM     40  H   UNL A   1      28.420  27.192  23.542  1.00  0.00     0.063 H 
ATOM     41  C   UNL A   1      27.648  30.275  22.494  1.00  0.00    -0.062 A 
ATOM     42  H   UNL A   1      29.023  31.589  21.581  1.00  0.00     0.062 H 
ATOM     43  H   UNL A   1      26.556  28.740  23.441  1.00  0.00     0.062 H 
ATOM     44  H   UNL A   1      26.852  30.930  22.442  1.00  0.00     0.062 H 
ENDBRANCH  22  34
ENDBRANCH  14  17
ENDBRANCH  12  14
ENDBRANCH   7  10
ENDBRANCH   4   7
ENDBRANCH   1   4
BRANCH   1  45
ATOM     45  C   UNL A   1      37.387  22.495  25.296  1.00  0.00    -0.052 C 
ATOM     46  H   UNL A   1      36.923  22.668  26.246  1.00  0.00     0.027 H 
ATOM     47  H   UNL A   1      37.815  23.363  24.838  1.00  0.00     0.027 H 
BRANCH  45  48
ATOM     48  C   UNL A   1      38.570  21.544  25.527  1.00  0.00    -0.036 C 
ATOM     49  H   UNL A   1      39.043  21.366  24.583  1.00  0.00     0.028 H 
ATOM     50  H   UNL A   1      38.164  20.660  25.969  1.00  0.00     0.028 H 
BRANCH  48  51
ATOM     51  C   UNL A   1      39.625  22.062  26.495  1.00  0.00     0.018 C 
ATOM     52  H   UNL A   1      39.629  21.436  27.362  1.00  0.00     0.049 H 
ATOM     53  H   UNL A   1      39.371  23.074  26.731  1.00  0.00     0.049 H 
BRANCH  51  54
ATOM     54  N   UNL A   1      40.972  22.075  25.925  1.00  0.00    -0.352 N 
ATOM     55  C   UNL A   1      41.834  23.151  25.789  1.00  0.00     0.251 C 
ATOM     56  H   UNL A   1      41.310  21.211  25.597  1.00  0.00     0.163 HD
ATOM     57  O   UNL A   1      42.751  23.133  24.987  1.00  0.00    -0.269 OA
BRANCH  55  58
ATOM     58  C   UNL A   1      41.617  24.332  26.644  1.00  0.00     0.039 A 
ATOM     59  C   UNL A   1      42.201  24.437  27.910  1.00  0.00    -0.049 A 
ATOM     60  C   UNL A   1      40.841  25.366  26.132  1.00  0.00    -0.049 A 
ATOM     61  C   UNL A   1      42.070  25.632  28.613  1.00  0.00    -0.053 A 
ATOM     62  H   UNL A   1      42.721  23.642  28.316  1.00  0.00     0.063 H 
ATOM     63  C   UNL A   1      40.855  26.590  26.745  1.00  0.00    -0.053 A 
ATOM     64  H   UNL A   1      40.259  25.210  25.294  1.00  0.00     0.063 H 
ATOM     65  C   UNL A   1      41.412  26.718  28.013  1.00  0.00    -0.014 A 
ATOM     66  H   UNL A   1      42.452  25.719  29.568  1.00  0.00     0.063 H 
ATOM     67  H   UNL A   1      40.453  27.413  26.270  1.00  0.00     0.063 H 
BRANCH  65  68
ATOM     68  C   UNL A   1      41.379  28.028  28.656  1.00  0.00     0.031 A 
ATOM     69  C   UNL A   1      42.474  28.959  28.260  1.00  0.00     0.074 A 
ATOM     70  C   UNL A   1      40.313  28.459  29.366  1.00  0.00     0.049 A 
ATOM     71  N   UNL A   1      43.383  29.484  29.014  1.00  0.00    -0.248 NA
ATOM     72  C   UNL A   1      42.636  29.270  26.831  1.00  0.00    -0.034 C 
ATOM     73  C   UNL A   1      39.022  27.784  29.565  1.00  0.00    -0.036 A 
ATOM     74  N   UNL A   1      40.111  29.663  29.969  1.00  0.00    -0.354 N 
ATOM     75  C   UNL A   1      44.125  30.334  28.193  1.00  0.00     0.074 A 
ATOM     76  C   UNL A   1      43.726  30.039  26.842  1.00  0.00    -0.034 C 
ATOM     77  H   UNL A   1      42.059  28.972  26.029  1.00  0.00     0.065 H 
ATOM     78  C   UNL A   1      38.109  28.670  30.016  1.00  0.00    -0.036 A 
ATOM     79  H   UNL A   1      38.842  26.783  29.387  1.00  0.00     0.065 H 
ATOM     80  C   UNL A   1      38.790  29.914  30.317  1.00  0.00     0.049 A 
ATOM     81  H   UNL A   1      40.839  30.302  30.144  1.00  0.00     0.167 HD
ATOM     82  C   UNL A   1      44.832  31.374  28.716  1.00  0.00     0.037 A 
ATOM     83  H   UNL A   1      44.216  30.377  25.999  1.00  0.00     0.065 H 
ATOM     84  H   UNL A   1      37.099  28.492  30.126  1.00  0.00     0.065 H 
ATOM     85  C   UNL A   1      38.280  31.071  30.801  1.00  0.00     0.037 A 
ATOM     86  C   UNL A   1      45.019  31.209  30.135  1.00  0.00     0.049 A 
ATOM     87  C   UNL A   1      39.414  31.855  31.340  1.00  0.00     0.074 A 
ATOM     88  C   UNL A   1      45.647  30.281  30.940  1.00  0.00    -0.036 A 
ATOM     89  N   UNL A   1      44.189  31.921  30.962  1.00  0.00    -0.354 N 
ATOM     90  N   UNL A   1      40.110  31.509  32.386  1.00  0.00    -0.248 NA
ATOM     91  C   UNL A   1      40.044  32.831  30.465  1.00  0.00    -0.034 C 
ATOM     92  C   UNL A   1      44.825  30.180  32.102  1.00  0.00    -0.036 A 
ATOM     93  H   UNL A   1      46.523  29.772  30.745  1.00  0.00     0.065 H 
ATOM     94  C   UNL A   1      43.775  31.090  31.967  1.00  0.00     0.049 A 
ATOM     95  H   UNL A   1      43.935  32.866  30.852  1.00  0.00     0.167 HD
ATOM     96  C   UNL A   1      41.411  31.871  32.076  1.00  0.00     0.074 A 
ATOM     97  C   UNL A   1      41.288  32.789  30.947  1.00  0.00    -0.034 C 
ATOM     98  H   UNL A   1      39.646  33.391  29.695  1.00  0.00     0.065 H 
ATOM     99  H   UNL A   1      44.978  29.545  32.901  1.00  0.00     0.065 H 
ATOM    100  C   UNL A   1      42.467  31.167  32.578  1.00  0.00     0.037 A 
ATOM    101  H   UNL A   1      42.072  33.343  30.567  1.00  0.00     0.065 H 
BRANCH  82 102
ATOM    102  C   UNL A   1      45.006  32.723  28.049  1.00  0.00     0.064 A 
ATOM    103  C   UNL A   1      46.309  33.159  27.719  1.00  0.00     0.173 A 
ATOM    104  C   UNL A   1      44.012  33.724  28.020  1.00  0.00     0.173 A 
ATOM    105  F   UNL A   1      47.339  32.300  27.722  1.00  0.00    -0.203 F 
ATOM    106  C   UNL A   1      46.602  34.505  27.480  1.00  0.00     0.198 A 
ATOM    107  C   UNL A   1      44.300  35.057  27.727  1.00  0.00     0.198 A 
ATOM    108  F   UNL A   1      42.747  33.486  28.382  1.00  0.00    -0.203 F 
ATOM    109  F   UNL A   1      47.875  34.889  27.312  1.00  0.00    -0.200 F 
ATOM    110  C   UNL A   1      45.599  35.454  27.494  1.00  0.00     0.200 A 
ATOM    111  F   UNL A   1      43.315  35.966  27.763  1.00  0.00    -0.200 F 
ATOM    112  F   UNL A   1      45.886  36.753  27.337  1.00  0.00    -0.200 F 
ENDBRANCH  82 102
BRANCH  85 113
ATOM    113  C   UNL A   1      36.940  31.658  30.581  1.00  0.00     0.064 A 
ATOM    114  C   UNL A   1      36.031  31.800  31.640  1.00  0.00     0.173 A 
ATOM    115  C   UNL A   1      36.636  32.354  29.395  1.00  0.00     0.173 A 
ATOM    116  F   UNL A   1      36.268  31.200  32.816  1.00  0.00    -0.203 F 
ATOM    117  C   UNL A   1      34.903  32.619  31.534  1.00  0.00     0.198 A 
ATOM    118  C   UNL A   1      35.507  33.167  29.286  1.00  0.00     0.198 A 
ATOM    119  F   UNL A   1      37.481  32.336  28.353  1.00  0.00    -0.203 F 
ATOM    120  F   UNL A   1      34.095  32.786  32.590  1.00  0.00    -0.200 F 
ATOM    121  C   UNL A   1      34.650  33.312  30.361  1.00  0.00     0.200 A 
ATOM    122  F   UNL A   1      35.293  33.860  28.159  1.00  0.00    -0.200 F 
ATOM    123  F   UNL A   1      33.607  34.152  30.281  1.00  0.00    -0.200 F 
ENDBRANCH  85 113
BRANCH 100 124
ATOM    124  C   UNL A   1      42.197  30.228  33.722  1.00  0.00     0.064 A 
ATOM    125  C   UNL A   1      41.807  28.886  33.573  1.00  0.00     0.173 A 
ATOM    126  C   UNL A   1      42.472  30.677  35.019  1.00  0.00     0.173 A 
ATOM    127  F   UNL A   1      41.617  28.350  32.361  1.00  0.00    -0.203 F 
ATOM    128  C   UNL A   1      41.656  28.050  34.678  1.00  0.00     0.198 A 
ATOM    129  C   UNL A   1      42.357  29.830  36.118  1.00  0.00     0.198 A 
ATOM    130  F   UNL A   1      42.899  31.934  35.218  1.00  0.00    -0.203 F 
ATOM    131  F   UNL A   1      41.266  26.777  34.510  1.00  0.00    -0.200 F 
ATOM    132  C   UNL A   1      41.940  28.520  35.948  1.00  0.00     0.200 A 
ATOM    133  F   UNL A   1      42.680  30.278  37.338  1.00  0.00    -0.200 F 
ATOM    134  F   UNL A   1      41.834  27.706  37.008  1.00  0.00    -0.200 F 
ENDBRANCH 100 124
ENDBRANCH  65  68
ENDBRANCH  55  58
ENDBRANCH  51  54
ENDBRANCH  48  51
ENDBRANCH  45  48
ENDBRANCH   1  45
TORSDOF 16
ENDMDL
MODEL 6
REMARK VINA RESULT:     -12.1      3.036      8.800
REMARK SMILES O=C(Cn1cnc(-c2ccccc2)c1-c1ccccc1)NCCCCCCNC(=O)c1ccc(-c2c3nc(c(-c4c(F)c(F)c(F)c(F)c4F)c4ccc([nH]4)c(-c4c(F)c(F)c(F)c(F)c4F)c4nc(c(-c5c(F)c(F)c(F)c(F)c5F)c5ccc2[nH]5)C=C4)C=C3)cc1
REMARK SMILES IDX 24 1 23 4 22 7 21 10 1 11 2 12 3 14 4 17 5 18 14 19 6 20
REMARK SMILES IDX 7 22 15 23 16 24 20 25 17 26 19 28 18 30 8 34 9 35 13 36
REMARK SMILES IDX 10 37 12 39 11 41 25 45 26 48 27 51 28 54 29 55 30 57 31 58
REMARK SMILES IDX 32 59 93 60 33 61 92 63 34 65 35 68 36 69 86 70 37 71 91 72
REMARK SMILES IDX 85 73 87 74 38 75 90 76 84 78 83 80 39 82 71 85 51 86 70 87
REMARK SMILES IDX 52 88 55 89 69 90 88 91 53 92 54 94 68 96 89 97 56 100
REMARK SMILES IDX 40 102 41 103 49 104 42 105 43 106 47 107 50 108 44 109
REMARK SMILES IDX 45 110 48 111 46 112 72 113 73 114 81 115 74 116 75 117
REMARK SMILES IDX 79 118 82 119 76 120 77 121 80 122 78 123 57 124 58 125
REMARK SMILES IDX 66 126 59 127 60 128 64 129 67 130 61 131 62 132 65 133
REMARK SMILES IDX 63 134
REMARK H PARENT 24 2 24 3 23 5 23 6 22 8 22 9 21 13 3 15 3 16 5 21 16 27 20 29
REMARK H PARENT 17 31 19 32 18 33 9 38 13 40 10 42 12 43 11 44 25 46 25 47
REMARK H PARENT 26 49 26 50 27 52 27 53 28 56 32 62 93 64 33 66 92 67 91 77
REMARK H PARENT 85 79 87 81 90 83 84 84 52 93 55 95 88 98 53 99 89 101
REMARK Flexibility Score: inf
ROOT
ATOM      1  C   UNL A   1      31.312  29.557  24.973  1.00  0.00    -0.052 C 
ATOM      2  H   UNL A   1      30.567  29.318  25.703  1.00  0.00     0.027 H 
ATOM      3  H   UNL A   1      31.169  30.497  24.481  1.00  0.00     0.027 H 
ENDROOT
BRANCH   1   4
ATOM      4  C   UNL A   1      31.231  28.505  23.862  1.00  0.00    -0.036 C 
ATOM      5  H   UNL A   1      30.584  28.879  23.096  1.00  0.00     0.028 H 
ATOM      6  H   UNL A   1      32.234  28.343  23.527  1.00  0.00     0.028 H 
BRANCH   4   7
ATOM      7  C   UNL A   1      30.702  27.146  24.305  1.00  0.00     0.017 C 
ATOM      8  H   UNL A   1      30.078  27.284  25.163  1.00  0.00     0.049 H 
ATOM      9  H   UNL A   1      30.159  26.730  23.481  1.00  0.00     0.049 H 
BRANCH   7  10
ATOM     10  N   UNL A   1      31.757  26.210  24.646  1.00  0.00    -0.355 N 
ATOM     11  O   UNL A   1      31.309  26.191  26.891  1.00  0.00    -0.273 OA
ATOM     12  C   UNL A   1      31.916  25.723  25.928  1.00  0.00     0.239 C 
ATOM     13  H   UNL A   1      32.379  25.914  23.943  1.00  0.00     0.163 HD
BRANCH  12  14
ATOM     14  C   UNL A   1      32.949  24.630  26.115  1.00  0.00     0.103 C 
ATOM     15  H   UNL A   1      33.279  24.657  27.131  1.00  0.00     0.060 H 
ATOM     16  H   UNL A   1      33.727  24.833  25.408  1.00  0.00     0.060 H 
BRANCH  14  17
ATOM     17  N   UNL A   1      32.482  23.283  25.827  1.00  0.00    -0.321 N 
ATOM     18  C   UNL A   1      31.168  22.901  25.923  1.00  0.00     0.096 A 
ATOM     19  C   UNL A   1      33.193  22.219  25.308  1.00  0.00     0.076 A 
ATOM     20  N   UNL A   1      30.986  21.669  25.516  1.00  0.00    -0.236 NA
ATOM     21  H   UNL A   1      30.413  23.511  26.274  1.00  0.00     0.104 H 
ATOM     22  C   UNL A   1      32.229  21.230  25.136  1.00  0.00     0.096 A 
BRANCH  19  23
ATOM     23  C   UNL A   1      34.615  22.202  24.973  1.00  0.00     0.000 A 
ATOM     24  C   UNL A   1      35.065  22.789  23.784  1.00  0.00    -0.053 A 
ATOM     25  C   UNL A   1      35.530  21.505  25.767  1.00  0.00    -0.053 A 
ATOM     26  C   UNL A   1      36.409  22.701  23.416  1.00  0.00    -0.062 A 
ATOM     27  H   UNL A   1      34.398  23.291  23.177  1.00  0.00     0.063 H 
ATOM     28  C   UNL A   1      36.879  21.438  25.415  1.00  0.00    -0.062 A 
ATOM     29  H   UNL A   1      35.204  21.032  26.624  1.00  0.00     0.063 H 
ATOM     30  C   UNL A   1      37.318  22.036  24.236  1.00  0.00    -0.062 A 
ATOM     31  H   UNL A   1      36.730  23.128  22.533  1.00  0.00     0.062 H 
ATOM     32  H   UNL A   1      37.550  20.948  26.026  1.00  0.00     0.062 H 
ATOM     33  H   UNL A   1      38.314  21.986  23.972  1.00  0.00     0.062 H 
ENDBRANCH  19  23
BRANCH  22  34
ATOM     34  C   UNL A   1      32.477  19.912  24.586  1.00  0.00     0.002 A 
ATOM     35  C   UNL A   1      32.866  18.866  25.430  1.00  0.00    -0.053 A 
ATOM     36  C   UNL A   1      32.285  19.661  23.222  1.00  0.00    -0.053 A 
ATOM     37  C   UNL A   1      33.024  17.576  24.919  1.00  0.00    -0.062 A 
ATOM     38  H   UNL A   1      33.034  19.047  26.432  1.00  0.00     0.063 H 
ATOM     39  C   UNL A   1      32.450  18.373  22.711  1.00  0.00    -0.062 A 
ATOM     40  H   UNL A   1      32.019  20.433  22.591  1.00  0.00     0.063 H 
ATOM     41  C   UNL A   1      32.813  17.330  23.562  1.00  0.00    -0.062 A 
ATOM     42  H   UNL A   1      33.300  16.803  25.546  1.00  0.00     0.062 H 
ATOM     43  H   UNL A   1      32.305  18.194  21.706  1.00  0.00     0.062 H 
ATOM     44  H   UNL A   1      32.924  16.375  23.187  1.00  0.00     0.062 H 
ENDBRANCH  22  34
ENDBRANCH  14  17
ENDBRANCH  12  14
ENDBRANCH   7  10
ENDBRANCH   4   7
ENDBRANCH   1   4
BRANCH   1  45
ATOM     45  C   UNL A   1      32.656  29.683  25.704  1.00  0.00    -0.052 C 
ATOM     46  H   UNL A   1      33.389  29.987  24.985  1.00  0.00     0.027 H 
ATOM     47  H   UNL A   1      32.824  28.722  26.143  1.00  0.00     0.027 H 
BRANCH  45  48
ATOM     48  C   UNL A   1      32.724  30.672  26.877  1.00  0.00    -0.036 C 
ATOM     49  H   UNL A   1      32.015  30.360  27.616  1.00  0.00     0.028 H 
ATOM     50  H   UNL A   1      32.511  31.638  26.469  1.00  0.00     0.028 H 
BRANCH  48  51
ATOM     51  C   UNL A   1      34.088  30.778  27.544  1.00  0.00     0.018 C 
ATOM     52  H   UNL A   1      34.801  31.096  26.813  1.00  0.00     0.049 H 
ATOM     53  H   UNL A   1      34.323  29.813  27.942  1.00  0.00     0.049 H 
BRANCH  51  54
ATOM     54  N   UNL A   1      34.112  31.724  28.659  1.00  0.00    -0.352 N 
ATOM     55  C   UNL A   1      35.003  31.777  29.718  1.00  0.00     0.251 C 
ATOM     56  H   UNL A   1      33.407  32.410  28.657  1.00  0.00     0.163 HD
ATOM     57  O   UNL A   1      34.722  32.347  30.757  1.00  0.00    -0.269 OA
BRANCH  55  58
ATOM     58  C   UNL A   1      36.314  31.120  29.562  1.00  0.00     0.039 A 
ATOM     59  C   UNL A   1      37.482  31.858  29.356  1.00  0.00    -0.049 A 
ATOM     60  C   UNL A   1      36.358  29.734  29.669  1.00  0.00    -0.049 A 
ATOM     61  C   UNL A   1      38.706  31.192  29.350  1.00  0.00    -0.053 A 
ATOM     62  H   UNL A   1      37.440  32.880  29.210  1.00  0.00     0.063 H 
ATOM     63  C   UNL A   1      37.564  29.106  29.832  1.00  0.00    -0.053 A 
ATOM     64  H   UNL A   1      35.486  29.183  29.626  1.00  0.00     0.063 H 
ATOM     65  C   UNL A   1      38.742  29.813  29.613  1.00  0.00    -0.014 A 
ATOM     66  H   UNL A   1      39.579  31.707  29.155  1.00  0.00     0.063 H 
ATOM     67  H   UNL A   1      37.599  28.114  30.114  1.00  0.00     0.063 H 
BRANCH  65  68
ATOM     68  C   UNL A   1      40.012  29.107  29.759  1.00  0.00     0.031 A 
ATOM     69  C   UNL A   1      40.497  28.954  31.160  1.00  0.00     0.074 A 
ATOM     70  C   UNL A   1      40.584  28.430  28.739  1.00  0.00     0.049 A 
ATOM     71  N   UNL A   1      41.591  29.409  31.676  1.00  0.00    -0.248 NA
ATOM     72  C   UNL A   1      39.611  28.296  32.133  1.00  0.00    -0.034 C 
ATOM     73  C   UNL A   1      40.054  28.210  27.385  1.00  0.00    -0.036 A 
ATOM     74  N   UNL A   1      41.722  27.682  28.734  1.00  0.00    -0.354 N 
ATOM     75  C   UNL A   1      41.624  28.944  32.991  1.00  0.00     0.074 A 
ATOM     76  C   UNL A   1      40.316  28.407  33.261  1.00  0.00    -0.034 C 
ATOM     77  H   UNL A   1      38.688  27.860  31.983  1.00  0.00     0.065 H 
ATOM     78  C   UNL A   1      40.731  27.204  26.789  1.00  0.00    -0.036 A 
ATOM     79  H   UNL A   1      39.283  28.743  26.956  1.00  0.00     0.065 H 
ATOM     80  C   UNL A   1      41.852  26.845  27.634  1.00  0.00     0.049 A 
ATOM     81  H   UNL A   1      42.396  27.731  29.450  1.00  0.00     0.167 HD
ATOM     82  C   UNL A   1      42.801  28.826  33.666  1.00  0.00     0.037 A 
ATOM     83  H   UNL A   1      39.971  28.146  34.198  1.00  0.00     0.065 H 
ATOM     84  H   UNL A   1      40.490  26.768  25.887  1.00  0.00     0.065 H 
ATOM     85  C   UNL A   1      42.803  25.901  27.436  1.00  0.00     0.037 A 
ATOM     86  C   UNL A   1      43.842  29.587  33.022  1.00  0.00     0.049 A 
ATOM     87  C   UNL A   1      43.934  26.227  28.334  1.00  0.00     0.074 A 
ATOM     88  C   UNL A   1      44.051  30.922  32.742  1.00  0.00    -0.036 A 
ATOM     89  N   UNL A   1      44.724  28.896  32.232  1.00  0.00    -0.354 N 
ATOM     90  N   UNL A   1      44.690  27.281  28.204  1.00  0.00    -0.248 NA
ATOM     91  C   UNL A   1      43.975  25.585  29.638  1.00  0.00    -0.034 C 
ATOM     92  C   UNL A   1      44.710  30.937  31.476  1.00  0.00    -0.036 A 
ATOM     93  H   UNL A   1      43.788  31.734  33.323  1.00  0.00     0.065 H 
ATOM     94  C   UNL A   1      44.917  29.614  31.083  1.00  0.00     0.049 A 
ATOM     95  H   UNL A   1      45.145  28.034  32.453  1.00  0.00     0.167 HD
ATOM     96  C   UNL A   1      44.949  27.687  29.504  1.00  0.00     0.074 A 
ATOM     97  C   UNL A   1      44.595  26.540  30.335  1.00  0.00    -0.034 C 
ATOM     98  H   UNL A   1      43.625  24.662  29.937  1.00  0.00     0.065 H 
ATOM     99  H   UNL A   1      44.985  31.778  30.945  1.00  0.00     0.065 H 
ATOM    100  C   UNL A   1      45.150  29.006  29.792  1.00  0.00     0.037 A 
ATOM    101  H   UNL A   1      44.801  26.475  31.344  1.00  0.00     0.065 H 
BRANCH  82 102
ATOM    102  C   UNL A   1      43.125  27.725  34.654  1.00  0.00     0.064 A 
ATOM    103  C   UNL A   1      43.445  28.075  35.985  1.00  0.00     0.173 A 
ATOM    104  C   UNL A   1      43.449  26.402  34.286  1.00  0.00     0.173 A 
ATOM    105  F   UNL A   1      43.194  29.308  36.448  1.00  0.00    -0.203 F 
ATOM    106  C   UNL A   1      44.127  27.201  36.838  1.00  0.00     0.198 A 
ATOM    107  C   UNL A   1      44.079  25.515  35.158  1.00  0.00     0.198 A 
ATOM    108  F   UNL A   1      43.278  25.945  33.041  1.00  0.00    -0.203 F 
ATOM    109  F   UNL A   1      44.535  27.628  38.041  1.00  0.00    -0.200 F 
ATOM    110  C   UNL A   1      44.452  25.925  36.420  1.00  0.00     0.200 A 
ATOM    111  F   UNL A   1      44.402  24.288  34.727  1.00  0.00    -0.200 F 
ATOM    112  F   UNL A   1      45.166  25.110  37.207  1.00  0.00    -0.200 F 
ENDBRANCH  82 102
BRANCH  85 113
ATOM    113  C   UNL A   1      42.689  24.601  26.739  1.00  0.00     0.064 A 
ATOM    114  C   UNL A   1      43.345  24.375  25.519  1.00  0.00     0.173 A 
ATOM    115  C   UNL A   1      42.176  23.466  27.396  1.00  0.00     0.173 A 
ATOM    116  F   UNL A   1      43.895  25.400  24.851  1.00  0.00    -0.203 F 
ATOM    117  C   UNL A   1      43.511  23.087  25.004  1.00  0.00     0.198 A 
ATOM    118  C   UNL A   1      42.337  22.180  26.878  1.00  0.00     0.198 A 
ATOM    119  F   UNL A   1      41.596  23.574  28.601  1.00  0.00    -0.203 F 
ATOM    120  F   UNL A   1      44.205  22.903  23.871  1.00  0.00    -0.200 F 
ATOM    121  C   UNL A   1      43.019  21.989  25.691  1.00  0.00     0.200 A 
ATOM    122  F   UNL A   1      41.887  21.124  27.571  1.00  0.00    -0.200 F 
ATOM    123  F   UNL A   1      43.238  20.748  25.233  1.00  0.00    -0.200 F 
ENDBRANCH  85 113
BRANCH 100 124
ATOM    124  C   UNL A   1      45.418  29.937  28.643  1.00  0.00     0.064 A 
ATOM    125  C   UNL A   1      44.421  30.614  27.919  1.00  0.00     0.173 A 
ATOM    126  C   UNL A   1      46.751  30.254  28.350  1.00  0.00     0.173 A 
ATOM    127  F   UNL A   1      43.123  30.441  28.200  1.00  0.00    -0.203 F 
ATOM    128  C   UNL A   1      44.747  31.528  26.919  1.00  0.00     0.198 A 
ATOM    129  C   UNL A   1      47.074  31.196  27.378  1.00  0.00     0.198 A 
ATOM    130  F   UNL A   1      47.745  29.679  29.045  1.00  0.00    -0.203 F 
ATOM    131  F   UNL A   1      43.777  32.149  26.231  1.00  0.00    -0.200 F 
ATOM    132  C   UNL A   1      46.073  31.825  26.656  1.00  0.00     0.200 A 
ATOM    133  F   UNL A   1      48.357  31.513  27.161  1.00  0.00    -0.200 F 
ATOM    134  F   UNL A   1      46.389  32.734  25.722  1.00  0.00    -0.200 F 
ENDBRANCH 100 124
ENDBRANCH  65  68
ENDBRANCH  55  58
ENDBRANCH  51  54
ENDBRANCH  48  51
ENDBRANCH  45  48
ENDBRANCH   1  45
TORSDOF 16
ENDMDL
MODEL 7
REMARK VINA RESULT:     -12.1      3.140      8.687
REMARK SMILES O=C(Cn1cnc(-c2ccccc2)c1-c1ccccc1)NCCCCCCNC(=O)c1ccc(-c2c3nc(c(-c4c(F)c(F)c(F)c(F)c4F)c4ccc([nH]4)c(-c4c(F)c(F)c(F)c(F)c4F)c4nc(c(-c5c(F)c(F)c(F)c(F)c5F)c5ccc2[nH]5)C=C4)C=C3)cc1
REMARK SMILES IDX 24 1 23 4 22 7 21 10 1 11 2 12 3 14 4 17 5 18 14 19 6 20
REMARK SMILES IDX 7 22 15 23 16 24 20 25 17 26 19 28 18 30 8 34 9 35 13 36
REMARK SMILES IDX 10 37 12 39 11 41 25 45 26 48 27 51 28 54 29 55 30 57 31 58
REMARK SMILES IDX 32 59 93 60 33 61 92 63 34 65 35 68 36 69 86 70 37 71 91 72
REMARK SMILES IDX 85 73 87 74 38 75 90 76 84 78 83 80 39 82 71 85 51 86 70 87
REMARK SMILES IDX 52 88 55 89 69 90 88 91 53 92 54 94 68 96 89 97 56 100
REMARK SMILES IDX 40 102 41 103 49 104 42 105 43 106 47 107 50 108 44 109
REMARK SMILES IDX 45 110 48 111 46 112 72 113 73 114 81 115 74 116 75 117
REMARK SMILES IDX 79 118 82 119 76 120 77 121 80 122 78 123 57 124 58 125
REMARK SMILES IDX 66 126 59 127 60 128 64 129 67 130 61 131 62 132 65 133
REMARK SMILES IDX 63 134
REMARK H PARENT 24 2 24 3 23 5 23 6 22 8 22 9 21 13 3 15 3 16 5 21 16 27 20 29
REMARK H PARENT 17 31 19 32 18 33 9 38 13 40 10 42 12 43 11 44 25 46 25 47
REMARK H PARENT 26 49 26 50 27 52 27 53 28 56 32 62 93 64 33 66 92 67 91 77
REMARK H PARENT 85 79 87 81 90 83 84 84 52 93 55 95 88 98 53 99 89 101
REMARK Flexibility Score: inf
ROOT
ATOM      1  C   UNL A   1      33.884  28.010  26.456  1.00  0.00    -0.052 C 
ATOM      2  H   UNL A   1      34.476  27.422  25.785  1.00  0.00     0.027 H 
ATOM      3  H   UNL A   1      33.770  27.590  27.434  1.00  0.00     0.027 H 
ENDROOT
BRANCH   1   4
ATOM      4  C   UNL A   1      32.465  28.082  25.881  1.00  0.00    -0.036 C 
ATOM      5  H   UNL A   1      32.253  29.105  25.646  1.00  0.00     0.028 H 
ATOM      6  H   UNL A   1      32.455  27.442  25.024  1.00  0.00     0.028 H 
BRANCH   4   7
ATOM      7  C   UNL A   1      31.370  27.573  26.809  1.00  0.00     0.017 C 
ATOM      8  H   UNL A   1      31.543  27.965  27.789  1.00  0.00     0.049 H 
ATOM      9  H   UNL A   1      30.433  27.902  26.409  1.00  0.00     0.049 H 
BRANCH   7  10
ATOM     10  N   UNL A   1      31.323  26.125  26.891  1.00  0.00    -0.355 N 
ATOM     11  O   UNL A   1      29.729  25.871  25.268  1.00  0.00    -0.273 OA
ATOM     12  C   UNL A   1      30.558  25.368  26.025  1.00  0.00     0.239 C 
ATOM     13  H   UNL A   1      31.851  25.668  27.585  1.00  0.00     0.163 HD
BRANCH  12  14
ATOM     14  C   UNL A   1      30.726  23.865  26.111  1.00  0.00     0.103 C 
ATOM     15  H   UNL A   1      30.443  23.447  25.168  1.00  0.00     0.060 H 
ATOM     16  H   UNL A   1      30.108  23.543  26.923  1.00  0.00     0.060 H 
BRANCH  14  17
ATOM     17  N   UNL A   1      32.072  23.410  26.421  1.00  0.00    -0.321 N 
ATOM     18  C   UNL A   1      32.413  22.806  27.604  1.00  0.00     0.096 A 
ATOM     19  C   UNL A   1      33.180  23.376  25.597  1.00  0.00     0.076 A 
ATOM     20  N   UNL A   1      33.658  22.397  27.604  1.00  0.00    -0.236 NA
ATOM     21  H   UNL A   1      31.765  22.686  28.399  1.00  0.00     0.104 H 
ATOM     22  C   UNL A   1      34.149  22.746  26.371  1.00  0.00     0.096 A 
BRANCH  19  23
ATOM     23  C   UNL A   1      33.253  23.847  24.215  1.00  0.00     0.000 A 
ATOM     24  C   UNL A   1      33.547  25.188  23.943  1.00  0.00    -0.053 A 
ATOM     25  C   UNL A   1      32.918  23.002  23.152  1.00  0.00    -0.053 A 
ATOM     26  C   UNL A   1      33.532  25.663  22.630  1.00  0.00    -0.062 A 
ATOM     27  H   UNL A   1      33.777  25.829  24.719  1.00  0.00     0.063 H 
ATOM     28  C   UNL A   1      32.930  23.468  21.837  1.00  0.00    -0.062 A 
ATOM     29  H   UNL A   1      32.659  22.022  23.343  1.00  0.00     0.063 H 
ATOM     30  C   UNL A   1      33.235  24.801  21.576  1.00  0.00    -0.062 A 
ATOM     31  H   UNL A   1      33.741  26.656  22.439  1.00  0.00     0.062 H 
ATOM     32  H   UNL A   1      32.712  22.826  21.059  1.00  0.00     0.062 H 
ATOM     33  H   UNL A   1      33.241  25.149  20.605  1.00  0.00     0.062 H 
ENDBRANCH  19  23
BRANCH  22  34
ATOM     34  C   UNL A   1      35.499  22.447  25.936  1.00  0.00     0.002 A 
ATOM     35  C   UNL A   1      36.514  23.393  26.113  1.00  0.00    -0.053 A 
ATOM     36  C   UNL A   1      35.808  21.199  25.381  1.00  0.00    -0.053 A 
ATOM     37  C   UNL A   1      37.832  23.077  25.772  1.00  0.00    -0.062 A 
ATOM     38  H   UNL A   1      36.291  24.324  26.498  1.00  0.00     0.063 H 
ATOM     39  C   UNL A   1      37.124  20.888  25.035  1.00  0.00    -0.062 A 
ATOM     40  H   UNL A   1      35.060  20.506  25.228  1.00  0.00     0.063 H 
ATOM     41  C   UNL A   1      38.136  21.825  25.237  1.00  0.00    -0.062 A 
ATOM     42  H   UNL A   1      38.582  23.773  25.915  1.00  0.00     0.062 H 
ATOM     43  H   UNL A   1      37.347  19.967  24.629  1.00  0.00     0.062 H 
ATOM     44  H   UNL A   1      39.110  21.592  24.992  1.00  0.00     0.062 H 
ENDBRANCH  22  34
ENDBRANCH  14  17
ENDBRANCH  12  14
ENDBRANCH   7  10
ENDBRANCH   4   7
ENDBRANCH   1   4
BRANCH   1  45
ATOM     45  C   UNL A   1      34.609  29.345  26.670  1.00  0.00    -0.052 C 
ATOM     46  H   UNL A   1      34.791  29.773  25.705  1.00  0.00     0.027 H 
ATOM     47  H   UNL A   1      35.488  29.097  27.228  1.00  0.00     0.027 H 
BRANCH  45  48
ATOM     48  C   UNL A   1      33.888  30.405  27.516  1.00  0.00    -0.036 C 
ATOM     49  H   UNL A   1      33.708  29.989  28.486  1.00  0.00     0.028 H 
ATOM     50  H   UNL A   1      32.992  30.652  26.989  1.00  0.00     0.028 H 
BRANCH  48  51
ATOM     51  C   UNL A   1      34.655  31.708  27.694  1.00  0.00     0.018 C 
ATOM     52  H   UNL A   1      34.251  32.436  27.022  1.00  0.00     0.049 H 
ATOM     53  H   UNL A   1      35.685  31.501  27.491  1.00  0.00     0.049 H 
BRANCH  51  54
ATOM     54  N   UNL A   1      34.579  32.239  29.055  1.00  0.00    -0.352 N 
ATOM     55  C   UNL A   1      35.285  31.830  30.174  1.00  0.00     0.251 C 
ATOM     56  H   UNL A   1      33.948  32.980  29.194  1.00  0.00     0.163 HD
ATOM     57  O   UNL A   1      34.889  32.075  31.300  1.00  0.00    -0.269 OA
BRANCH  55  58
ATOM     58  C   UNL A   1      36.541  31.082  29.974  1.00  0.00     0.039 A 
ATOM     59  C   UNL A   1      37.755  31.738  29.755  1.00  0.00    -0.049 A 
ATOM     60  C   UNL A   1      36.485  29.696  30.053  1.00  0.00    -0.049 A 
ATOM     61  C   UNL A   1      38.926  30.984  29.707  1.00  0.00    -0.053 A 
ATOM     62  H   UNL A   1      37.784  32.763  29.630  1.00  0.00     0.063 H 
ATOM     63  C   UNL A   1      37.645  28.977  30.175  1.00  0.00    -0.053 A 
ATOM     64  H   UNL A   1      35.575  29.210  30.020  1.00  0.00     0.063 H 
ATOM     65  C   UNL A   1      38.867  29.601  29.942  1.00  0.00    -0.014 A 
ATOM     66  H   UNL A   1      39.830  31.438  29.501  1.00  0.00     0.063 H 
ATOM     67  H   UNL A   1      37.613  27.980  30.436  1.00  0.00     0.063 H 
BRANCH  65  68
ATOM     68  C   UNL A   1      40.084  28.801  30.044  1.00  0.00     0.031 A 
ATOM     69  C   UNL A   1      40.594  28.592  31.429  1.00  0.00     0.074 A 
ATOM     70  C   UNL A   1      40.577  28.099  28.999  1.00  0.00     0.049 A 
ATOM     71  N   UNL A   1      41.732  28.958  31.921  1.00  0.00    -0.248 NA
ATOM     72  C   UNL A   1      39.688  27.987  32.417  1.00  0.00    -0.034 C 
ATOM     73  C   UNL A   1      39.997  27.938  27.658  1.00  0.00    -0.036 A 
ATOM     74  N   UNL A   1      41.657  27.270  28.954  1.00  0.00    -0.354 N 
ATOM     75  C   UNL A   1      41.765  28.473  33.227  1.00  0.00     0.074 A 
ATOM     76  C   UNL A   1      40.428  28.030  33.527  1.00  0.00    -0.034 C 
ATOM     77  H   UNL A   1      38.731  27.623  32.288  1.00  0.00     0.065 H 
ATOM     78  C   UNL A   1      40.581  26.895  27.031  1.00  0.00    -0.036 A 
ATOM     79  H   UNL A   1      39.256  28.534  27.258  1.00  0.00     0.065 H 
ATOM     80  C   UNL A   1      41.695  26.441  27.840  1.00  0.00     0.049 A 
ATOM     81  H   UNL A   1      42.351  27.259  29.652  1.00  0.00     0.167 HD
ATOM     82  C   UNL A   1      42.948  28.259  33.868  1.00  0.00     0.037 A 
ATOM     83  H   UNL A   1      40.090  27.780  34.469  1.00  0.00     0.065 H 
ATOM     84  H   UNL A   1      40.285  26.491  26.130  1.00  0.00     0.065 H 
ATOM     85  C   UNL A   1      42.568  25.434  27.604  1.00  0.00     0.037 A 
ATOM     86  C   UNL A   1      44.024  28.950  33.206  1.00  0.00     0.049 A 
ATOM     87  C   UNL A   1      43.743  25.662  28.474  1.00  0.00     0.074 A 
ATOM     88  C   UNL A   1      44.324  30.270  32.937  1.00  0.00    -0.036 A 
ATOM     89  N   UNL A   1      44.832  28.208  32.383  1.00  0.00    -0.354 N 
ATOM     90  N   UNL A   1      44.572  26.659  28.337  1.00  0.00    -0.248 NA
ATOM     91  C   UNL A   1      43.771  25.000  29.769  1.00  0.00    -0.034 C 
ATOM     92  C   UNL A   1      44.949  30.255  31.654  1.00  0.00    -0.036 A 
ATOM     93  H   UNL A   1      44.138  31.090  33.535  1.00  0.00     0.065 H 
ATOM     94  C   UNL A   1      45.047  28.926  31.238  1.00  0.00     0.049 A 
ATOM     95  H   UNL A   1      45.194  27.314  32.581  1.00  0.00     0.167 HD
ATOM     96  C   UNL A   1      44.894  27.026  29.634  1.00  0.00     0.074 A 
ATOM     97  C   UNL A   1      44.478  25.896  30.460  1.00  0.00    -0.034 C 
ATOM     98  H   UNL A   1      43.361  24.100  30.066  1.00  0.00     0.065 H 
ATOM     99  H   UNL A   1      45.271  31.081  31.126  1.00  0.00     0.065 H 
ATOM    100  C   UNL A   1      45.200  28.321  29.934  1.00  0.00     0.037 A 
ATOM    101  H   UNL A   1      44.705  25.801  31.463  1.00  0.00     0.065 H 
BRANCH  82 102
ATOM    102  C   UNL A   1      43.216  27.122  34.833  1.00  0.00     0.064 A 
ATOM    103  C   UNL A   1      43.463  27.424  36.191  1.00  0.00     0.173 A 
ATOM    104  C   UNL A   1      43.557  25.812  34.436  1.00  0.00     0.173 A 
ATOM    105  F   UNL A   1      43.189  28.640  36.683  1.00  0.00    -0.203 F 
ATOM    106  C   UNL A   1      44.095  26.518  37.048  1.00  0.00     0.198 A 
ATOM    107  C   UNL A   1      44.137  24.892  35.310  1.00  0.00     0.198 A 
ATOM    108  F   UNL A   1      43.454  25.400  33.169  1.00  0.00    -0.203 F 
ATOM    109  F   UNL A   1      44.438  26.901  38.286  1.00  0.00    -0.200 F 
ATOM    110  C   UNL A   1      44.441  25.256  36.604  1.00  0.00     0.200 A 
ATOM    111  F   UNL A   1      44.481  23.680  34.854  1.00  0.00    -0.200 F 
ATOM    112  F   UNL A   1      45.110  24.411  37.400  1.00  0.00    -0.200 F 
ENDBRANCH  82 102
BRANCH  85 113
ATOM    113  C   UNL A   1      42.339  24.156  26.894  1.00  0.00     0.064 A 
ATOM    114  C   UNL A   1      43.243  23.697  25.923  1.00  0.00     0.173 A 
ATOM    115  C   UNL A   1      41.390  23.225  27.359  1.00  0.00     0.173 A 
ATOM    116  F   UNL A   1      44.201  24.512  25.457  1.00  0.00    -0.203 F 
ATOM    117  C   UNL A   1      43.223  22.375  25.470  1.00  0.00     0.198 A 
ATOM    118  C   UNL A   1      41.367  21.906  26.902  1.00  0.00     0.198 A 
ATOM    119  F   UNL A   1      40.532  23.550  28.337  1.00  0.00    -0.203 F 
ATOM    120  F   UNL A   1      44.147  21.954  24.594  1.00  0.00    -0.200 F 
ATOM    121  C   UNL A   1      42.294  21.477  25.970  1.00  0.00     0.200 A 
ATOM    122  F   UNL A   1      40.487  21.039  27.421  1.00  0.00    -0.200 F 
ATOM    123  F   UNL A   1      42.319  20.192  25.588  1.00  0.00    -0.200 F 
ENDBRANCH  85 113
BRANCH 100 124
ATOM    124  C   UNL A   1      45.505  29.248  28.789  1.00  0.00     0.064 A 
ATOM    125  C   UNL A   1      44.544  30.017  28.111  1.00  0.00     0.173 A 
ATOM    126  C   UNL A   1      46.849  29.458  28.455  1.00  0.00     0.173 A 
ATOM    127  F   UNL A   1      43.247  29.948  28.436  1.00  0.00    -0.203 F 
ATOM    128  C   UNL A   1      44.912  30.919  27.114  1.00  0.00     0.198 A 
ATOM    129  C   UNL A   1      47.217  30.386  27.485  1.00  0.00     0.198 A 
ATOM    130  F   UNL A   1      47.814  28.789  29.105  1.00  0.00    -0.203 F 
ATOM    131  F   UNL A   1      43.973  31.630  26.470  1.00  0.00    -0.200 F 
ATOM    132  C   UNL A   1      46.248  31.109  26.808  1.00  0.00     0.200 A 
ATOM    133  F   UNL A   1      48.514  30.599  27.228  1.00  0.00    -0.200 F 
ATOM    134  F   UNL A   1      46.606  32.005  25.877  1.00  0.00    -0.200 F 
ENDBRANCH 100 124
ENDBRANCH  65  68
ENDBRANCH  55  58
ENDBRANCH  51  54
ENDBRANCH  48  51
ENDBRANCH  45  48
ENDBRANCH   1  45
TORSDOF 16
ENDMDL
MODEL 8
REMARK VINA RESULT:     -12.0      2.316      3.588
REMARK SMILES O=C(Cn1cnc(-c2ccccc2)c1-c1ccccc1)NCCCCCCNC(=O)c1ccc(-c2c3nc(c(-c4c(F)c(F)c(F)c(F)c4F)c4ccc([nH]4)c(-c4c(F)c(F)c(F)c(F)c4F)c4nc(c(-c5c(F)c(F)c(F)c(F)c5F)c5ccc2[nH]5)C=C4)C=C3)cc1
REMARK SMILES IDX 24 1 23 4 22 7 21 10 1 11 2 12 3 14 4 17 5 18 14 19 6 20
REMARK SMILES IDX 7 22 15 23 16 24 20 25 17 26 19 28 18 30 8 34 9 35 13 36
REMARK SMILES IDX 10 37 12 39 11 41 25 45 26 48 27 51 28 54 29 55 30 57 31 58
REMARK SMILES IDX 32 59 93 60 33 61 92 63 34 65 35 68 36 69 86 70 37 71 91 72
REMARK SMILES IDX 85 73 87 74 38 75 90 76 84 78 83 80 39 82 71 85 51 86 70 87
REMARK SMILES IDX 52 88 55 89 69 90 88 91 53 92 54 94 68 96 89 97 56 100
REMARK SMILES IDX 40 102 41 103 49 104 42 105 43 106 47 107 50 108 44 109
REMARK SMILES IDX 45 110 48 111 46 112 72 113 73 114 81 115 74 116 75 117
REMARK SMILES IDX 79 118 82 119 76 120 77 121 80 122 78 123 57 124 58 125
REMARK SMILES IDX 66 126 59 127 60 128 64 129 67 130 61 131 62 132 65 133
REMARK SMILES IDX 63 134
REMARK H PARENT 24 2 24 3 23 5 23 6 22 8 22 9 21 13 3 15 3 16 5 21 16 27 20 29
REMARK H PARENT 17 31 19 32 18 33 9 38 13 40 10 42 12 43 11 44 25 46 25 47
REMARK H PARENT 26 49 26 50 27 52 27 53 28 56 32 62 93 64 33 66 92 67 91 77
REMARK H PARENT 85 79 87 81 90 83 84 84 52 93 55 95 88 98 53 99 89 101
REMARK Flexibility Score: inf
ROOT
ATOM      1  C   UNL A   1      36.013  22.564  25.560  1.00  0.00    -0.052 C 
ATOM      2  H   UNL A   1      35.514  23.126  26.323  1.00  0.00     0.027 H 
ATOM      3  H   UNL A   1      35.707  22.798  24.562  1.00  0.00     0.027 H 
ENDROOT
BRANCH   1   4
ATOM      4  C   UNL A   1      35.651  21.089  25.758  1.00  0.00    -0.036 C 
ATOM      5  H   UNL A   1      36.551  20.512  25.686  1.00  0.00     0.028 H 
ATOM      6  H   UNL A   1      35.181  21.020  26.717  1.00  0.00     0.028 H 
BRANCH   4   7
ATOM      7  C   UNL A   1      34.652  20.533  24.750  1.00  0.00     0.017 C 
ATOM      8  H   UNL A   1      35.168  20.321  23.838  1.00  0.00     0.049 H 
ATOM      9  H   UNL A   1      34.222  19.652  25.180  1.00  0.00     0.049 H 
BRANCH   7  10
ATOM     10  N   UNL A   1      33.565  21.452  24.464  1.00  0.00    -0.355 N 
ATOM     11  O   UNL A   1      31.895  19.965  24.956  1.00  0.00    -0.273 OA
ATOM     12  C   UNL A   1      32.245  21.114  24.689  1.00  0.00     0.239 C 
ATOM     13  H   UNL A   1      33.774  22.341  24.098  1.00  0.00     0.163 HD
BRANCH  12  14
ATOM     14  C   UNL A   1      31.223  22.217  24.505  1.00  0.00     0.103 C 
ATOM     15  H   UNL A   1      30.253  21.802  24.678  1.00  0.00     0.060 H 
ATOM     16  H   UNL A   1      31.358  22.585  23.509  1.00  0.00     0.060 H 
BRANCH  14  17
ATOM     17  N   UNL A   1      31.386  23.364  25.385  1.00  0.00    -0.321 N 
ATOM     18  C   UNL A   1      31.263  23.294  26.749  1.00  0.00     0.096 A 
ATOM     19  C   UNL A   1      31.798  24.643  25.064  1.00  0.00     0.076 A 
ATOM     20  N   UNL A   1      31.554  24.435  27.326  1.00  0.00    -0.236 NA
ATOM     21  H   UNL A   1      30.976  22.444  27.261  1.00  0.00     0.104 H 
ATOM     22  C   UNL A   1      31.883  25.281  26.297  1.00  0.00     0.096 A 
BRANCH  19  23
ATOM     23  C   UNL A   1      32.121  25.145  23.731  1.00  0.00     0.000 A 
ATOM     24  C   UNL A   1      31.145  25.800  22.971  1.00  0.00    -0.053 A 
ATOM     25  C   UNL A   1      33.363  24.882  23.147  1.00  0.00    -0.053 A 
ATOM     26  C   UNL A   1      31.420  26.205  21.663  1.00  0.00    -0.062 A 
ATOM     27  H   UNL A   1      30.215  25.985  23.380  1.00  0.00     0.063 H 
ATOM     28  C   UNL A   1      33.651  25.310  21.851  1.00  0.00    -0.062 A 
ATOM     29  H   UNL A   1      34.077  24.364  23.682  1.00  0.00     0.063 H 
ATOM     30  C   UNL A   1      32.676  25.971  21.107  1.00  0.00    -0.062 A 
ATOM     31  H   UNL A   1      30.691  26.679  21.106  1.00  0.00     0.062 H 
ATOM     32  H   UNL A   1      34.582  25.138  21.443  1.00  0.00     0.062 H 
ATOM     33  H   UNL A   1      32.885  26.286  20.147  1.00  0.00     0.062 H 
ENDBRANCH  19  23
BRANCH  22  34
ATOM     34  C   UNL A   1      32.305  26.654  26.498  1.00  0.00     0.002 A 
ATOM     35  C   UNL A   1      33.606  27.040  26.161  1.00  0.00    -0.053 A 
ATOM     36  C   UNL A   1      31.405  27.611  26.983  1.00  0.00    -0.053 A 
ATOM     37  C   UNL A   1      33.990  28.378  26.274  1.00  0.00    -0.062 A 
ATOM     38  H   UNL A   1      34.282  26.337  25.826  1.00  0.00     0.063 H 
ATOM     39  C   UNL A   1      31.793  28.947  27.102  1.00  0.00    -0.062 A 
ATOM     40  H   UNL A   1      30.451  27.328  27.254  1.00  0.00     0.063 H 
ATOM     41  C   UNL A   1      33.083  29.330  26.740  1.00  0.00    -0.062 A 
ATOM     42  H   UNL A   1      34.948  28.663  26.013  1.00  0.00     0.062 H 
ATOM     43  H   UNL A   1      31.126  29.648  27.458  1.00  0.00     0.062 H 
ATOM     44  H   UNL A   1      33.367  30.319  26.818  1.00  0.00     0.062 H 
ENDBRANCH  22  34
ENDBRANCH  14  17
ENDBRANCH  12  14
ENDBRANCH   7  10
ENDBRANCH   4   7
ENDBRANCH   1   4
BRANCH   1  45
ATOM     45  C   UNL A   1      37.505  22.921  25.621  1.00  0.00    -0.052 C 
ATOM     46  H   UNL A   1      37.694  23.360  26.579  1.00  0.00     0.027 H 
ATOM     47  H   UNL A   1      37.669  23.571  24.786  1.00  0.00     0.027 H 
BRANCH  45  48
ATOM     48  C   UNL A   1      38.507  21.773  25.433  1.00  0.00    -0.036 C 
ATOM     49  H   UNL A   1      38.978  21.895  24.480  1.00  0.00     0.028 H 
ATOM     50  H   UNL A   1      37.945  20.867  25.514  1.00  0.00     0.028 H 
BRANCH  48  51
ATOM     51  C   UNL A   1      39.597  21.698  26.493  1.00  0.00     0.018 C 
ATOM     52  H   UNL A   1      39.454  20.807  27.067  1.00  0.00     0.049 H 
ATOM     53  H   UNL A   1      39.517  22.580  27.094  1.00  0.00     0.049 H 
BRANCH  51  54
ATOM     54  N   UNL A   1      40.947  21.678  25.931  1.00  0.00    -0.352 N 
ATOM     55  C   UNL A   1      41.835  22.732  25.797  1.00  0.00     0.251 C 
ATOM     56  H   UNL A   1      41.265  20.805  25.606  1.00  0.00     0.163 HD
ATOM     57  O   UNL A   1      42.756  22.690  25.000  1.00  0.00    -0.269 OA
BRANCH  55  58
ATOM     58  C   UNL A   1      41.643  23.920  26.649  1.00  0.00     0.039 A 
ATOM     59  C   UNL A   1      42.232  24.018  27.912  1.00  0.00    -0.049 A 
ATOM     60  C   UNL A   1      40.885  24.966  26.134  1.00  0.00    -0.049 A 
ATOM     61  C   UNL A   1      42.124  25.218  28.612  1.00  0.00    -0.053 A 
ATOM     62  H   UNL A   1      42.738  23.216  28.320  1.00  0.00     0.063 H 
ATOM     63  C   UNL A   1      40.923  26.193  26.743  1.00  0.00    -0.053 A 
ATOM     64  H   UNL A   1      40.298  24.819  25.299  1.00  0.00     0.063 H 
ATOM     65  C   UNL A   1      41.486  26.314  28.010  1.00  0.00    -0.014 A 
ATOM     66  H   UNL A   1      42.511  25.302  29.566  1.00  0.00     0.063 H 
ATOM     67  H   UNL A   1      40.535  27.021  26.266  1.00  0.00     0.063 H 
BRANCH  65  68
ATOM     68  C   UNL A   1      41.479  27.627  28.648  1.00  0.00     0.031 A 
ATOM     69  C   UNL A   1      42.607  28.524  28.271  1.00  0.00     0.074 A 
ATOM     70  C   UNL A   1      40.411  28.091  29.336  1.00  0.00     0.049 A 
ATOM     71  N   UNL A   1      43.517  29.025  29.041  1.00  0.00    -0.248 NA
ATOM     72  C   UNL A   1      42.807  28.825  26.844  1.00  0.00    -0.034 C 
ATOM     73  C   UNL A   1      39.098  27.455  29.511  1.00  0.00    -0.036 A 
ATOM     74  N   UNL A   1      40.233  29.302  29.932  1.00  0.00    -0.354 N 
ATOM     75  C   UNL A   1      44.299  29.849  28.233  1.00  0.00     0.074 A 
ATOM     76  C   UNL A   1      43.919  29.562  26.875  1.00  0.00    -0.034 C 
ATOM     77  H   UNL A   1      42.237  28.541  26.032  1.00  0.00     0.065 H 
ATOM     78  C   UNL A   1      38.203  28.369  29.941  1.00  0.00    -0.036 A 
ATOM     79  H   UNL A   1      38.892  26.460  29.332  1.00  0.00     0.065 H 
ATOM     80  C   UNL A   1      38.914  29.593  30.253  1.00  0.00     0.049 A 
ATOM     81  H   UNL A   1      40.977  29.920  30.118  1.00  0.00     0.167 HD
ATOM     82  C   UNL A   1      45.027  30.870  28.766  1.00  0.00     0.037 A 
ATOM     83  H   UNL A   1      44.435  29.882  26.040  1.00  0.00     0.065 H 
ATOM     84  H   UNL A   1      37.186  28.221  30.033  1.00  0.00     0.065 H 
ATOM     85  C   UNL A   1      38.429  30.767  30.723  1.00  0.00     0.037 A 
ATOM     86  C   UNL A   1      45.181  30.704  30.189  1.00  0.00     0.049 A 
ATOM     87  C   UNL A   1      39.575  31.519  31.282  1.00  0.00     0.074 A 
ATOM     88  C   UNL A   1      45.766  29.761  31.009  1.00  0.00    -0.036 A 
ATOM     89  N   UNL A   1      44.356  31.444  30.998  1.00  0.00    -0.354 N 
ATOM     90  N   UNL A   1      40.240  31.156  32.343  1.00  0.00    -0.248 NA
ATOM     91  C   UNL A   1      40.251  32.473  30.417  1.00  0.00    -0.034 C 
ATOM     92  C   UNL A   1      44.918  29.688  32.155  1.00  0.00    -0.036 A 
ATOM     93  H   UNL A   1      46.630  29.226  30.833  1.00  0.00     0.065 H 
ATOM     94  C   UNL A   1      43.898  30.628  31.997  1.00  0.00     0.049 A 
ATOM     95  H   UNL A   1      44.132  32.395  30.880  1.00  0.00     0.167 HD
ATOM     96  C   UNL A   1      41.557  31.478  32.056  1.00  0.00     0.074 A 
ATOM     97  C   UNL A   1      41.483  32.396  30.923  1.00  0.00    -0.034 C 
ATOM     98  H   UNL A   1      39.884  33.042  29.638  1.00  0.00     0.065 H 
ATOM     99  H   UNL A   1      45.037  29.052  32.959  1.00  0.00     0.065 H 
ATOM    100  C   UNL A   1      42.582  30.746  32.582  1.00  0.00     0.037 A 
ATOM    101  H   UNL A   1      42.290  32.925  30.557  1.00  0.00     0.065 H 
BRANCH  82 102
ATOM    102  C   UNL A   1      45.253  32.211  28.099  1.00  0.00     0.064 A 
ATOM    103  C   UNL A   1      44.147  33.063  27.886  1.00  0.00     0.173 A 
ATOM    104  C   UNL A   1      46.421  32.550  27.383  1.00  0.00     0.173 A 
ATOM    105  F   UNL A   1      42.979  32.836  28.504  1.00  0.00    -0.203 F 
ATOM    106  C   UNL A   1      44.181  34.104  26.953  1.00  0.00     0.198 A 
ATOM    107  C   UNL A   1      46.468  33.625  26.494  1.00  0.00     0.198 A 
ATOM    108  F   UNL A   1      47.526  31.799  27.419  1.00  0.00    -0.203 F 
ATOM    109  F   UNL A   1      43.064  34.793  26.682  1.00  0.00    -0.200 F 
ATOM    110  C   UNL A   1      45.339  34.377  26.250  1.00  0.00     0.200 A 
ATOM    111  F   UNL A   1      47.595  33.862  25.809  1.00  0.00    -0.200 F 
ATOM    112  F   UNL A   1      45.357  35.327  25.306  1.00  0.00    -0.200 F 
ENDBRANCH  82 102
BRANCH  85 113
ATOM    113  C   UNL A   1      37.112  31.392  30.475  1.00  0.00     0.064 A 
ATOM    114  C   UNL A   1      36.223  31.647  31.531  1.00  0.00     0.173 A 
ATOM    115  C   UNL A   1      36.821  32.014  29.245  1.00  0.00     0.173 A 
ATOM    116  F   UNL A   1      36.451  31.123  32.744  1.00  0.00    -0.203 F 
ATOM    117  C   UNL A   1      35.128  32.503  31.377  1.00  0.00     0.198 A 
ATOM    118  C   UNL A   1      35.724  32.863  29.090  1.00  0.00     0.198 A 
ATOM    119  F   UNL A   1      37.650  31.886  28.199  1.00  0.00    -0.203 F 
ATOM    120  F   UNL A   1      34.341  32.778  32.427  1.00  0.00    -0.200 F 
ATOM    121  C   UNL A   1      34.888  33.121  30.160  1.00  0.00     0.200 A 
ATOM    122  F   UNL A   1      35.525  33.482  27.918  1.00  0.00    -0.200 F 
ATOM    123  F   UNL A   1      33.880  33.995  30.031  1.00  0.00    -0.200 F 
ENDBRANCH  85 113
BRANCH 100 124
ATOM    124  C   UNL A   1      42.262  29.819  33.722  1.00  0.00     0.064 A 
ATOM    125  C   UNL A   1      41.845  28.485  33.570  1.00  0.00     0.173 A 
ATOM    126  C   UNL A   1      42.514  30.269  35.025  1.00  0.00     0.173 A 
ATOM    127  F   UNL A   1      41.673  27.948  32.356  1.00  0.00    -0.203 F 
ATOM    128  C   UNL A   1      41.647  27.658  34.675  1.00  0.00     0.198 A 
ATOM    129  C   UNL A   1      42.353  29.430  36.123  1.00  0.00     0.198 A 
ATOM    130  F   UNL A   1      42.964  31.517  35.228  1.00  0.00    -0.203 F 
ATOM    131  F   UNL A   1      41.233  26.394  34.503  1.00  0.00    -0.200 F 
ATOM    132  C   UNL A   1      41.910  28.129  35.950  1.00  0.00     0.200 A 
ATOM    133  F   UNL A   1      42.655  29.877  37.350  1.00  0.00    -0.200 F 
ATOM    134  F   UNL A   1      41.759  27.323  37.011  1.00  0.00    -0.200 F 
ENDBRANCH 100 124
ENDBRANCH  65  68
ENDBRANCH  55  58
ENDBRANCH  51  54
ENDBRANCH  48  51
ENDBRANCH  45  48
ENDBRANCH   1  45
TORSDOF 16
ENDMDL
MODEL 9
REMARK VINA RESULT:     -11.9      1.646      2.800
REMARK SMILES O=C(Cn1cnc(-c2ccccc2)c1-c1ccccc1)NCCCCCCNC(=O)c1ccc(-c2c3nc(c(-c4c(F)c(F)c(F)c(F)c4F)c4ccc([nH]4)c(-c4c(F)c(F)c(F)c(F)c4F)c4nc(c(-c5c(F)c(F)c(F)c(F)c5F)c5ccc2[nH]5)C=C4)C=C3)cc1
REMARK SMILES IDX 24 1 23 4 22 7 21 10 1 11 2 12 3 14 4 17 5 18 14 19 6 20
REMARK SMILES IDX 7 22 15 23 16 24 20 25 17 26 19 28 18 30 8 34 9 35 13 36
REMARK SMILES IDX 10 37 12 39 11 41 25 45 26 48 27 51 28 54 29 55 30 57 31 58
REMARK SMILES IDX 32 59 93 60 33 61 92 63 34 65 35 68 36 69 86 70 37 71 91 72
REMARK SMILES IDX 85 73 87 74 38 75 90 76 84 78 83 80 39 82 71 85 51 86 70 87
REMARK SMILES IDX 52 88 55 89 69 90 88 91 53 92 54 94 68 96 89 97 56 100
REMARK SMILES IDX 40 102 41 103 49 104 42 105 43 106 47 107 50 108 44 109
REMARK SMILES IDX 45 110 48 111 46 112 72 113 73 114 81 115 74 116 75 117
REMARK SMILES IDX 79 118 82 119 76 120 77 121 80 122 78 123 57 124 58 125
REMARK SMILES IDX 66 126 59 127 60 128 64 129 67 130 61 131 62 132 65 133
REMARK SMILES IDX 63 134
REMARK H PARENT 24 2 24 3 23 5 23 6 22 8 22 9 21 13 3 15 3 16 5 21 16 27 20 29
REMARK H PARENT 17 31 19 32 18 33 9 38 13 40 10 42 12 43 11 44 25 46 25 47
REMARK H PARENT 26 49 26 50 27 52 27 53 28 56 32 62 93 64 33 66 92 67 91 77
REMARK H PARENT 85 79 87 81 90 83 84 84 52 93 55 95 88 98 53 99 89 101
REMARK Flexibility Score: inf
ROOT
ATOM      1  C   UNL A   1      40.831  21.789  28.120  1.00  0.00    -0.052 C 
ATOM      2  H   UNL A   1      40.239  20.952  28.430  1.00  0.00     0.027 H 
ATOM      3  H   UNL A   1      40.953  22.549  28.864  1.00  0.00     0.027 H 
ENDROOT
BRANCH   1   4
ATOM      4  C   UNL A   1      40.098  22.473  26.961  1.00  0.00    -0.036 C 
ATOM      5  H   UNL A   1      39.473  23.240  27.370  1.00  0.00     0.028 H 
ATOM      6  H   UNL A   1      40.856  22.850  26.307  1.00  0.00     0.028 H 
BRANCH   4   7
ATOM      7  C   UNL A   1      39.225  21.549  26.120  1.00  0.00     0.017 C 
ATOM      8  H   UNL A   1      39.860  20.914  25.540  1.00  0.00     0.049 H 
ATOM      9  H   UNL A   1      38.610  20.990  26.794  1.00  0.00     0.049 H 
BRANCH   7  10
ATOM     10  N   UNL A   1      38.342  22.268  25.220  1.00  0.00    -0.355 N 
ATOM     11  O   UNL A   1      37.084  20.441  24.653  1.00  0.00    -0.273 OA
ATOM     12  C   UNL A   1      37.257  21.659  24.620  1.00  0.00     0.239 C 
ATOM     13  H   UNL A   1      38.522  23.217  25.030  1.00  0.00     0.163 HD
BRANCH  12  14
ATOM     14  C   UNL A   1      36.324  22.558  23.837  1.00  0.00     0.103 C 
ATOM     15  H   UNL A   1      35.832  21.962  23.098  1.00  0.00     0.060 H 
ATOM     16  H   UNL A   1      36.935  23.332  23.422  1.00  0.00     0.060 H 
BRANCH  14  17
ATOM     17  N   UNL A   1      35.304  23.229  24.627  1.00  0.00    -0.321 N 
ATOM     18  C   UNL A   1      35.487  24.455  25.215  1.00  0.00     0.096 A 
ATOM     19  C   UNL A   1      33.988  22.858  24.828  1.00  0.00     0.076 A 
ATOM     20  N   UNL A   1      34.391  24.891  25.787  1.00  0.00    -0.236 NA
ATOM     21  H   UNL A   1      36.380  24.971  25.208  1.00  0.00     0.104 H 
ATOM     22  C   UNL A   1      33.455  23.914  25.560  1.00  0.00     0.096 A 
BRANCH  19  23
ATOM     23  C   UNL A   1      33.335  21.656  24.315  1.00  0.00     0.000 A 
ATOM     24  C   UNL A   1      33.519  20.426  24.958  1.00  0.00    -0.053 A 
ATOM     25  C   UNL A   1      32.614  21.688  23.118  1.00  0.00    -0.053 A 
ATOM     26  C   UNL A   1      32.968  19.259  24.424  1.00  0.00    -0.062 A 
ATOM     27  H   UNL A   1      34.065  20.382  25.833  1.00  0.00     0.063 H 
ATOM     28  C   UNL A   1      32.040  20.528  22.596  1.00  0.00    -0.062 A 
ATOM     29  H   UNL A   1      32.506  22.580  22.612  1.00  0.00     0.063 H 
ATOM     30  C   UNL A   1      32.220  19.312  23.250  1.00  0.00    -0.062 A 
ATOM     31  H   UNL A   1      33.117  18.355  24.900  1.00  0.00     0.062 H 
ATOM     32  H   UNL A   1      31.483  20.570  21.729  1.00  0.00     0.062 H 
ATOM     33  H   UNL A   1      31.799  18.451  22.865  1.00  0.00     0.062 H 
ENDBRANCH  19  23
BRANCH  22  34
ATOM     34  C   UNL A   1      32.078  24.010  26.002  1.00  0.00     0.002 A 
ATOM     35  C   UNL A   1      31.361  25.193  25.797  1.00  0.00    -0.053 A 
ATOM     36  C   UNL A   1      31.441  22.911  26.591  1.00  0.00    -0.053 A 
ATOM     37  C   UNL A   1      30.009  25.262  26.145  1.00  0.00    -0.062 A 
ATOM     38  H   UNL A   1      31.829  26.016  25.386  1.00  0.00     0.063 H 
ATOM     39  C   UNL A   1      30.092  22.984  26.945  1.00  0.00    -0.062 A 
ATOM     40  H   UNL A   1      31.971  22.043  26.765  1.00  0.00     0.063 H 
ATOM     41  C   UNL A   1      29.377  24.157  26.715  1.00  0.00    -0.062 A 
ATOM     42  H   UNL A   1      29.479  26.132  25.982  1.00  0.00     0.062 H 
ATOM     43  H   UNL A   1      29.628  22.171  27.377  1.00  0.00     0.062 H 
ATOM     44  H   UNL A   1      28.377  24.207  26.965  1.00  0.00     0.062 H 
ENDBRANCH  22  34
ENDBRANCH  14  17
ENDBRANCH  12  14
ENDBRANCH   7  10
ENDBRANCH   4   7
ENDBRANCH   1   4
BRANCH   1  45
ATOM     45  C   UNL A   1      42.248  21.275  27.830  1.00  0.00    -0.052 C 
ATOM     46  H   UNL A   1      42.783  21.262  28.757  1.00  0.00     0.027 H 
ATOM     47  H   UNL A   1      42.640  21.943  27.092  1.00  0.00     0.027 H 
BRANCH  45  48
ATOM     48  C   UNL A   1      42.371  19.878  27.206  1.00  0.00    -0.036 C 
ATOM     49  H   UNL A   1      41.548  19.286  27.551  1.00  0.00     0.028 H 
ATOM     50  H   UNL A   1      43.322  19.495  27.509  1.00  0.00     0.028 H 
BRANCH  48  51
ATOM     51  C   UNL A   1      42.364  19.856  25.684  1.00  0.00     0.018 C 
ATOM     52  H   UNL A   1      42.004  20.799  25.331  1.00  0.00     0.049 H 
ATOM     53  H   UNL A   1      41.734  19.046  25.381  1.00  0.00     0.049 H 
BRANCH  51  54
ATOM     54  N   UNL A   1      43.686  19.616  25.105  1.00  0.00    -0.352 N 
ATOM     55  C   UNL A   1      44.604  20.550  24.653  1.00  0.00     0.251 C 
ATOM     56  H   UNL A   1      43.958  18.674  25.028  1.00  0.00     0.163 HD
ATOM     57  O   UNL A   1      45.486  20.244  23.869  1.00  0.00    -0.269 OA
BRANCH  55  58
ATOM     58  C   UNL A   1      44.492  21.935  25.143  1.00  0.00     0.039 A 
ATOM     59  C   UNL A   1      43.499  22.800  24.673  1.00  0.00    -0.049 A 
ATOM     60  C   UNL A   1      45.386  22.346  26.125  1.00  0.00    -0.049 A 
ATOM     61  C   UNL A   1      43.360  24.051  25.270  1.00  0.00    -0.053 A 
ATOM     62  H   UNL A   1      42.880  22.516  23.897  1.00  0.00     0.063 H 
ATOM     63  C   UNL A   1      45.142  23.501  26.821  1.00  0.00    -0.053 A 
ATOM     64  H   UNL A   1      46.227  21.785  26.328  1.00  0.00     0.063 H 
ATOM     65  C   UNL A   1      44.173  24.388  26.364  1.00  0.00    -0.014 A 
ATOM     66  H   UNL A   1      42.665  24.725  24.911  1.00  0.00     0.063 H 
ATOM     67  H   UNL A   1      45.675  23.712  27.679  1.00  0.00     0.063 H 
BRANCH  65  68
ATOM     68  C   UNL A   1      43.962  25.627  27.106  1.00  0.00     0.031 A 
ATOM     69  C   UNL A   1      44.900  26.736  26.774  1.00  0.00     0.074 A 
ATOM     70  C   UNL A   1      42.858  25.842  27.856  1.00  0.00     0.049 A 
ATOM     71  N   UNL A   1      45.738  27.331  27.557  1.00  0.00    -0.248 NA
ATOM     72  C   UNL A   1      44.988  27.173  25.371  1.00  0.00    -0.034 C 
ATOM     73  C   UNL A   1      41.683  24.971  28.013  1.00  0.00    -0.036 A 
ATOM     74  N   UNL A   1      42.494  26.954  28.552  1.00  0.00    -0.354 N 
ATOM     75  C   UNL A   1      46.332  28.339  26.799  1.00  0.00     0.074 A 
ATOM     76  C   UNL A   1      45.954  28.091  25.432  1.00  0.00    -0.034 C 
ATOM     77  H   UNL A   1      44.444  26.854  24.554  1.00  0.00     0.065 H 
ATOM     78  C   UNL A   1      40.660  25.678  28.538  1.00  0.00    -0.036 A 
ATOM     79  H   UNL A   1      41.648  23.972  27.760  1.00  0.00     0.065 H 
ATOM     80  C   UNL A   1      41.158  26.982  28.929  1.00  0.00     0.049 A 
ATOM     81  H   UNL A   1      43.125  27.679  28.769  1.00  0.00     0.167 HD
ATOM     82  C   UNL A   1      46.890  29.430  27.394  1.00  0.00     0.037 A 
ATOM     83  H   UNL A   1      46.373  28.559  24.613  1.00  0.00     0.065 H 
ATOM     84  H   UNL A   1      39.689  25.345  28.643  1.00  0.00     0.065 H 
ATOM     85  C   UNL A   1      40.494  28.012  29.504  1.00  0.00     0.037 A 
ATOM     86  C   UNL A   1      47.127  29.188  28.794  1.00  0.00     0.049 A 
ATOM     87  C   UNL A   1      41.512  28.912  30.092  1.00  0.00     0.074 A 
ATOM     88  C   UNL A   1      47.899  28.305  29.521  1.00  0.00    -0.036 A 
ATOM     89  N   UNL A   1      46.218  29.707  29.681  1.00  0.00    -0.354 N 
ATOM     90  N   UNL A   1      42.272  28.595  31.103  1.00  0.00    -0.248 NA
ATOM     91  C   UNL A   1      41.976  30.032  29.290  1.00  0.00    -0.034 C 
ATOM     92  C   UNL A   1      47.123  27.998  30.678  1.00  0.00    -0.036 A 
ATOM     93  H   UNL A   1      48.836  27.947  29.280  1.00  0.00     0.065 H 
ATOM     94  C   UNL A   1      45.949  28.751  30.623  1.00  0.00     0.049 A 
ATOM     95  H   UNL A   1      45.827  30.610  29.646  1.00  0.00     0.167 HD
ATOM     96  C   UNL A   1      43.500  29.166  30.810  1.00  0.00     0.074 A 
ATOM     97  C   UNL A   1      43.222  30.138  29.757  1.00  0.00    -0.034 C 
ATOM     98  H   UNL A   1      41.485  30.584  28.569  1.00  0.00     0.065 H 
ATOM     99  H   UNL A   1      47.383  27.334  31.425  1.00  0.00     0.065 H 
ATOM    100  C   UNL A   1      44.656  28.589  31.249  1.00  0.00     0.037 A 
ATOM    101  H   UNL A   1      43.909  30.828  29.414  1.00  0.00     0.065 H 
BRANCH  82 102
ATOM    102  C   UNL A   1      46.852  30.836  26.832  1.00  0.00     0.064 A 
ATOM    103  C   UNL A   1      48.027  31.620  26.871  1.00  0.00     0.173 A 
ATOM    104  C   UNL A   1      45.663  31.548  26.563  1.00  0.00     0.173 A 
ATOM    105  F   UNL A   1      49.216  31.057  27.128  1.00  0.00    -0.203 F 
ATOM    106  C   UNL A   1      47.994  33.012  26.754  1.00  0.00     0.198 A 
ATOM    107  C   UNL A   1      45.643  32.932  26.391  1.00  0.00     0.198 A 
ATOM    108  F   UNL A   1      44.462  30.962  26.568  1.00  0.00    -0.203 F 
ATOM    109  F   UNL A   1      49.114  33.723  26.941  1.00  0.00    -0.200 F 
ATOM    110  C   UNL A   1      46.800  33.668  26.523  1.00  0.00     0.200 A 
ATOM    111  F   UNL A   1      44.472  33.551  26.186  1.00  0.00    -0.200 F 
ATOM    112  F   UNL A   1      46.753  35.006  26.480  1.00  0.00    -0.200 F 
ENDBRANCH  82 102
BRANCH  85 113
ATOM    113  C   UNL A   1      39.079  28.411  29.342  1.00  0.00     0.064 A 
ATOM    114  C   UNL A   1      38.243  28.580  30.456  1.00  0.00     0.173 A 
ATOM    115  C   UNL A   1      38.601  28.913  28.116  1.00  0.00     0.173 A 
ATOM    116  F   UNL A   1      38.643  28.164  31.667  1.00  0.00    -0.203 F 
ATOM    117  C   UNL A   1      37.018  29.245  30.359  1.00  0.00     0.198 A 
ATOM    118  C   UNL A   1      37.374  29.572  28.018  1.00  0.00     0.198 A 
ATOM    119  F   UNL A   1      39.358  28.861  27.010  1.00  0.00    -0.203 F 
ATOM    120  F   UNL A   1      36.279  29.450  31.459  1.00  0.00    -0.200 F 
ATOM    121  C   UNL A   1      36.591  29.753  29.142  1.00  0.00     0.200 A 
ATOM    122  F   UNL A   1      36.990  30.089  26.842  1.00  0.00    -0.200 F 
ATOM    123  F   UNL A   1      35.449  30.451  29.062  1.00  0.00    -0.200 F 
ENDBRANCH  85 113
BRANCH 100 124
ATOM    124  C   UNL A   1      44.549  27.538  32.319  1.00  0.00     0.064 A 
ATOM    125  C   UNL A   1      44.394  26.163  32.070  1.00  0.00     0.173 A 
ATOM    126  C   UNL A   1      44.740  27.932  33.649  1.00  0.00     0.173 A 
ATOM    127  F   UNL A   1      44.301  25.692  30.820  1.00  0.00    -0.203 F 
ATOM    128  C   UNL A   1      44.386  25.236  33.110  1.00  0.00     0.198 A 
ATOM    129  C   UNL A   1      44.770  27.001  34.682  1.00  0.00     0.198 A 
ATOM    130  F   UNL A   1      44.945  29.226  33.942  1.00  0.00    -0.203 F 
ATOM    131  F   UNL A   1      44.221  23.931  32.847  1.00  0.00    -0.200 F 
ATOM    132  C   UNL A   1      44.583  25.655  34.415  1.00  0.00     0.200 A 
ATOM    133  F   UNL A   1      45.009  27.408  35.936  1.00  0.00    -0.200 F 
ATOM    134  F   UNL A   1      44.616  24.760  35.413  1.00  0.00    -0.200 F 
ENDBRANCH 100 124
ENDBRANCH  65  68
ENDBRANCH  55  58
ENDBRANCH  51  54
ENDBRANCH  48  51
ENDBRANCH  45  48
ENDBRANCH   1  45
TORSDOF 16
ENDMDL
MODEL 10
REMARK VINA RESULT:     -11.8      2.757      4.020
REMARK SMILES O=C(Cn1cnc(-c2ccccc2)c1-c1ccccc1)NCCCCCCNC(=O)c1ccc(-c2c3nc(c(-c4c(F)c(F)c(F)c(F)c4F)c4ccc([nH]4)c(-c4c(F)c(F)c(F)c(F)c4F)c4nc(c(-c5c(F)c(F)c(F)c(F)c5F)c5ccc2[nH]5)C=C4)C=C3)cc1
REMARK SMILES IDX 24 1 23 4 22 7 21 10 1 11 2 12 3 14 4 17 5 18 14 19 6 20
REMARK SMILES IDX 7 22 15 23 16 24 20 25 17 26 19 28 18 30 8 34 9 35 13 36
REMARK SMILES IDX 10 37 12 39 11 41 25 45 26 48 27 51 28 54 29 55 30 57 31 58
REMARK SMILES IDX 32 59 93 60 33 61 92 63 34 65 35 68 36 69 86 70 37 71 91 72
REMARK SMILES IDX 85 73 87 74 38 75 90 76 84 78 83 80 39 82 71 85 51 86 70 87
REMARK SMILES IDX 52 88 55 89 69 90 88 91 53 92 54 94 68 96 89 97 56 100
REMARK SMILES IDX 40 102 41 103 49 104 42 105 43 106 47 107 50 108 44 109
REMARK SMILES IDX 45 110 48 111 46 112 72 113 73 114 81 115 74 116 75 117
REMARK SMILES IDX 79 118 82 119 76 120 77 121 80 122 78 123 57 124 58 125
REMARK SMILES IDX 66 126 59 127 60 128 64 129 67 130 61 131 62 132 65 133
REMARK SMILES IDX 63 134
REMARK H PARENT 24 2 24 3 23 5 23 6 22 8 22 9 21 13 3 15 3 16 5 21 16 27 20 29
REMARK H PARENT 17 31 19 32 18 33 9 38 13 40 10 42 12 43 11 44 25 46 25 47
REMARK H PARENT 26 49 26 50 27 52 27 53 28 56 32 62 93 64 33 66 92 67 91 77
REMARK H PARENT 85 79 87 81 90 83 84 84 52 93 55 95 88 98 53 99 89 101
REMARK Flexibility Score: inf
ROOT
ATOM      1  C   UNL A   1      36.037  20.656  25.003  1.00  0.00    -0.052 C 
ATOM      2  H   UNL A   1      36.013  19.878  24.267  1.00  0.00     0.027 H 
ATOM      3  H   UNL A   1      36.262  20.325  25.995  1.00  0.00     0.027 H 
ENDROOT
BRANCH   1   4
ATOM      4  C   UNL A   1      34.631  21.259  25.086  1.00  0.00    -0.036 C 
ATOM      5  H   UNL A   1      34.129  20.819  25.924  1.00  0.00     0.028 H 
ATOM      6  H   UNL A   1      34.763  22.317  25.182  1.00  0.00     0.028 H 
BRANCH   4   7
ATOM      7  C   UNL A   1      33.766  21.044  23.850  1.00  0.00     0.017 C 
ATOM      8  H   UNL A   1      34.390  20.702  23.052  1.00  0.00     0.049 H 
ATOM      9  H   UNL A   1      33.016  20.325  24.107  1.00  0.00     0.049 H 
BRANCH   7  10
ATOM     10  N   UNL A   1      33.082  22.250  23.419  1.00  0.00    -0.355 N 
ATOM     11  O   UNL A   1      34.916  23.191  22.423  1.00  0.00    -0.273 OA
ATOM     12  C   UNL A   1      33.704  23.204  22.638  1.00  0.00     0.239 C 
ATOM     13  H   UNL A   1      32.148  22.393  23.693  1.00  0.00     0.163 HD
BRANCH  12  14
ATOM     14  C   UNL A   1      32.833  24.330  22.122  1.00  0.00     0.103 C 
ATOM     15  H   UNL A   1      31.812  24.065  22.297  1.00  0.00     0.060 H 
ATOM     16  H   UNL A   1      33.073  24.439  21.085  1.00  0.00     0.060 H 
BRANCH  14  17
ATOM     17  N   UNL A   1      33.074  25.628  22.732  1.00  0.00    -0.321 N 
ATOM     18  C   UNL A   1      33.459  26.737  22.024  1.00  0.00     0.096 A 
ATOM     19  C   UNL A   1      32.855  26.018  24.039  1.00  0.00     0.076 A 
ATOM     20  N   UNL A   1      33.514  27.806  22.781  1.00  0.00    -0.236 NA
ATOM     21  H   UNL A   1      33.679  26.731  21.015  1.00  0.00     0.104 H 
ATOM     22  C   UNL A   1      33.147  27.378  24.031  1.00  0.00     0.096 A 
BRANCH  19  23
ATOM     23  C   UNL A   1      32.366  25.176  25.129  1.00  0.00     0.000 A 
ATOM     24  C   UNL A   1      33.269  24.578  26.016  1.00  0.00    -0.053 A 
ATOM     25  C   UNL A   1      31.009  24.860  25.237  1.00  0.00    -0.053 A 
ATOM     26  C   UNL A   1      32.816  23.704  27.006  1.00  0.00    -0.062 A 
ATOM     27  H   UNL A   1      34.278  24.786  25.937  1.00  0.00     0.063 H 
ATOM     28  C   UNL A   1      30.550  24.008  26.242  1.00  0.00    -0.062 A 
ATOM     29  H   UNL A   1      30.337  25.261  24.564  1.00  0.00     0.063 H 
ATOM     30  C   UNL A   1      31.456  23.428  27.126  1.00  0.00    -0.062 A 
ATOM     31  H   UNL A   1      33.491  23.260  27.649  1.00  0.00     0.062 H 
ATOM     32  H   UNL A   1      29.542  23.808  26.331  1.00  0.00     0.062 H 
ATOM     33  H   UNL A   1      31.119  22.795  27.869  1.00  0.00     0.062 H 
ENDBRANCH  19  23
BRANCH  22  34
ATOM     34  C   UNL A   1      33.043  28.259  25.178  1.00  0.00     0.002 A 
ATOM     35  C   UNL A   1      34.035  28.241  26.164  1.00  0.00    -0.053 A 
ATOM     36  C   UNL A   1      31.981  29.165  25.285  1.00  0.00    -0.053 A 
ATOM     37  C   UNL A   1      33.982  29.146  27.226  1.00  0.00    -0.062 A 
ATOM     38  H   UNL A   1      34.808  27.560  26.105  1.00  0.00     0.063 H 
ATOM     39  C   UNL A   1      31.926  30.064  26.351  1.00  0.00    -0.062 A 
ATOM     40  H   UNL A   1      31.234  29.168  24.573  1.00  0.00     0.063 H 
ATOM     41  C   UNL A   1      32.931  30.058  27.317  1.00  0.00    -0.062 A 
ATOM     42  H   UNL A   1      34.722  29.139  27.946  1.00  0.00     0.062 H 
ATOM     43  H   UNL A   1      31.143  30.731  26.424  1.00  0.00     0.062 H 
ATOM     44  H   UNL A   1      32.897  30.731  28.099  1.00  0.00     0.062 H 
ENDBRANCH  22  34
ENDBRANCH  14  17
ENDBRANCH  12  14
ENDBRANCH   7  10
ENDBRANCH   4   7
ENDBRANCH   1   4
BRANCH   1  45
ATOM     45  C   UNL A   1      37.176  21.615  24.629  1.00  0.00    -0.052 C 
ATOM     46  H   UNL A   1      37.232  21.649  23.560  1.00  0.00     0.027 H 
ATOM     47  H   UNL A   1      38.044  21.218  25.114  1.00  0.00     0.027 H 
BRANCH  45  48
ATOM     48  C   UNL A   1      37.066  23.061  25.131  1.00  0.00    -0.036 C 
ATOM     49  H   UNL A   1      36.034  23.268  25.327  1.00  0.00     0.028 H 
ATOM     50  H   UNL A   1      37.482  23.679  24.364  1.00  0.00     0.028 H 
BRANCH  48  51
ATOM     51  C   UNL A   1      37.857  23.358  26.398  1.00  0.00     0.018 C 
ATOM     52  H   UNL A   1      37.221  23.196  27.243  1.00  0.00     0.049 H 
ATOM     53  H   UNL A   1      38.190  24.373  26.334  1.00  0.00     0.049 H 
BRANCH  51  54
ATOM     54  N   UNL A   1      39.047  22.520  26.544  1.00  0.00    -0.352 N 
ATOM     55  C   UNL A   1      40.371  22.918  26.617  1.00  0.00     0.251 C 
ATOM     56  H   UNL A   1      38.886  21.550  26.598  1.00  0.00     0.163 HD
ATOM     57  O   UNL A   1      41.281  22.147  26.367  1.00  0.00    -0.269 OA
BRANCH  55  58
ATOM     58  C   UNL A   1      40.662  24.310  27.007  1.00  0.00     0.039 A 
ATOM     59  C   UNL A   1      40.307  25.388  26.191  1.00  0.00    -0.049 A 
ATOM     60  C   UNL A   1      41.268  24.521  28.240  1.00  0.00    -0.049 A 
ATOM     61  C   UNL A   1      40.487  26.682  26.673  1.00  0.00    -0.053 A 
ATOM     62  H   UNL A   1      39.919  25.227  25.248  1.00  0.00     0.063 H 
ATOM     63  C   UNL A   1      41.287  25.780  28.778  1.00  0.00    -0.053 A 
ATOM     64  H   UNL A   1      41.701  23.733  28.747  1.00  0.00     0.063 H 
ATOM     65  C   UNL A   1      40.957  26.873  27.982  1.00  0.00    -0.014 A 
ATOM     66  H   UNL A   1      40.275  27.496  26.074  1.00  0.00     0.063 H 
ATOM     67  H   UNL A   1      41.546  25.918  29.768  1.00  0.00     0.063 H 
BRANCH  65  68
ATOM     68  C   UNL A   1      41.022  28.206  28.574  1.00  0.00     0.031 A 
ATOM     69  C   UNL A   1      42.118  29.077  28.061  1.00  0.00     0.074 A 
ATOM     70  C   UNL A   1      40.029  28.705  29.343  1.00  0.00     0.049 A 
ATOM     71  N   UNL A   1      43.101  29.592  28.723  1.00  0.00    -0.248 NA
ATOM     72  C   UNL A   1      42.184  29.327  26.612  1.00  0.00    -0.034 C 
ATOM     73  C   UNL A   1      38.733  28.091  29.663  1.00  0.00    -0.036 A 
ATOM     74  N   UNL A   1      39.919  29.938  29.911  1.00  0.00    -0.354 N 
ATOM     75  C   UNL A   1      43.810  30.380  27.817  1.00  0.00     0.074 A 
ATOM     76  C   UNL A   1      43.300  30.052  26.512  1.00  0.00    -0.034 C 
ATOM     77  H   UNL A   1      41.536  29.024  25.868  1.00  0.00     0.065 H 
ATOM     78  C   UNL A   1      37.890  29.030  30.145  1.00  0.00    -0.036 A 
ATOM     79  H   UNL A   1      38.503  27.093  29.539  1.00  0.00     0.065 H 
ATOM     80  C   UNL A   1      38.639  30.255  30.345  1.00  0.00     0.049 A 
ATOM     81  H   UNL A   1      40.682  30.553  30.005  1.00  0.00     0.167 HD
ATOM     82  C   UNL A   1      44.593  31.409  28.244  1.00  0.00     0.037 A 
ATOM     83  H   UNL A   1      43.737  30.338  25.622  1.00  0.00     0.065 H 
ATOM     84  H   UNL A   1      36.886  28.897  30.337  1.00  0.00     0.065 H 
ATOM     85  C   UNL A   1      38.211  31.449  30.819  1.00  0.00     0.037 A 
ATOM     86  C   UNL A   1      44.881  31.289  29.651  1.00  0.00     0.049 A 
ATOM     87  C   UNL A   1      39.411  32.206  31.241  1.00  0.00     0.074 A 
ATOM     88  C   UNL A   1      45.533  30.367  30.444  1.00  0.00    -0.036 A 
ATOM     89  N   UNL A   1      44.143  32.065  30.508  1.00  0.00    -0.354 N 
ATOM     90  N   UNL A   1      40.171  31.871  32.246  1.00  0.00    -0.248 NA
ATOM     91  C   UNL A   1      40.010  33.122  30.283  1.00  0.00    -0.034 C 
ATOM     92  C   UNL A   1      44.797  30.342  31.666  1.00  0.00    -0.036 A 
ATOM     93  H   UNL A   1      46.372  29.816  30.204  1.00  0.00     0.065 H 
ATOM     94  C   UNL A   1      43.775  31.288  31.573  1.00  0.00     0.049 A 
ATOM     95  H   UNL A   1      43.917  33.014  30.379  1.00  0.00     0.167 HD
ATOM     96  C   UNL A   1      41.457  32.168  31.825  1.00  0.00     0.074 A 
ATOM     97  C   UNL A   1      41.284  33.048  30.673  1.00  0.00    -0.034 C 
ATOM     98  H   UNL A   1      39.575  33.669  29.523  1.00  0.00     0.065 H 
ATOM     99  H   UNL A   1      44.986  29.731  32.476  1.00  0.00     0.065 H 
ATOM    100  C   UNL A   1      42.521  31.441  32.276  1.00  0.00     0.037 A 
ATOM    101  H   UNL A   1      42.057  33.555  30.214  1.00  0.00     0.065 H 
BRANCH  82 102
ATOM    102  C   UNL A   1      44.767  32.725  27.513  1.00  0.00     0.064 A 
ATOM    103  C   UNL A   1      45.956  32.949  26.783  1.00  0.00     0.173 A 
ATOM    104  C   UNL A   1      43.986  33.874  27.759  1.00  0.00     0.173 A 
ATOM    105  F   UNL A   1      46.785  31.935  26.497  1.00  0.00    -0.203 F 
ATOM    106  C   UNL A   1      46.374  34.234  26.423  1.00  0.00     0.198 A 
ATOM    107  C   UNL A   1      44.380  35.148  27.348  1.00  0.00     0.198 A 
ATOM    108  F   UNL A   1      42.874  33.838  28.500  1.00  0.00    -0.203 F 
ATOM    109  F   UNL A   1      47.576  34.409  25.859  1.00  0.00    -0.200 F 
ATOM    110  C   UNL A   1      45.589  35.333  26.715  1.00  0.00     0.200 A 
ATOM    111  F   UNL A   1      43.614  36.204  27.657  1.00  0.00    -0.200 F 
ATOM    112  F   UNL A   1      46.018  36.571  26.435  1.00  0.00    -0.200 F 
ENDBRANCH  82 102
BRANCH  85 113
ATOM    113  C   UNL A   1      36.881  32.082  30.676  1.00  0.00     0.064 A 
ATOM    114  C   UNL A   1      35.970  32.097  31.743  1.00  0.00     0.173 A 
ATOM    115  C   UNL A   1      36.593  32.932  29.591  1.00  0.00     0.173 A 
ATOM    116  F   UNL A   1      36.193  31.344  32.830  1.00  0.00    -0.203 F 
ATOM    117  C   UNL A   1      34.856  32.941  31.743  1.00  0.00     0.198 A 
ATOM    118  C   UNL A   1      35.477  33.770  29.588  1.00  0.00     0.198 A 
ATOM    119  F   UNL A   1      37.441  33.038  28.557  1.00  0.00    -0.203 F 
ATOM    120  F   UNL A   1      34.046  32.980  32.810  1.00  0.00    -0.200 F 
ATOM    121  C   UNL A   1      34.618  33.787  30.671  1.00  0.00     0.200 A 
ATOM    122  F   UNL A   1      35.279  34.609  28.561  1.00  0.00    -0.200 F 
ATOM    123  F   UNL A   1      33.589  34.646  30.700  1.00  0.00    -0.200 F 
ENDBRANCH  85 113
BRANCH 100 124
ATOM    124  C   UNL A   1      42.303  30.556  33.473  1.00  0.00     0.064 A 
ATOM    125  C   UNL A   1      42.392  30.988  34.807  1.00  0.00     0.173 A 
ATOM    126  C   UNL A   1      41.858  29.247  33.249  1.00  0.00     0.173 A 
ATOM    127  F   UNL A   1      42.716  32.252  35.106  1.00  0.00    -0.203 F 
ATOM    128  C   UNL A   1      42.094  30.131  35.866  1.00  0.00     0.198 A 
ATOM    129  C   UNL A   1      41.524  28.406  34.306  1.00  0.00     0.198 A 
ATOM    130  F   UNL A   1      41.704  28.796  31.994  1.00  0.00    -0.203 F 
ATOM    131  F   UNL A   1      42.202  30.563  37.131  1.00  0.00    -0.200 F 
ATOM    132  C   UNL A   1      41.652  28.844  35.614  1.00  0.00     0.200 A 
ATOM    133  F   UNL A   1      41.052  27.178  34.054  1.00  0.00    -0.200 F 
ATOM    134  F   UNL A   1      41.326  28.032  36.630  1.00  0.00    -0.200 F 
ENDBRANCH 100 124
ENDBRANCH  65  68
ENDBRANCH  55  58
ENDBRANCH  51  54
ENDBRANCH  48  51
ENDBRANCH  45  48
ENDBRANCH   1  45
TORSDOF 16
ENDMDL
