MODEL 1
REMARK VINA RESULT:     -12.3      0.000      0.000
REMARK SMILES CC(C)(C)c1cc(Nc2ccccc2C(=O)NCCCCCCNC(=O)c2ccc(-c3c4nc(c(-c5c(F)c(F)c(F)c(F)c5F)c5ccc([nH]5)c(-c5c(F)c(F)c(F)c(F)c5F)c5nc(c(-c6c(F)c(F)c(F)c(F)c6F)c6ccc3[nH]6)C=C5)C=C4)cc2)cc2c1OCC2(C)C
REMARK SMILES IDX 19 1 18 4 17 7 15 8 16 9 14 11 9 12 10 13 11 14 13 16 12 17
REMARK SMILES IDX 8 21 7 23 5 24 6 25 92 26 91 28 93 29 90 30 95 31 94 32 2 36
REMARK SMILES IDX 1 37 3 41 4 45 96 49 97 53 20 57 21 60 22 63 23 66 24 69
REMARK SMILES IDX 25 70 26 72 27 73 28 74 89 75 29 76 88 78 30 80 31 83 32 84
REMARK SMILES IDX 82 85 33 86 87 87 81 88 83 89 34 90 86 91 80 93 79 95 35 97
REMARK SMILES IDX 67 100 47 101 66 102 48 103 51 104 65 105 84 106 49 107
REMARK SMILES IDX 50 109 64 111 85 112 52 115 36 117 37 118 45 119 38 120
REMARK SMILES IDX 39 121 43 122 46 123 40 124 41 125 44 126 42 127 68 128
REMARK SMILES IDX 69 129 77 130 70 131 71 132 75 133 78 134 72 135 73 136
REMARK SMILES IDX 76 137 74 138 53 139 54 140 62 141 55 142 56 143 60 144
REMARK SMILES IDX 63 145 57 146 58 147 61 148 59 149
REMARK H PARENT 19 2 19 3 18 5 18 6 17 10 10 15 11 18 13 19 12 20 8 22 6 27
REMARK H PARENT 90 33 94 34 94 35 1 38 1 39 1 40 3 42 3 43 3 44 4 46 4 47 4 48
REMARK H PARENT 96 50 96 51 96 52 97 54 97 55 97 56 20 58 20 59 21 61 21 62
REMARK H PARENT 22 64 22 65 23 67 23 68 24 71 28 77 89 79 29 81 88 82 87 92
REMARK H PARENT 81 94 83 96 86 98 80 99 48 108 51 110 84 113 49 114 85 116
REMARK Flexibility Score: inf
ROOT
ATOM      1  C   UNL A   1      34.621  22.969  27.260  1.00  0.00    -0.036 C 
ATOM      2  H   UNL A   1      35.451  22.366  26.954  1.00  0.00     0.028 H 
ATOM      3  H   UNL A   1      34.721  23.519  28.172  1.00  0.00     0.028 H 
ENDROOT
BRANCH   1   4
ATOM      4  C   UNL A   1      33.469  22.013  27.553  1.00  0.00     0.018 C 
ATOM      5  H   UNL A   1      33.409  21.324  26.737  1.00  0.00     0.049 H 
ATOM      6  H   UNL A   1      33.709  21.579  28.501  1.00  0.00     0.049 H 
BRANCH   4   7
ATOM      7  N   UNL A   1      32.163  22.584  27.732  1.00  0.00    -0.352 N 
ATOM      8  C   UNL A   1      31.187  22.889  26.811  1.00  0.00     0.253 C 
ATOM      9  O   UNL A   1      30.132  23.333  27.285  1.00  0.00    -0.269 OA
ATOM     10  H   UNL A   1      31.928  22.790  28.666  1.00  0.00     0.163 HD
BRANCH   8  11
ATOM     11  C   UNL A   1      31.284  22.795  25.308  1.00  0.00     0.063 A 
ATOM     12  C   UNL A   1      30.800  23.667  24.308  1.00  0.00     0.051 A 
ATOM     13  C   UNL A   1      31.161  23.422  22.956  1.00  0.00    -0.038 A 
ATOM     14  C   UNL A   1      31.901  22.309  22.568  1.00  0.00    -0.060 A 
ATOM     15  H   UNL A   1      30.863  24.095  22.233  1.00  0.00     0.064 H 
ATOM     16  C   UNL A   1      32.042  21.673  24.881  1.00  0.00    -0.047 A 
ATOM     17  C   UNL A   1      32.328  21.420  23.535  1.00  0.00    -0.061 A 
ATOM     18  H   UNL A   1      32.126  22.151  21.573  1.00  0.00     0.062 H 
ATOM     19  H   UNL A   1      32.397  21.015  25.594  1.00  0.00     0.063 H 
ATOM     20  H   UNL A   1      32.855  20.574  23.266  1.00  0.00     0.062 H 
BRANCH  12  21
ATOM     21  N   UNL A   1      29.888  24.727  24.508  1.00  0.00    -0.355 N 
ATOM     22  H   UNL A   1      28.931  24.498  24.541  1.00  0.00     0.167 HD
BRANCH  21  23
ATOM     23  C   UNL A   1      30.238  26.094  24.665  1.00  0.00     0.039 A 
ATOM     24  C   UNL A   1      29.959  28.455  23.953  1.00  0.00     0.002 A 
ATOM     25  C   UNL A   1      29.529  27.101  23.974  1.00  0.00    -0.031 A 
ATOM     26  C   UNL A   1      31.091  28.751  24.711  1.00  0.00     0.127 A 
ATOM     27  H   UNL A   1      28.668  26.844  23.465  1.00  0.00     0.065 H 
ATOM     28  C   UNL A   1      31.772  27.792  25.429  1.00  0.00     0.006 A 
ATOM     29  O   UNL A   1      31.685  29.982  24.775  1.00  0.00    -0.492 OA
ATOM     30  C   UNL A   1      31.366  26.471  25.405  1.00  0.00    -0.031 A 
ATOM     31  C   UNL A   1      32.941  28.384  26.133  1.00  0.00     0.028 C 
ATOM     32  C   UNL A   1      32.808  29.847  25.671  1.00  0.00     0.097 C 
ATOM     33  H   UNL A   1      31.895  25.761  25.933  1.00  0.00     0.065 H 
ATOM     34  H   UNL A   1      32.659  30.476  26.524  1.00  0.00     0.072 H 
ATOM     35  H   UNL A   1      33.702  30.136  25.159  1.00  0.00     0.072 H 
BRANCH  24  36
ATOM     36  C   UNL A   1      29.352  29.499  23.007  1.00  0.00    -0.009 C 
BRANCH  36  37
ATOM     37  C   UNL A   1      30.187  29.766  21.733  1.00  0.00    -0.056 C 
ATOM     38  H   UNL A   1      30.213  28.881  21.133  1.00  0.00     0.024 H 
ATOM     39  H   UNL A   1      31.184  30.037  22.012  1.00  0.00     0.024 H 
ATOM     40  H   UNL A   1      29.742  30.563  21.176  1.00  0.00     0.024 H 
ENDBRANCH  36  37
BRANCH  36  41
ATOM     41  C   UNL A   1      29.141  30.874  23.677  1.00  0.00    -0.056 C 
ATOM     42  H   UNL A   1      29.273  30.780  24.735  1.00  0.00     0.024 H 
ATOM     43  H   UNL A   1      28.151  31.224  23.471  1.00  0.00     0.024 H 
ATOM     44  H   UNL A   1      29.853  31.573  23.290  1.00  0.00     0.024 H 
ENDBRANCH  36  41
BRANCH  36  45
ATOM     45  C   UNL A   1      27.996  28.914  22.571  1.00  0.00    -0.056 C 
ATOM     46  H   UNL A   1      28.160  28.079  21.923  1.00  0.00     0.024 H 
ATOM     47  H   UNL A   1      27.435  29.663  22.052  1.00  0.00     0.024 H 
ATOM     48  H   UNL A   1      27.451  28.595  23.435  1.00  0.00     0.024 H 
ENDBRANCH  36  45
ENDBRANCH  24  36
BRANCH  31  49
ATOM     49  C   UNL A   1      32.771  28.253  27.648  1.00  0.00    -0.052 C 
ATOM     50  H   UNL A   1      33.147  27.303  27.969  1.00  0.00     0.024 H 
ATOM     51  H   UNL A   1      31.734  28.331  27.899  1.00  0.00     0.024 H 
ATOM     52  H   UNL A   1      33.316  29.035  28.136  1.00  0.00     0.024 H 
ENDBRANCH  31  49
BRANCH  31  53
ATOM     53  C   UNL A   1      34.271  27.777  25.679  1.00  0.00    -0.052 C 
ATOM     54  H   UNL A   1      34.796  27.390  26.528  1.00  0.00     0.024 H 
ATOM     55  H   UNL A   1      34.865  28.531  25.207  1.00  0.00     0.024 H 
ATOM     56  H   UNL A   1      34.084  26.984  24.984  1.00  0.00     0.024 H 
ENDBRANCH  31  53
ENDBRANCH  21  23
ENDBRANCH  12  21
ENDBRANCH   8  11
ENDBRANCH   4   7
ENDBRANCH   1   4
BRANCH   1  57
ATOM     57  C   UNL A   1      34.457  24.064  26.204  1.00  0.00    -0.052 C 
ATOM     58  H   UNL A   1      34.931  24.942  26.593  1.00  0.00     0.027 H 
ATOM     59  H   UNL A   1      33.399  24.106  26.052  1.00  0.00     0.027 H 
BRANCH  57  60
ATOM     60  C   UNL A   1      35.011  23.850  24.791  1.00  0.00    -0.052 C 
ATOM     61  H   UNL A   1      35.786  24.572  24.645  1.00  0.00     0.027 H 
ATOM     62  H   UNL A   1      34.153  23.942  24.159  1.00  0.00     0.027 H 
BRANCH  60  63
ATOM     63  C   UNL A   1      35.594  22.482  24.432  1.00  0.00    -0.036 C 
ATOM     64  H   UNL A   1      35.079  22.136  23.560  1.00  0.00     0.028 H 
ATOM     65  H   UNL A   1      35.460  21.894  25.316  1.00  0.00     0.028 H 
BRANCH  63  66
ATOM     66  C   UNL A   1      37.094  22.392  24.139  1.00  0.00     0.018 C 
ATOM     67  H   UNL A   1      37.556  23.274  24.530  1.00  0.00     0.049 H 
ATOM     68  H   UNL A   1      37.174  22.286  23.077  1.00  0.00     0.049 H 
BRANCH  66  69
ATOM     69  N   UNL A   1      37.786  21.246  24.697  1.00  0.00    -0.352 N 
ATOM     70  C   UNL A   1      38.710  21.186  25.728  1.00  0.00     0.251 C 
ATOM     71  H   UNL A   1      37.567  20.381  24.282  1.00  0.00     0.163 HD
ATOM     72  O   UNL A   1      39.139  20.104  26.099  1.00  0.00    -0.269 OA
BRANCH  70  73
ATOM     73  C   UNL A   1      39.245  22.427  26.352  1.00  0.00     0.039 A 
ATOM     74  C   UNL A   1      38.618  23.661  26.207  1.00  0.00    -0.049 A 
ATOM     75  C   UNL A   1      40.409  22.349  27.121  1.00  0.00    -0.049 A 
ATOM     76  C   UNL A   1      39.257  24.831  26.644  1.00  0.00    -0.053 A 
ATOM     77  H   UNL A   1      37.682  23.716  25.776  1.00  0.00     0.063 H 
ATOM     78  C   UNL A   1      41.007  23.515  27.627  1.00  0.00    -0.053 A 
ATOM     79  H   UNL A   1      40.832  21.428  27.317  1.00  0.00     0.063 H 
ATOM     80  C   UNL A   1      40.485  24.785  27.329  1.00  0.00    -0.014 A 
ATOM     81  H   UNL A   1      38.817  25.746  26.460  1.00  0.00     0.063 H 
ATOM     82  H   UNL A   1      41.843  23.438  28.227  1.00  0.00     0.063 H 
BRANCH  80  83
ATOM     83  C   UNL A   1      41.254  26.034  27.666  1.00  0.00     0.031 A 
ATOM     84  C   UNL A   1      40.627  27.114  28.528  1.00  0.00     0.074 A 
ATOM     85  C   UNL A   1      42.524  26.222  27.247  1.00  0.00     0.049 A 
ATOM     86  N   UNL A   1      41.069  28.318  28.815  1.00  0.00    -0.248 NA
ATOM     87  C   UNL A   1      39.327  26.804  29.143  1.00  0.00    -0.034 C 
ATOM     88  C   UNL A   1      43.306  25.274  26.458  1.00  0.00    -0.036 A 
ATOM     89  N   UNL A   1      43.388  27.279  27.441  1.00  0.00    -0.354 N 
ATOM     90  C   UNL A   1      40.087  28.914  29.600  1.00  0.00     0.074 A 
ATOM     91  C   UNL A   1      39.013  27.952  29.725  1.00  0.00    -0.034 C 
ATOM     92  H   UNL A   1      38.796  25.918  29.125  1.00  0.00     0.065 H 
ATOM     93  C   UNL A   1      44.544  25.762  26.280  1.00  0.00    -0.036 A 
ATOM     94  H   UNL A   1      42.962  24.371  26.094  1.00  0.00     0.065 H 
ATOM     95  C   UNL A   1      44.622  27.100  26.863  1.00  0.00     0.049 A 
ATOM     96  H   UNL A   1      43.144  28.088  27.946  1.00  0.00     0.167 HD
ATOM     97  C   UNL A   1      40.077  30.142  30.179  1.00  0.00     0.037 A 
ATOM     98  H   UNL A   1      38.120  28.136  30.206  1.00  0.00     0.065 H 
ATOM     99  H   UNL A   1      45.317  25.270  25.807  1.00  0.00     0.065 H 
ATOM    100  C   UNL A   1      45.691  27.919  26.774  1.00  0.00     0.037 A 
ATOM    101  C   UNL A   1      41.158  31.095  30.113  1.00  0.00     0.049 A 
ATOM    102  C   UNL A   1      45.631  29.305  27.359  1.00  0.00     0.074 A 
ATOM    103  C   UNL A   1      41.228  32.356  30.682  1.00  0.00    -0.036 A 
ATOM    104  N   UNL A   1      42.361  30.888  29.457  1.00  0.00    -0.354 N 
ATOM    105  N   UNL A   1      44.676  29.871  28.053  1.00  0.00    -0.248 NA
ATOM    106  C   UNL A   1      46.797  30.174  27.130  1.00  0.00    -0.034 C 
ATOM    107  C   UNL A   1      42.453  32.931  30.332  1.00  0.00    -0.036 A 
ATOM    108  H   UNL A   1      40.499  32.797  31.264  1.00  0.00     0.065 H 
ATOM    109  C   UNL A   1      43.170  32.007  29.592  1.00  0.00     0.049 A 
ATOM    110  H   UNL A   1      42.604  30.069  28.967  1.00  0.00     0.167 HD
ATOM    111  C   UNL A   1      45.129  31.149  28.356  1.00  0.00     0.074 A 
ATOM    112  C   UNL A   1      46.454  31.272  27.789  1.00  0.00    -0.034 C 
ATOM    113  H   UNL A   1      47.658  29.979  26.594  1.00  0.00     0.065 H 
ATOM    114  H   UNL A   1      42.770  33.881  30.584  1.00  0.00     0.065 H 
ATOM    115  C   UNL A   1      44.493  32.132  29.039  1.00  0.00     0.037 A 
ATOM    116  H   UNL A   1      47.055  32.106  27.886  1.00  0.00     0.065 H 
BRANCH  97 117
ATOM    117  C   UNL A   1      38.849  30.551  30.944  1.00  0.00     0.064 A 
ATOM    118  C   UNL A   1      38.768  30.414  32.338  1.00  0.00     0.173 A 
ATOM    119  C   UNL A   1      37.774  31.169  30.284  1.00  0.00     0.173 A 
ATOM    120  F   UNL A   1      39.763  29.825  33.017  1.00  0.00    -0.203 F 
ATOM    121  C   UNL A   1      37.650  30.861  33.038  1.00  0.00     0.198 A 
ATOM    122  C   UNL A   1      36.672  31.643  30.991  1.00  0.00     0.198 A 
ATOM    123  F   UNL A   1      37.805  31.339  28.953  1.00  0.00    -0.203 F 
ATOM    124  F   UNL A   1      37.578  30.685  34.365  1.00  0.00    -0.200 F 
ATOM    125  C   UNL A   1      36.608  31.483  32.367  1.00  0.00     0.200 A 
ATOM    126  F   UNL A   1      35.676  32.262  30.342  1.00  0.00    -0.200 F 
ATOM    127  F   UNL A   1      35.543  31.930  33.045  1.00  0.00    -0.200 F 
ENDBRANCH  97 117
BRANCH 100 128
ATOM    128  C   UNL A   1      46.923  27.451  26.083  1.00  0.00     0.064 A 
ATOM    129  C   UNL A   1      47.958  26.834  26.800  1.00  0.00     0.173 A 
ATOM    130  C   UNL A   1      47.089  27.601  24.698  1.00  0.00     0.173 A 
ATOM    131  F   UNL A   1      47.863  26.699  28.130  1.00  0.00    -0.203 F 
ATOM    132  C   UNL A   1      49.110  26.386  26.157  1.00  0.00     0.198 A 
ATOM    133  C   UNL A   1      48.226  27.122  24.051  1.00  0.00     0.198 A 
ATOM    134  F   UNL A   1      46.133  28.194  23.967  1.00  0.00    -0.203 F 
ATOM    135  F   UNL A   1      50.101  25.832  26.870  1.00  0.00    -0.200 F 
ATOM    136  C   UNL A   1      49.238  26.519  24.782  1.00  0.00     0.200 A 
ATOM    137  F   UNL A   1      48.339  27.241  22.722  1.00  0.00    -0.200 F 
ATOM    138  F   UNL A   1      50.339  26.070  24.162  1.00  0.00    -0.200 F 
ENDBRANCH 100 128
BRANCH 115 139
ATOM    139  C   UNL A   1      45.222  33.430  29.247  1.00  0.00     0.064 A 
ATOM    140  C   UNL A   1      45.071  34.507  28.362  1.00  0.00     0.173 A 
ATOM    141  C   UNL A   1      46.026  33.622  30.381  1.00  0.00     0.173 A 
ATOM    142  F   UNL A   1      44.325  34.373  27.256  1.00  0.00    -0.203 F 
ATOM    143  C   UNL A   1      45.710  35.723  28.596  1.00  0.00     0.198 A 
ATOM    144  C   UNL A   1      46.641  34.848  30.628  1.00  0.00     0.198 A 
ATOM    145  F   UNL A   1      46.199  32.627  31.265  1.00  0.00    -0.203 F 
ATOM    146  F   UNL A   1      45.580  36.727  27.718  1.00  0.00    -0.200 F 
ATOM    147  C   UNL A   1      46.486  35.895  29.733  1.00  0.00     0.200 A 
ATOM    148  F   UNL A   1      47.377  35.017  31.735  1.00  0.00    -0.200 F 
ATOM    149  F   UNL A   1      47.087  37.071  29.965  1.00  0.00    -0.200 F 
ENDBRANCH 115 139
ENDBRANCH  80  83
ENDBRANCH  70  73
ENDBRANCH  66  69
ENDBRANCH  63  66
ENDBRANCH  60  63
ENDBRANCH  57  60
ENDBRANCH   1  57
TORSDOF 21
ENDMDL
MODEL 2
REMARK VINA RESULT:     -12.2      5.263      8.938
REMARK SMILES CC(C)(C)c1cc(Nc2ccccc2C(=O)NCCCCCCNC(=O)c2ccc(-c3c4nc(c(-c5c(F)c(F)c(F)c(F)c5F)c5ccc([nH]5)c(-c5c(F)c(F)c(F)c(F)c5F)c5nc(c(-c6c(F)c(F)c(F)c(F)c6F)c6ccc3[nH]6)C=C5)C=C4)cc2)cc2c1OCC2(C)C
REMARK SMILES IDX 19 1 18 4 17 7 15 8 16 9 14 11 9 12 10 13 11 14 13 16 12 17
REMARK SMILES IDX 8 21 7 23 5 24 6 25 92 26 91 28 93 29 90 30 95 31 94 32 2 36
REMARK SMILES IDX 1 37 3 41 4 45 96 49 97 53 20 57 21 60 22 63 23 66 24 69
REMARK SMILES IDX 25 70 26 72 27 73 28 74 89 75 29 76 88 78 30 80 31 83 32 84
REMARK SMILES IDX 82 85 33 86 87 87 81 88 83 89 34 90 86 91 80 93 79 95 35 97
REMARK SMILES IDX 67 100 47 101 66 102 48 103 51 104 65 105 84 106 49 107
REMARK SMILES IDX 50 109 64 111 85 112 52 115 36 117 37 118 45 119 38 120
REMARK SMILES IDX 39 121 43 122 46 123 40 124 41 125 44 126 42 127 68 128
REMARK SMILES IDX 69 129 77 130 70 131 71 132 75 133 78 134 72 135 73 136
REMARK SMILES IDX 76 137 74 138 53 139 54 140 62 141 55 142 56 143 60 144
REMARK SMILES IDX 63 145 57 146 58 147 61 148 59 149
REMARK H PARENT 19 2 19 3 18 5 18 6 17 10 10 15 11 18 13 19 12 20 8 22 6 27
REMARK H PARENT 90 33 94 34 94 35 1 38 1 39 1 40 3 42 3 43 3 44 4 46 4 47 4 48
REMARK H PARENT 96 50 96 51 96 52 97 54 97 55 97 56 20 58 20 59 21 61 21 62
REMARK H PARENT 22 64 22 65 23 67 23 68 24 71 28 77 89 79 29 81 88 82 87 92
REMARK H PARENT 81 94 83 96 86 98 80 99 48 108 51 110 84 113 49 114 85 116
REMARK Flexibility Score: inf
ROOT
ATOM      1  C   UNL A   1      46.400  23.398  25.107  1.00  0.00    -0.036 C 
ATOM      2  H   UNL A   1      47.122  23.492  25.892  1.00  0.00     0.028 H 
ATOM      3  H   UNL A   1      46.769  23.293  24.108  1.00  0.00     0.028 H 
ENDROOT
BRANCH   1   4
ATOM      4  C   UNL A   1      45.631  24.714  25.059  1.00  0.00     0.018 C 
ATOM      5  H   UNL A   1      45.290  24.850  24.054  1.00  0.00     0.049 H 
ATOM      6  H   UNL A   1      44.858  24.605  25.792  1.00  0.00     0.049 H 
BRANCH   4   7
ATOM      7  N   UNL A   1      46.332  25.907  25.442  1.00  0.00    -0.352 N 
ATOM      8  C   UNL A   1      45.856  27.130  25.858  1.00  0.00     0.253 C 
ATOM      9  O   UNL A   1      46.722  27.958  26.169  1.00  0.00    -0.269 OA
ATOM     10  H   UNL A   1      47.314  25.839  25.400  1.00  0.00     0.163 HD
BRANCH   8  11
ATOM     11  C   UNL A   1      44.417  27.579  25.919  1.00  0.00     0.063 A 
ATOM     12  C   UNL A   1      43.847  28.734  26.501  1.00  0.00     0.051 A 
ATOM     13  C   UNL A   1      42.468  28.996  26.285  1.00  0.00    -0.038 A 
ATOM     14  C   UNL A   1      41.636  28.118  25.598  1.00  0.00    -0.060 A 
ATOM     15  H   UNL A   1      42.066  29.873  26.655  1.00  0.00     0.064 H 
ATOM     16  C   UNL A   1      43.544  26.707  25.217  1.00  0.00    -0.047 A 
ATOM     17  C   UNL A   1      42.174  26.958  25.076  1.00  0.00    -0.061 A 
ATOM     18  H   UNL A   1      40.633  28.331  25.479  1.00  0.00     0.062 H 
ATOM     19  H   UNL A   1      43.936  25.851  24.793  1.00  0.00     0.063 H 
ATOM     20  H   UNL A   1      41.570  26.280  24.585  1.00  0.00     0.062 H 
BRANCH  12  21
ATOM     21  N   UNL A   1      44.502  29.623  27.381  1.00  0.00    -0.355 N 
ATOM     22  H   UNL A   1      44.480  29.406  28.342  1.00  0.00     0.167 HD
BRANCH  21  23
ATOM     23  C   UNL A   1      45.189  30.804  26.995  1.00  0.00     0.039 A 
ATOM     24  C   UNL A   1      47.254  32.180  27.061  1.00  0.00     0.002 A 
ATOM     25  C   UNL A   1      46.570  30.951  27.258  1.00  0.00    -0.031 A 
ATOM     26  C   UNL A   1      46.499  33.224  26.528  1.00  0.00     0.127 A 
ATOM     27  H   UNL A   1      47.099  30.136  27.606  1.00  0.00     0.065 H 
ATOM     28  C   UNL A   1      45.162  33.090  26.223  1.00  0.00     0.006 A 
ATOM     29  O   UNL A   1      46.966  34.493  26.316  1.00  0.00    -0.492 OA
ATOM     30  C   UNL A   1      44.500  31.900  26.460  1.00  0.00    -0.031 A 
ATOM     31  C   UNL A   1      44.609  34.360  25.681  1.00  0.00     0.028 C 
ATOM     32  C   UNL A   1      45.870  35.242  25.751  1.00  0.00     0.097 C 
ATOM     33  H   UNL A   1      43.495  31.818  26.243  1.00  0.00     0.065 H 
ATOM     34  H   UNL A   1      46.132  35.564  24.765  1.00  0.00     0.072 H 
ATOM     35  H   UNL A   1      45.670  36.091  26.369  1.00  0.00     0.072 H 
BRANCH  24  36
ATOM     36  C   UNL A   1      48.677  32.424  27.580  1.00  0.00    -0.009 C 
BRANCH  36  37
ATOM     37  C   UNL A   1      48.746  33.243  28.889  1.00  0.00    -0.056 C 
ATOM     38  H   UNL A   1      49.032  32.601  29.695  1.00  0.00     0.024 H 
ATOM     39  H   UNL A   1      47.785  33.667  29.094  1.00  0.00     0.024 H 
ATOM     40  H   UNL A   1      49.467  34.026  28.783  1.00  0.00     0.024 H 
ENDBRANCH  36  37
BRANCH  36  41
ATOM     41  C   UNL A   1      49.574  33.164  26.563  1.00  0.00    -0.056 C 
ATOM     42  H   UNL A   1      49.700  32.557  25.690  1.00  0.00     0.024 H 
ATOM     43  H   UNL A   1      50.529  33.359  27.004  1.00  0.00     0.024 H 
ATOM     44  H   UNL A   1      49.112  34.090  26.289  1.00  0.00     0.024 H 
ENDBRANCH  36  41
BRANCH  36  45
ATOM     45  C   UNL A   1      49.252  31.025  27.864  1.00  0.00    -0.056 C 
ATOM     46  H   UNL A   1      50.236  31.120  28.275  1.00  0.00     0.024 H 
ATOM     47  H   UNL A   1      49.300  30.467  26.953  1.00  0.00     0.024 H 
ATOM     48  H   UNL A   1      48.621  30.515  28.562  1.00  0.00     0.024 H 
ENDBRANCH  36  45
ENDBRANCH  24  36
BRANCH  31  49
ATOM     49  C   UNL A   1      44.138  34.163  24.239  1.00  0.00    -0.052 C 
ATOM     50  H   UNL A   1      43.079  34.001  24.228  1.00  0.00     0.024 H 
ATOM     51  H   UNL A   1      44.633  33.315  23.815  1.00  0.00     0.024 H 
ATOM     52  H   UNL A   1      44.370  35.036  23.666  1.00  0.00     0.024 H 
ENDBRANCH  31  49
BRANCH  31  53
ATOM     53  C   UNL A   1      43.484  34.929  26.550  1.00  0.00    -0.052 C 
ATOM     54  H   UNL A   1      43.743  34.824  27.584  1.00  0.00     0.024 H 
ATOM     55  H   UNL A   1      42.578  34.395  26.354  1.00  0.00     0.024 H 
ATOM     56  H   UNL A   1      43.344  35.965  26.320  1.00  0.00     0.024 H 
ENDBRANCH  31  53
ENDBRANCH  21  23
ENDBRANCH  12  21
ENDBRANCH   8  11
ENDBRANCH   4   7
ENDBRANCH   1   4
BRANCH   1  57
ATOM     57  C   UNL A   1      45.655  22.083  25.347  1.00  0.00    -0.052 C 
ATOM     58  H   UNL A   1      44.752  22.330  25.867  1.00  0.00     0.027 H 
ATOM     59  H   UNL A   1      46.371  21.483  25.868  1.00  0.00     0.027 H 
BRANCH  57  60
ATOM     60  C   UNL A   1      45.255  21.205  24.156  1.00  0.00    -0.052 C 
ATOM     61  H   UNL A   1      46.054  21.254  23.447  1.00  0.00     0.027 H 
ATOM     62  H   UNL A   1      44.316  21.606  23.840  1.00  0.00     0.027 H 
BRANCH  60  63
ATOM     63  C   UNL A   1      44.964  19.723  24.404  1.00  0.00    -0.036 C 
ATOM     64  H   UNL A   1      45.895  19.200  24.340  1.00  0.00     0.028 H 
ATOM     65  H   UNL A   1      44.234  19.468  23.664  1.00  0.00     0.028 H 
BRANCH  63  66
ATOM     66  C   UNL A   1      44.312  19.328  25.732  1.00  0.00     0.018 C 
ATOM     67  H   UNL A   1      44.371  20.172  26.388  1.00  0.00     0.049 H 
ATOM     68  H   UNL A   1      44.850  18.468  26.071  1.00  0.00     0.049 H 
BRANCH  66  69
ATOM     69  N   UNL A   1      42.922  18.917  25.664  1.00  0.00    -0.352 N 
ATOM     70  C   UNL A   1      41.772  19.643  25.928  1.00  0.00     0.251 C 
ATOM     71  H   UNL A   1      42.775  17.984  25.391  1.00  0.00     0.163 HD
ATOM     72  O   UNL A   1      40.676  19.131  25.752  1.00  0.00    -0.269 OA
BRANCH  70  73
ATOM     73  C   UNL A   1      41.844  21.020  26.488  1.00  0.00     0.039 A 
ATOM     74  C   UNL A   1      42.010  22.142  25.683  1.00  0.00    -0.049 A 
ATOM     75  C   UNL A   1      41.728  21.193  27.870  1.00  0.00    -0.049 A 
ATOM     76  C   UNL A   1      42.269  23.393  26.263  1.00  0.00    -0.053 A 
ATOM     77  H   UNL A   1      41.945  22.054  24.656  1.00  0.00     0.063 H 
ATOM     78  C   UNL A   1      41.908  22.462  28.445  1.00  0.00    -0.053 A 
ATOM     79  H   UNL A   1      41.509  20.382  28.472  1.00  0.00     0.063 H 
ATOM     80  C   UNL A   1      42.262  23.570  27.658  1.00  0.00    -0.014 A 
ATOM     81  H   UNL A   1      42.468  24.201  25.653  1.00  0.00     0.063 H 
ATOM     82  H   UNL A   1      41.779  22.581  29.462  1.00  0.00     0.063 H 
BRANCH  80  83
ATOM     83  C   UNL A   1      42.687  24.865  28.296  1.00  0.00     0.031 A 
ATOM     84  C   UNL A   1      41.667  25.950  28.591  1.00  0.00     0.074 A 
ATOM     85  C   UNL A   1      43.969  25.094  28.655  1.00  0.00     0.049 A 
ATOM     86  N   UNL A   1      41.851  27.182  29.007  1.00  0.00    -0.248 NA
ATOM     87  C   UNL A   1      40.252  25.605  28.384  1.00  0.00    -0.034 C 
ATOM     88  C   UNL A   1      45.074  24.152  28.500  1.00  0.00    -0.036 A 
ATOM     89  N   UNL A   1      44.557  26.196  29.239  1.00  0.00    -0.354 N 
ATOM     90  C   UNL A   1      40.589  27.764  29.066  1.00  0.00     0.074 A 
ATOM     91  C   UNL A   1      39.647  26.760  28.621  1.00  0.00    -0.034 C 
ATOM     92  H   UNL A   1      39.837  24.696  28.122  1.00  0.00     0.065 H 
ATOM     93  C   UNL A   1      46.189  24.688  29.021  1.00  0.00    -0.036 A 
ATOM     94  H   UNL A   1      45.010  23.221  28.059  1.00  0.00     0.065 H 
ATOM     95  C   UNL A   1      45.905  26.050  29.468  1.00  0.00     0.049 A 
ATOM     96  H   UNL A   1      44.058  27.013  29.471  1.00  0.00     0.167 HD
ATOM     97  C   UNL A   1      40.236  29.012  29.466  1.00  0.00     0.037 A 
ATOM     98  H   UNL A   1      38.635  26.922  28.504  1.00  0.00     0.065 H 
ATOM     99  H   UNL A   1      47.102  24.214  29.095  1.00  0.00     0.065 H 
ATOM    100  C   UNL A   1      46.825  26.913  29.948  1.00  0.00     0.037 A 
ATOM    101  C   UNL A   1      41.150  30.010  29.965  1.00  0.00     0.049 A 
ATOM    102  C   UNL A   1      46.424  28.317  30.316  1.00  0.00     0.074 A 
ATOM    103  C   UNL A   1      40.868  31.294  30.400  1.00  0.00    -0.036 A 
ATOM    104  N   UNL A   1      42.517  29.832  30.113  1.00  0.00    -0.354 N 
ATOM    105  N   UNL A   1      45.235  28.867  30.317  1.00  0.00    -0.248 NA
ATOM    106  C   UNL A   1      47.502  29.228  30.733  1.00  0.00    -0.034 C 
ATOM    107  C   UNL A   1      42.068  31.910  30.768  1.00  0.00    -0.036 A 
ATOM    108  H   UNL A   1      39.931  31.724  30.444  1.00  0.00     0.065 H 
ATOM    109  C   UNL A   1      43.091  30.991  30.615  1.00  0.00     0.049 A 
ATOM    110  H   UNL A   1      43.006  29.006  29.894  1.00  0.00     0.167 HD
ATOM    111  C   UNL A   1      45.419  30.174  30.748  1.00  0.00     0.074 A 
ATOM    112  C   UNL A   1      46.830  30.334  31.019  1.00  0.00    -0.034 C 
ATOM    113  H   UNL A   1      48.518  29.051  30.787  1.00  0.00     0.065 H 
ATOM    114  H   UNL A   1      42.173  32.883  31.099  1.00  0.00     0.065 H 
ATOM    115  C   UNL A   1      44.494  31.154  30.896  1.00  0.00     0.037 A 
ATOM    116  H   UNL A   1      47.259  31.199  31.389  1.00  0.00     0.065 H 
BRANCH  97 117
ATOM    117  C   UNL A   1      38.784  29.395  29.383  1.00  0.00     0.064 A 
ATOM    118  C   UNL A   1      37.984  29.512  30.529  1.00  0.00     0.173 A 
ATOM    119  C   UNL A   1      38.209  29.733  28.146  1.00  0.00     0.173 A 
ATOM    120  F   UNL A   1      38.480  29.195  31.733  1.00  0.00    -0.203 F 
ATOM    121  C   UNL A   1      36.659  29.934  30.438  1.00  0.00     0.198 A 
ATOM    122  C   UNL A   1      36.895  30.185  28.063  1.00  0.00     0.198 A 
ATOM    123  F   UNL A   1      38.933  29.654  27.019  1.00  0.00    -0.203 F 
ATOM    124  F   UNL A   1      35.903  30.003  31.543  1.00  0.00    -0.200 F 
ATOM    125  C   UNL A   1      36.119  30.280  29.208  1.00  0.00     0.200 A 
ATOM    126  F   UNL A   1      36.381  30.538  26.876  1.00  0.00    -0.200 F 
ATOM    127  F   UNL A   1      34.850  30.704  29.127  1.00  0.00    -0.200 F 
ENDBRANCH  97 117
BRANCH 100 128
ATOM    128  C   UNL A   1      48.238  26.475  30.099  1.00  0.00     0.064 A 
ATOM    129  C   UNL A   1      49.179  26.726  29.089  1.00  0.00     0.173 A 
ATOM    130  C   UNL A   1      48.681  25.806  31.249  1.00  0.00     0.173 A 
ATOM    131  F   UNL A   1      48.798  27.330  27.955  1.00  0.00    -0.203 F 
ATOM    132  C   UNL A   1      50.507  26.326  29.228  1.00  0.00     0.198 A 
ATOM    133  C   UNL A   1      50.016  25.437  31.401  1.00  0.00     0.198 A 
ATOM    134  F   UNL A   1      47.819  25.532  32.240  1.00  0.00    -0.203 F 
ATOM    135  F   UNL A   1      51.378  26.546  28.233  1.00  0.00    -0.200 F 
ATOM    136  C   UNL A   1      50.927  25.693  30.387  1.00  0.00     0.200 A 
ATOM    137  F   UNL A   1      50.419  24.838  32.529  1.00  0.00    -0.200 F 
ATOM    138  F   UNL A   1      52.208  25.325  30.528  1.00  0.00    -0.200 F 
ENDBRANCH 100 128
BRANCH 115 139
ATOM    139  C   UNL A   1      44.958  32.491  31.402  1.00  0.00     0.064 A 
ATOM    140  C   UNL A   1      45.181  33.568  30.533  1.00  0.00     0.173 A 
ATOM    141  C   UNL A   1      45.115  32.716  32.778  1.00  0.00     0.173 A 
ATOM    142  F   UNL A   1      45.058  33.403  29.208  1.00  0.00    -0.203 F 
ATOM    143  C   UNL A   1      45.560  34.817  31.021  1.00  0.00     0.198 A 
ATOM    144  C   UNL A   1      45.466  33.974  33.266  1.00  0.00     0.198 A 
ATOM    145  F   UNL A   1      44.907  31.723  33.655  1.00  0.00    -0.203 F 
ATOM    146  F   UNL A   1      45.802  35.823  30.169  1.00  0.00    -0.200 F 
ATOM    147  C   UNL A   1      45.691  35.022  32.386  1.00  0.00     0.200 A 
ATOM    148  F   UNL A   1      45.577  34.173  34.587  1.00  0.00    -0.200 F 
ATOM    149  F   UNL A   1      46.040  36.228  32.854  1.00  0.00    -0.200 F 
ENDBRANCH 115 139
ENDBRANCH  80  83
ENDBRANCH  70  73
ENDBRANCH  66  69
ENDBRANCH  63  66
ENDBRANCH  60  63
ENDBRANCH  57  60
ENDBRANCH   1  57
TORSDOF 21
ENDMDL
MODEL 3
REMARK VINA RESULT:     -12.2      4.462      8.537
REMARK SMILES CC(C)(C)c1cc(Nc2ccccc2C(=O)NCCCCCCNC(=O)c2ccc(-c3c4nc(c(-c5c(F)c(F)c(F)c(F)c5F)c5ccc([nH]5)c(-c5c(F)c(F)c(F)c(F)c5F)c5nc(c(-c6c(F)c(F)c(F)c(F)c6F)c6ccc3[nH]6)C=C5)C=C4)cc2)cc2c1OCC2(C)C
REMARK SMILES IDX 19 1 18 4 17 7 15 8 16 9 14 11 9 12 10 13 11 14 13 16 12 17
REMARK SMILES IDX 8 21 7 23 5 24 6 25 92 26 91 28 93 29 90 30 95 31 94 32 2 36
REMARK SMILES IDX 1 37 3 41 4 45 96 49 97 53 20 57 21 60 22 63 23 66 24 69
REMARK SMILES IDX 25 70 26 72 27 73 28 74 89 75 29 76 88 78 30 80 31 83 32 84
REMARK SMILES IDX 82 85 33 86 87 87 81 88 83 89 34 90 86 91 80 93 79 95 35 97
REMARK SMILES IDX 67 100 47 101 66 102 48 103 51 104 65 105 84 106 49 107
REMARK SMILES IDX 50 109 64 111 85 112 52 115 36 117 37 118 45 119 38 120
REMARK SMILES IDX 39 121 43 122 46 123 40 124 41 125 44 126 42 127 68 128
REMARK SMILES IDX 69 129 77 130 70 131 71 132 75 133 78 134 72 135 73 136
REMARK SMILES IDX 76 137 74 138 53 139 54 140 62 141 55 142 56 143 60 144
REMARK SMILES IDX 63 145 57 146 58 147 61 148 59 149
REMARK H PARENT 19 2 19 3 18 5 18 6 17 10 10 15 11 18 13 19 12 20 8 22 6 27
REMARK H PARENT 90 33 94 34 94 35 1 38 1 39 1 40 3 42 3 43 3 44 4 46 4 47 4 48
REMARK H PARENT 96 50 96 51 96 52 97 54 97 55 97 56 20 58 20 59 21 61 21 62
REMARK H PARENT 22 64 22 65 23 67 23 68 24 71 28 77 89 79 29 81 88 82 87 92
REMARK H PARENT 81 94 83 96 86 98 80 99 48 108 51 110 84 113 49 114 85 116
REMARK Flexibility Score: inf
ROOT
ATOM      1  C   UNL A   1      33.239  28.928  27.267  1.00  0.00    -0.036 C 
ATOM      2  H   UNL A   1      34.249  28.997  27.612  1.00  0.00     0.028 H 
ATOM      3  H   UNL A   1      32.461  29.086  27.984  1.00  0.00     0.028 H 
ENDROOT
BRANCH   1   4
ATOM      4  C   UNL A   1      33.023  27.483  26.828  1.00  0.00     0.018 C 
ATOM      5  H   UNL A   1      33.282  27.421  25.792  1.00  0.00     0.049 H 
ATOM      6  H   UNL A   1      33.634  26.904  27.488  1.00  0.00     0.049 H 
BRANCH   4   7
ATOM      7  N   UNL A   1      31.703  26.936  26.976  1.00  0.00    -0.352 N 
ATOM      8  C   UNL A   1      30.939  26.196  26.101  1.00  0.00     0.253 C 
ATOM      9  O   UNL A   1      29.844  25.822  26.542  1.00  0.00    -0.269 OA
ATOM     10  H   UNL A   1      31.275  27.120  27.843  1.00  0.00     0.163 HD
BRANCH   8  11
ATOM     11  C   UNL A   1      31.265  25.848  24.670  1.00  0.00     0.063 A 
ATOM     12  C   UNL A   1      31.279  24.594  24.019  1.00  0.00     0.051 A 
ATOM     13  C   UNL A   1      31.477  24.558  22.613  1.00  0.00    -0.038 A 
ATOM     14  C   UNL A   1      31.743  25.700  21.864  1.00  0.00    -0.060 A 
ATOM     15  H   UNL A   1      31.422  23.649  22.127  1.00  0.00     0.064 H 
ATOM     16  C   UNL A   1      31.533  26.995  23.878  1.00  0.00    -0.047 A 
ATOM     17  C   UNL A   1      31.789  26.924  22.504  1.00  0.00    -0.061 A 
ATOM     18  H   UNL A   1      31.904  25.633  20.846  1.00  0.00     0.062 H 
ATOM     19  H   UNL A   1      31.539  27.921  24.334  1.00  0.00     0.063 H 
ATOM     20  H   UNL A   1      32.011  27.780  21.971  1.00  0.00     0.062 H 
BRANCH  12  21
ATOM     21  N   UNL A   1      31.216  23.333  24.653  1.00  0.00    -0.355 N 
ATOM     22  H   UNL A   1      30.346  23.055  25.020  1.00  0.00     0.167 HD
BRANCH  21  23
ATOM     23  C   UNL A   1      32.305  22.435  24.805  1.00  0.00     0.039 A 
ATOM     24  C   UNL A   1      34.756  22.068  24.935  1.00  0.00     0.002 A 
ATOM     25  C   UNL A   1      33.621  22.922  24.968  1.00  0.00    -0.031 A 
ATOM     26  C   UNL A   1      34.496  20.705  24.798  1.00  0.00     0.127 A 
ATOM     27  H   UNL A   1      33.763  23.934  25.116  1.00  0.00     0.065 H 
ATOM     28  C   UNL A   1      33.218  20.205  24.681  1.00  0.00     0.006 A 
ATOM     29  O   UNL A   1      35.456  19.736  24.694  1.00  0.00    -0.492 OA
ATOM     30  C   UNL A   1      32.126  21.052  24.673  1.00  0.00    -0.031 A 
ATOM     31  C   UNL A   1      33.236  18.724  24.539  1.00  0.00     0.028 C 
ATOM     32  C   UNL A   1      34.757  18.480  24.578  1.00  0.00     0.097 C 
ATOM     33  H   UNL A   1      31.175  20.665  24.568  1.00  0.00     0.065 H 
ATOM     34  H   UNL A   1      34.995  17.862  25.419  1.00  0.00     0.072 H 
ATOM     35  H   UNL A   1      35.057  17.993  23.674  1.00  0.00     0.072 H 
BRANCH  24  36
ATOM     36  C   UNL A   1      36.191  22.606  24.853  1.00  0.00    -0.009 C 
BRANCH  36  37
ATOM     37  C   UNL A   1      36.797  22.588  23.432  1.00  0.00    -0.056 C 
ATOM     38  H   UNL A   1      37.034  21.581  23.158  1.00  0.00     0.024 H 
ATOM     39  H   UNL A   1      37.689  23.180  23.417  1.00  0.00     0.024 H 
ATOM     40  H   UNL A   1      36.090  22.990  22.737  1.00  0.00     0.024 H 
ENDBRANCH  36  37
BRANCH  36  41
ATOM     41  C   UNL A   1      37.180  21.833  25.752  1.00  0.00    -0.056 C 
ATOM     42  H   UNL A   1      38.183  22.108  25.499  1.00  0.00     0.024 H 
ATOM     43  H   UNL A   1      37.050  20.781  25.604  1.00  0.00     0.024 H 
ATOM     44  H   UNL A   1      36.993  22.075  26.778  1.00  0.00     0.024 H 
ENDBRANCH  36  41
BRANCH  36  45
ATOM     45  C   UNL A   1      36.102  24.073  25.312  1.00  0.00    -0.056 C 
ATOM     46  H   UNL A   1      36.217  24.122  26.375  1.00  0.00     0.024 H 
ATOM     47  H   UNL A   1      35.150  24.475  25.038  1.00  0.00     0.024 H 
ATOM     48  H   UNL A   1      36.878  24.641  24.843  1.00  0.00     0.024 H 
ENDBRANCH  36  45
ENDBRANCH  24  36
BRANCH  31  49
ATOM     49  C   UNL A   1      32.528  18.066  25.725  1.00  0.00    -0.052 C 
ATOM     50  H   UNL A   1      33.255  17.609  26.365  1.00  0.00     0.024 H 
ATOM     51  H   UNL A   1      31.849  17.322  25.367  1.00  0.00     0.024 H 
ATOM     52  H   UNL A   1      31.988  18.809  26.274  1.00  0.00     0.024 H 
ENDBRANCH  31  49
BRANCH  31  53
ATOM     53  C   UNL A   1      32.632  18.253  23.213  1.00  0.00    -0.052 C 
ATOM     54  H   UNL A   1      31.707  17.748  23.402  1.00  0.00     0.024 H 
ATOM     55  H   UNL A   1      33.311  17.582  22.730  1.00  0.00     0.024 H 
ATOM     56  H   UNL A   1      32.455  19.098  22.581  1.00  0.00     0.024 H 
ENDBRANCH  31  53
ENDBRANCH  21  23
ENDBRANCH  12  21
ENDBRANCH   8  11
ENDBRANCH   4   7
ENDBRANCH   1   4
BRANCH   1  57
ATOM     57  C   UNL A   1      33.034  30.070  26.269  1.00  0.00    -0.052 C 
ATOM     58  H   UNL A   1      33.355  29.707  25.313  1.00  0.00     0.027 H 
ATOM     59  H   UNL A   1      33.592  30.877  26.698  1.00  0.00     0.027 H 
BRANCH  57  60
ATOM     60  C   UNL A   1      31.638  30.669  26.070  1.00  0.00    -0.052 C 
ATOM     61  H   UNL A   1      30.953  30.058  26.619  1.00  0.00     0.027 H 
ATOM     62  H   UNL A   1      31.510  30.687  25.009  1.00  0.00     0.027 H 
BRANCH  60  63
ATOM     63  C   UNL A   1      31.394  32.117  26.499  1.00  0.00    -0.036 C 
ATOM     64  H   UNL A   1      30.537  32.120  27.141  1.00  0.00     0.028 H 
ATOM     65  H   UNL A   1      31.288  32.654  25.579  1.00  0.00     0.028 H 
BRANCH  63  66
ATOM     66  C   UNL A   1      32.517  32.850  27.238  1.00  0.00     0.018 C 
ATOM     67  H   UNL A   1      33.358  32.907  26.579  1.00  0.00     0.049 H 
ATOM     68  H   UNL A   1      32.692  32.283  28.128  1.00  0.00     0.049 H 
BRANCH  66  69
ATOM     69  N   UNL A   1      32.214  34.196  27.687  1.00  0.00    -0.352 N 
ATOM     70  C   UNL A   1      32.925  35.026  28.539  1.00  0.00     0.251 C 
ATOM     71  H   UNL A   1      31.379  34.577  27.333  1.00  0.00     0.163 HD
ATOM     72  O   UNL A   1      32.532  36.163  28.750  1.00  0.00    -0.269 OA
BRANCH  70  73
ATOM     73  C   UNL A   1      34.129  34.533  29.262  1.00  0.00     0.039 A 
ATOM     74  C   UNL A   1      35.401  34.576  28.701  1.00  0.00    -0.049 A 
ATOM     75  C   UNL A   1      33.978  34.021  30.554  1.00  0.00    -0.049 A 
ATOM     76  C   UNL A   1      36.472  33.925  29.333  1.00  0.00    -0.053 A 
ATOM     77  H   UNL A   1      35.558  35.086  27.817  1.00  0.00     0.063 H 
ATOM     78  C   UNL A   1      35.071  33.440  31.220  1.00  0.00    -0.053 A 
ATOM     79  H   UNL A   1      33.059  34.070  31.020  1.00  0.00     0.063 H 
ATOM     80  C   UNL A   1      36.319  33.310  30.588  1.00  0.00    -0.014 A 
ATOM     81  H   UNL A   1      37.392  33.899  28.867  1.00  0.00     0.063 H 
ATOM     82  H   UNL A   1      34.954  33.104  32.189  1.00  0.00     0.063 H 
BRANCH  80  83
ATOM     83  C   UNL A   1      37.413  32.480  31.204  1.00  0.00     0.031 A 
ATOM     84  C   UNL A   1      37.900  32.770  32.612  1.00  0.00     0.074 A 
ATOM     85  C   UNL A   1      37.971  31.438  30.549  1.00  0.00     0.049 A 
ATOM     86  N   UNL A   1      38.919  32.263  33.267  1.00  0.00    -0.248 NA
ATOM     87  C   UNL A   1      37.144  33.769  33.384  1.00  0.00    -0.034 C 
ATOM     88  C   UNL A   1      37.596  30.978  29.214  1.00  0.00    -0.036 A 
ATOM     89  N   UNL A   1      38.971  30.569  30.928  1.00  0.00    -0.354 N 
ATOM     90  C   UNL A   1      38.950  32.911  34.498  1.00  0.00     0.074 A 
ATOM     91  C   UNL A   1      37.863  33.866  34.493  1.00  0.00    -0.034 C 
ATOM     92  H   UNL A   1      36.276  34.267  33.127  1.00  0.00     0.065 H 
ATOM     93  C   UNL A   1      38.312  29.885  28.907  1.00  0.00    -0.036 A 
ATOM     94  H   UNL A   1      36.892  31.422  28.604  1.00  0.00     0.065 H 
ATOM     95  C   UNL A   1      39.264  29.615  29.982  1.00  0.00     0.049 A 
ATOM     96  H   UNL A   1      39.433  30.625  31.795  1.00  0.00     0.167 HD
ATOM     97  C   UNL A   1      39.792  32.724  35.547  1.00  0.00     0.037 A 
ATOM     98  H   UNL A   1      37.671  34.534  35.255  1.00  0.00     0.065 H 
ATOM     99  H   UNL A   1      38.206  29.324  28.048  1.00  0.00     0.065 H 
ATOM    100  C   UNL A   1      40.208  28.651  29.953  1.00  0.00     0.037 A 
ATOM    101  C   UNL A   1      40.846  31.742  35.595  1.00  0.00     0.049 A 
ATOM    102  C   UNL A   1      41.179  28.510  31.095  1.00  0.00     0.074 A 
ATOM    103  C   UNL A   1      41.735  31.484  36.626  1.00  0.00    -0.036 A 
ATOM    104  N   UNL A   1      41.144  30.845  34.581  1.00  0.00    -0.354 N 
ATOM    105  N   UNL A   1      41.227  29.165  32.229  1.00  0.00    -0.248 NA
ATOM    106  C   UNL A   1      42.243  27.505  30.943  1.00  0.00    -0.034 C 
ATOM    107  C   UNL A   1      42.599  30.464  36.219  1.00  0.00    -0.036 A 
ATOM    108  H   UNL A   1      41.756  31.965  37.539  1.00  0.00     0.065 H 
ATOM    109  C   UNL A   1      42.214  30.047  34.957  1.00  0.00     0.049 A 
ATOM    110  H   UNL A   1      40.666  30.784  33.722  1.00  0.00     0.167 HD
ATOM    111  C   UNL A   1      42.308  28.642  32.927  1.00  0.00     0.074 A 
ATOM    112  C   UNL A   1      42.880  27.601  32.102  1.00  0.00    -0.034 C 
ATOM    113  H   UNL A   1      42.443  26.886  30.140  1.00  0.00     0.065 H 
ATOM    114  H   UNL A   1      43.388  30.084  36.767  1.00  0.00     0.065 H 
ATOM    115  C   UNL A   1      42.783  29.003  34.144  1.00  0.00     0.037 A 
ATOM    116  H   UNL A   1      43.680  27.010  32.379  1.00  0.00     0.065 H 
BRANCH  97 117
ATOM    117  C   UNL A   1      39.623  33.608  36.752  1.00  0.00     0.064 A 
ATOM    118  C   UNL A   1      40.221  34.874  36.829  1.00  0.00     0.173 A 
ATOM    119  C   UNL A   1      38.781  33.216  37.807  1.00  0.00     0.173 A 
ATOM    120  F   UNL A   1      41.040  35.294  35.854  1.00  0.00    -0.203 F 
ATOM    121  C   UNL A   1      39.999  35.706  37.924  1.00  0.00     0.198 A 
ATOM    122  C   UNL A   1      38.536  34.064  38.884  1.00  0.00     0.198 A 
ATOM    123  F   UNL A   1      38.171  32.021  37.778  1.00  0.00    -0.203 F 
ATOM    124  F   UNL A   1      40.611  36.897  37.993  1.00  0.00    -0.200 F 
ATOM    125  C   UNL A   1      39.149  35.306  38.945  1.00  0.00     0.200 A 
ATOM    126  F   UNL A   1      37.698  33.683  39.859  1.00  0.00    -0.200 F 
ATOM    127  F   UNL A   1      38.922  36.117  39.987  1.00  0.00    -0.200 F 
ENDBRANCH  97 117
BRANCH 100 128
ATOM    128  C   UNL A   1      40.293  27.738  28.781  1.00  0.00     0.064 A 
ATOM    129  C   UNL A   1      39.616  26.510  28.777  1.00  0.00     0.173 A 
ATOM    130  C   UNL A   1      41.041  28.073  27.643  1.00  0.00     0.173 A 
ATOM    131  F   UNL A   1      38.917  26.128  29.855  1.00  0.00    -0.203 F 
ATOM    132  C   UNL A   1      39.685  25.654  27.680  1.00  0.00     0.198 A 
ATOM    133  C   UNL A   1      41.081  27.232  26.533  1.00  0.00     0.198 A 
ATOM    134  F   UNL A   1      41.716  29.231  27.600  1.00  0.00    -0.203 F 
ATOM    135  F   UNL A   1      39.058  24.470  27.716  1.00  0.00    -0.200 F 
ATOM    136  C   UNL A   1      40.407  26.021  26.554  1.00  0.00     0.200 A 
ATOM    137  F   UNL A   1      41.769  27.597  25.443  1.00  0.00    -0.200 F 
ATOM    138  F   UNL A   1      40.457  25.206  25.491  1.00  0.00    -0.200 F 
ENDBRANCH 100 128
BRANCH 115 139
ATOM    139  C   UNL A   1      43.968  28.256  34.687  1.00  0.00     0.064 A 
ATOM    140  C   UNL A   1      45.277  28.730  34.517  1.00  0.00     0.173 A 
ATOM    141  C   UNL A   1      43.789  27.089  35.446  1.00  0.00     0.173 A 
ATOM    142  F   UNL A   1      45.505  29.834  33.789  1.00  0.00    -0.203 F 
ATOM    143  C   UNL A   1      46.362  28.056  35.072  1.00  0.00     0.198 A 
ATOM    144  C   UNL A   1      44.873  26.433  36.024  1.00  0.00     0.198 A 
ATOM    145  F   UNL A   1      42.558  26.595  35.647  1.00  0.00    -0.203 F 
ATOM    146  F   UNL A   1      47.607  28.509  34.866  1.00  0.00    -0.200 F 
ATOM    147  C   UNL A   1      46.159  26.915  35.833  1.00  0.00     0.200 A 
ATOM    148  F   UNL A   1      44.673  25.339  36.772  1.00  0.00    -0.200 F 
ATOM    149  F   UNL A   1      47.203  26.277  36.380  1.00  0.00    -0.200 F 
ENDBRANCH 115 139
ENDBRANCH  80  83
ENDBRANCH  70  73
ENDBRANCH  66  69
ENDBRANCH  63  66
ENDBRANCH  60  63
ENDBRANCH  57  60
ENDBRANCH   1  57
TORSDOF 21
ENDMDL
MODEL 4
REMARK VINA RESULT:     -12.0      3.955      9.713
REMARK SMILES CC(C)(C)c1cc(Nc2ccccc2C(=O)NCCCCCCNC(=O)c2ccc(-c3c4nc(c(-c5c(F)c(F)c(F)c(F)c5F)c5ccc([nH]5)c(-c5c(F)c(F)c(F)c(F)c5F)c5nc(c(-c6c(F)c(F)c(F)c(F)c6F)c6ccc3[nH]6)C=C5)C=C4)cc2)cc2c1OCC2(C)C
REMARK SMILES IDX 19 1 18 4 17 7 15 8 16 9 14 11 9 12 10 13 11 14 13 16 12 17
REMARK SMILES IDX 8 21 7 23 5 24 6 25 92 26 91 28 93 29 90 30 95 31 94 32 2 36
REMARK SMILES IDX 1 37 3 41 4 45 96 49 97 53 20 57 21 60 22 63 23 66 24 69
REMARK SMILES IDX 25 70 26 72 27 73 28 74 89 75 29 76 88 78 30 80 31 83 32 84
REMARK SMILES IDX 82 85 33 86 87 87 81 88 83 89 34 90 86 91 80 93 79 95 35 97
REMARK SMILES IDX 67 100 47 101 66 102 48 103 51 104 65 105 84 106 49 107
REMARK SMILES IDX 50 109 64 111 85 112 52 115 36 117 37 118 45 119 38 120
REMARK SMILES IDX 39 121 43 122 46 123 40 124 41 125 44 126 42 127 68 128
REMARK SMILES IDX 69 129 77 130 70 131 71 132 75 133 78 134 72 135 73 136
REMARK SMILES IDX 76 137 74 138 53 139 54 140 62 141 55 142 56 143 60 144
REMARK SMILES IDX 63 145 57 146 58 147 61 148 59 149
REMARK H PARENT 19 2 19 3 18 5 18 6 17 10 10 15 11 18 13 19 12 20 8 22 6 27
REMARK H PARENT 90 33 94 34 94 35 1 38 1 39 1 40 3 42 3 43 3 44 4 46 4 47 4 48
REMARK H PARENT 96 50 96 51 96 52 97 54 97 55 97 56 20 58 20 59 21 61 21 62
REMARK H PARENT 22 64 22 65 23 67 23 68 24 71 28 77 89 79 29 81 88 82 87 92
REMARK H PARENT 81 94 83 96 86 98 80 99 48 108 51 110 84 113 49 114 85 116
REMARK Flexibility Score: inf
ROOT
ATOM      1  C   UNL A   1      33.806  25.812  22.798  1.00  0.00    -0.036 C 
ATOM      2  H   UNL A   1      34.837  25.656  22.559  1.00  0.00     0.028 H 
ATOM      3  H   UNL A   1      33.423  25.321  23.668  1.00  0.00     0.028 H 
ENDROOT
BRANCH   1   4
ATOM      4  C   UNL A   1      32.993  25.198  21.663  1.00  0.00     0.018 C 
ATOM      5  H   UNL A   1      32.134  25.818  21.512  1.00  0.00     0.049 H 
ATOM      6  H   UNL A   1      33.672  25.150  20.837  1.00  0.00     0.049 H 
BRANCH   4   7
ATOM      7  N   UNL A   1      32.528  23.850  21.834  1.00  0.00    -0.352 N 
ATOM      8  C   UNL A   1      31.651  23.316  22.751  1.00  0.00     0.253 C 
ATOM      9  O   UNL A   1      31.408  22.111  22.611  1.00  0.00    -0.269 OA
ATOM     10  H   UNL A   1      32.896  23.203  21.190  1.00  0.00     0.163 HD
BRANCH   8  11
ATOM     11  C   UNL A   1      31.011  24.020  23.922  1.00  0.00     0.063 A 
ATOM     12  C   UNL A   1      30.872  23.608  25.266  1.00  0.00     0.051 A 
ATOM     13  C   UNL A   1      30.357  24.532  26.214  1.00  0.00    -0.038 A 
ATOM     14  C   UNL A   1      29.903  25.798  25.855  1.00  0.00    -0.060 A 
ATOM     15  H   UNL A   1      30.316  24.255  27.207  1.00  0.00     0.064 H 
ATOM     16  C   UNL A   1      30.546  25.319  23.589  1.00  0.00    -0.047 A 
ATOM     17  C   UNL A   1      29.982  26.186  24.531  1.00  0.00    -0.061 A 
ATOM     18  H   UNL A   1      29.514  26.436  26.567  1.00  0.00     0.062 H 
ATOM     19  H   UNL A   1      30.627  25.638  22.611  1.00  0.00     0.063 H 
ATOM     20  H   UNL A   1      29.626  27.111  24.240  1.00  0.00     0.062 H 
BRANCH  12  21
ATOM     21  N   UNL A   1      31.104  22.304  25.759  1.00  0.00    -0.355 N 
ATOM     22  H   UNL A   1      30.370  21.869  26.249  1.00  0.00     0.167 HD
BRANCH  21  23
ATOM     23  C   UNL A   1      32.309  21.570  25.603  1.00  0.00     0.039 A 
ATOM     24  C   UNL A   1      34.775  21.566  25.319  1.00  0.00     0.002 A 
ATOM     25  C   UNL A   1      33.561  22.223  25.654  1.00  0.00    -0.031 A 
ATOM     26  C   UNL A   1      34.673  20.213  24.998  1.00  0.00     0.127 A 
ATOM     27  H   UNL A   1      33.594  23.213  25.944  1.00  0.00     0.065 H 
ATOM     28  C   UNL A   1      33.467  19.545  24.985  1.00  0.00     0.006 A 
ATOM     29  O   UNL A   1      35.719  19.426  24.600  1.00  0.00    -0.492 OA
ATOM     30  C   UNL A   1      32.290  20.209  25.272  1.00  0.00    -0.031 A 
ATOM     31  C   UNL A   1      33.652  18.120  24.600  1.00  0.00     0.028 C 
ATOM     32  C   UNL A   1      35.177  18.107  24.380  1.00  0.00     0.097 C 
ATOM     33  H   UNL A   1      31.392  19.700  25.243  1.00  0.00     0.065 H 
ATOM     34  H   UNL A   1      35.627  17.420  25.066  1.00  0.00     0.072 H 
ATOM     35  H   UNL A   1      35.384  17.805  23.375  1.00  0.00     0.072 H 
BRANCH  24  36
ATOM     36  C   UNL A   1      36.096  22.322  25.122  1.00  0.00    -0.009 C 
BRANCH  36  37
ATOM     37  C   UNL A   1      36.468  22.578  23.644  1.00  0.00    -0.056 C 
ATOM     38  H   UNL A   1      35.585  22.541  23.042  1.00  0.00     0.024 H 
ATOM     39  H   UNL A   1      37.156  21.826  23.314  1.00  0.00     0.024 H 
ATOM     40  H   UNL A   1      36.922  23.542  23.552  1.00  0.00     0.024 H 
ENDBRANCH  36  37
BRANCH  36  41
ATOM     41  C   UNL A   1      37.307  21.600  25.751  1.00  0.00    -0.056 C 
ATOM     42  H   UNL A   1      37.501  22.008  26.721  1.00  0.00     0.024 H 
ATOM     43  H   UNL A   1      38.166  21.735  25.128  1.00  0.00     0.024 H 
ATOM     44  H   UNL A   1      37.092  20.555  25.840  1.00  0.00     0.024 H 
ENDBRANCH  36  41
BRANCH  36  45
ATOM     45  C   UNL A   1      35.888  23.688  25.802  1.00  0.00    -0.056 C 
ATOM     46  H   UNL A   1      35.122  23.603  26.545  1.00  0.00     0.024 H 
ATOM     47  H   UNL A   1      35.595  24.410  25.069  1.00  0.00     0.024 H 
ATOM     48  H   UNL A   1      36.801  23.998  26.265  1.00  0.00     0.024 H 
ENDBRANCH  36  45
ENDBRANCH  24  36
BRANCH  31  49
ATOM     49  C   UNL A   1      33.240  17.200  25.751  1.00  0.00    -0.052 C 
ATOM     50  H   UNL A   1      33.816  16.298  25.711  1.00  0.00     0.024 H 
ATOM     51  H   UNL A   1      32.201  16.963  25.664  1.00  0.00     0.024 H 
ATOM     52  H   UNL A   1      33.418  17.695  26.683  1.00  0.00     0.024 H 
ENDBRANCH  31  49
BRANCH  31  53
ATOM     53  C   UNL A   1      32.903  17.756  23.315  1.00  0.00    -0.052 C 
ATOM     54  H   UNL A   1      32.101  17.085  23.547  1.00  0.00     0.024 H 
ATOM     55  H   UNL A   1      33.576  17.283  22.632  1.00  0.00     0.024 H 
ATOM     56  H   UNL A   1      32.506  18.644  22.869  1.00  0.00     0.024 H 
ENDBRANCH  31  53
ENDBRANCH  21  23
ENDBRANCH  12  21
ENDBRANCH   8  11
ENDBRANCH   4   7
ENDBRANCH   1   4
BRANCH   1  57
ATOM     57  C   UNL A   1      33.650  27.296  23.136  1.00  0.00    -0.052 C 
ATOM     58  H   UNL A   1      32.832  27.663  22.550  1.00  0.00     0.027 H 
ATOM     59  H   UNL A   1      34.619  27.701  22.930  1.00  0.00     0.027 H 
BRANCH  57  60
ATOM     60  C   UNL A   1      33.386  27.726  24.583  1.00  0.00    -0.052 C 
ATOM     61  H   UNL A   1      34.310  27.631  25.113  1.00  0.00     0.027 H 
ATOM     62  H   UNL A   1      32.589  27.089  24.903  1.00  0.00     0.027 H 
BRANCH  60  63
ATOM     63  C   UNL A   1      32.860  29.139  24.844  1.00  0.00    -0.036 C 
ATOM     64  H   UNL A   1      32.130  29.352  24.091  1.00  0.00     0.028 H 
ATOM     65  H   UNL A   1      33.735  29.756  24.831  1.00  0.00     0.028 H 
BRANCH  63  66
ATOM     66  C   UNL A   1      32.211  29.429  26.200  1.00  0.00     0.018 C 
ATOM     67  H   UNL A   1      32.829  28.992  26.957  1.00  0.00     0.049 H 
ATOM     68  H   UNL A   1      31.227  29.016  26.142  1.00  0.00     0.049 H 
BRANCH  66  69
ATOM     69  N   UNL A   1      32.027  30.829  26.534  1.00  0.00    -0.352 N 
ATOM     70  C   UNL A   1      32.910  31.722  27.119  1.00  0.00     0.251 C 
ATOM     71  H   UNL A   1      31.143  31.199  26.312  1.00  0.00     0.163 HD
ATOM     72  O   UNL A   1      32.586  32.891  27.265  1.00  0.00    -0.269 OA
BRANCH  70  73
ATOM     73  C   UNL A   1      34.229  31.269  27.638  1.00  0.00     0.039 A 
ATOM     74  C   UNL A   1      34.521  29.926  27.854  1.00  0.00    -0.049 A 
ATOM     75  C   UNL A   1      35.213  32.225  27.907  1.00  0.00    -0.049 A 
ATOM     76  C   UNL A   1      35.698  29.560  28.525  1.00  0.00    -0.053 A 
ATOM     77  H   UNL A   1      33.870  29.197  27.521  1.00  0.00     0.063 H 
ATOM     78  C   UNL A   1      36.426  31.847  28.507  1.00  0.00    -0.053 A 
ATOM     79  H   UNL A   1      35.047  33.214  27.663  1.00  0.00     0.063 H 
ATOM     80  C   UNL A   1      36.657  30.518  28.900  1.00  0.00    -0.014 A 
ATOM     81  H   UNL A   1      35.864  28.566  28.747  1.00  0.00     0.063 H 
ATOM     82  H   UNL A   1      37.159  32.557  28.662  1.00  0.00     0.063 H 
BRANCH  80  83
ATOM     83  C   UNL A   1      37.844  30.160  29.753  1.00  0.00     0.031 A 
ATOM     84  C   UNL A   1      38.953  29.284  29.200  1.00  0.00     0.074 A 
ATOM     85  C   UNL A   1      37.983  30.628  31.013  1.00  0.00     0.049 A 
ATOM     86  N   UNL A   1      39.985  28.751  29.814  1.00  0.00    -0.248 NA
ATOM     87  C   UNL A   1      38.888  28.955  27.767  1.00  0.00    -0.034 C 
ATOM     88  C   UNL A   1      37.049  31.522  31.692  1.00  0.00    -0.036 A 
ATOM     89  N   UNL A   1      38.976  30.420  31.945  1.00  0.00    -0.354 N 
ATOM     90  C   UNL A   1      40.659  27.997  28.858  1.00  0.00     0.074 A 
ATOM     91  C   UNL A   1      39.907  28.118  27.627  1.00  0.00    -0.034 C 
ATOM     92  H   UNL A   1      38.221  29.290  27.054  1.00  0.00     0.065 H 
ATOM     93  C   UNL A   1      37.535  31.829  32.905  1.00  0.00    -0.036 A 
ATOM     94  H   UNL A   1      36.157  31.865  31.302  1.00  0.00     0.065 H 
ATOM     95  C   UNL A   1      38.771  31.083  33.132  1.00  0.00     0.049 A 
ATOM     96  H   UNL A   1      39.760  29.848  31.778  1.00  0.00     0.167 HD
ATOM     97  C   UNL A   1      41.804  27.279  28.980  1.00  0.00     0.037 A 
ATOM     98  H   UNL A   1      40.135  27.619  26.754  1.00  0.00     0.065 H 
ATOM     99  H   UNL A   1      37.104  32.488  33.572  1.00  0.00     0.065 H 
ATOM    100  C   UNL A   1      39.468  31.077  34.288  1.00  0.00     0.037 A 
ATOM    101  C   UNL A   1      42.598  27.189  30.180  1.00  0.00     0.049 A 
ATOM    102  C   UNL A   1      40.695  30.215  34.425  1.00  0.00     0.074 A 
ATOM    103  C   UNL A   1      43.778  26.490  30.380  1.00  0.00    -0.036 A 
ATOM    104  N   UNL A   1      42.308  27.828  31.375  1.00  0.00    -0.354 N 
ATOM    105  N   UNL A   1      41.288  29.468  33.527  1.00  0.00    -0.248 NA
ATOM    106  C   UNL A   1      41.339  30.182  35.748  1.00  0.00    -0.034 C 
ATOM    107  C   UNL A   1      44.177  26.668  31.708  1.00  0.00    -0.036 A 
ATOM    108  H   UNL A   1      44.276  25.932  29.670  1.00  0.00     0.065 H 
ATOM    109  C   UNL A   1      43.277  27.524  32.320  1.00  0.00     0.049 A 
ATOM    110  H   UNL A   1      41.530  28.412  31.530  1.00  0.00     0.167 HD
ATOM    111  C   UNL A   1      42.378  28.893  34.169  1.00  0.00     0.074 A 
ATOM    112  C   UNL A   1      42.379  29.391  35.526  1.00  0.00    -0.034 C 
ATOM    113  H   UNL A   1      41.053  30.652  36.622  1.00  0.00     0.065 H 
ATOM    114  H   UNL A   1      45.003  26.238  32.155  1.00  0.00     0.065 H 
ATOM    115  C   UNL A   1      43.290  28.023  33.670  1.00  0.00     0.037 A 
ATOM    116  H   UNL A   1      43.098  29.161  36.232  1.00  0.00     0.065 H 
BRANCH  97 117
ATOM    117  C   UNL A   1      42.287  26.513  27.779  1.00  0.00     0.064 A 
ATOM    118  C   UNL A   1      43.248  27.040  26.904  1.00  0.00     0.173 A 
ATOM    119  C   UNL A   1      41.846  25.198  27.552  1.00  0.00     0.173 A 
ATOM    120  F   UNL A   1      43.698  28.292  27.071  1.00  0.00    -0.203 F 
ATOM    121  C   UNL A   1      43.734  26.288  25.836  1.00  0.00     0.198 A 
ATOM    122  C   UNL A   1      42.357  24.439  26.503  1.00  0.00     0.198 A 
ATOM    123  F   UNL A   1      40.938  24.639  28.367  1.00  0.00    -0.203 F 
ATOM    124  F   UNL A   1      44.624  26.827  24.991  1.00  0.00    -0.200 F 
ATOM    125  C   UNL A   1      43.296  24.986  25.642  1.00  0.00     0.200 A 
ATOM    126  F   UNL A   1      41.948  23.174  26.330  1.00  0.00    -0.200 F 
ATOM    127  F   UNL A   1      43.780  24.260  24.626  1.00  0.00    -0.200 F 
ENDBRANCH  97 117
BRANCH 100 128
ATOM    128  C   UNL A   1      39.009  31.914  35.429  1.00  0.00     0.064 A 
ATOM    129  C   UNL A   1      38.228  31.363  36.455  1.00  0.00     0.173 A 
ATOM    130  C   UNL A   1      39.346  33.272  35.525  1.00  0.00     0.173 A 
ATOM    131  F   UNL A   1      37.850  30.078  36.392  1.00  0.00    -0.203 F 
ATOM    132  C   UNL A   1      37.803  32.139  37.532  1.00  0.00     0.198 A 
ATOM    133  C   UNL A   1      38.949  34.038  36.619  1.00  0.00     0.198 A 
ATOM    134  F   UNL A   1      40.083  33.851  34.565  1.00  0.00    -0.203 F 
ATOM    135  F   UNL A   1      37.027  31.596  38.481  1.00  0.00    -0.200 F 
ATOM    136  C   UNL A   1      38.173  33.472  37.619  1.00  0.00     0.200 A 
ATOM    137  F   UNL A   1      39.321  35.322  36.705  1.00  0.00    -0.200 F 
ATOM    138  F   UNL A   1      37.780  34.213  38.664  1.00  0.00    -0.200 F 
ENDBRANCH 100 128
BRANCH 115 139
ATOM    139  C   UNL A   1      44.395  27.563  34.579  1.00  0.00     0.064 A 
ATOM    140  C   UNL A   1      45.580  28.297  34.725  1.00  0.00     0.173 A 
ATOM    141  C   UNL A   1      44.237  26.411  35.366  1.00  0.00     0.173 A 
ATOM    142  F   UNL A   1      45.787  29.398  33.987  1.00  0.00    -0.203 F 
ATOM    143  C   UNL A   1      46.574  27.887  35.611  1.00  0.00     0.198 A 
ATOM    144  C   UNL A   1      45.220  26.019  36.272  1.00  0.00     0.198 A 
ATOM    145  F   UNL A   1      43.119  25.675  35.272  1.00  0.00    -0.203 F 
ATOM    146  F   UNL A   1      47.714  28.585  35.707  1.00  0.00    -0.200 F 
ATOM    147  C   UNL A   1      46.389  26.755  36.391  1.00  0.00     0.200 A 
ATOM    148  F   UNL A   1      45.032  24.934  37.036  1.00  0.00    -0.200 F 
ATOM    149  F   UNL A   1      47.339  26.372  37.255  1.00  0.00    -0.200 F 
ENDBRANCH 115 139
ENDBRANCH  80  83
ENDBRANCH  70  73
ENDBRANCH  66  69
ENDBRANCH  63  66
ENDBRANCH  60  63
ENDBRANCH  57  60
ENDBRANCH   1  57
TORSDOF 21
ENDMDL
MODEL 5
REMARK VINA RESULT:     -12.0      4.366      8.492
REMARK SMILES CC(C)(C)c1cc(Nc2ccccc2C(=O)NCCCCCCNC(=O)c2ccc(-c3c4nc(c(-c5c(F)c(F)c(F)c(F)c5F)c5ccc([nH]5)c(-c5c(F)c(F)c(F)c(F)c5F)c5nc(c(-c6c(F)c(F)c(F)c(F)c6F)c6ccc3[nH]6)C=C5)C=C4)cc2)cc2c1OCC2(C)C
REMARK SMILES IDX 19 1 18 4 17 7 15 8 16 9 14 11 9 12 10 13 11 14 13 16 12 17
REMARK SMILES IDX 8 21 7 23 5 24 6 25 92 26 91 28 93 29 90 30 95 31 94 32 2 36
REMARK SMILES IDX 1 37 3 41 4 45 96 49 97 53 20 57 21 60 22 63 23 66 24 69
REMARK SMILES IDX 25 70 26 72 27 73 28 74 89 75 29 76 88 78 30 80 31 83 32 84
REMARK SMILES IDX 82 85 33 86 87 87 81 88 83 89 34 90 86 91 80 93 79 95 35 97
REMARK SMILES IDX 67 100 47 101 66 102 48 103 51 104 65 105 84 106 49 107
REMARK SMILES IDX 50 109 64 111 85 112 52 115 36 117 37 118 45 119 38 120
REMARK SMILES IDX 39 121 43 122 46 123 40 124 41 125 44 126 42 127 68 128
REMARK SMILES IDX 69 129 77 130 70 131 71 132 75 133 78 134 72 135 73 136
REMARK SMILES IDX 76 137 74 138 53 139 54 140 62 141 55 142 56 143 60 144
REMARK SMILES IDX 63 145 57 146 58 147 61 148 59 149
REMARK H PARENT 19 2 19 3 18 5 18 6 17 10 10 15 11 18 13 19 12 20 8 22 6 27
REMARK H PARENT 90 33 94 34 94 35 1 38 1 39 1 40 3 42 3 43 3 44 4 46 4 47 4 48
REMARK H PARENT 96 50 96 51 96 52 97 54 97 55 97 56 20 58 20 59 21 61 21 62
REMARK H PARENT 22 64 22 65 23 67 23 68 24 71 28 77 89 79 29 81 88 82 87 92
REMARK H PARENT 81 94 83 96 86 98 80 99 48 108 51 110 84 113 49 114 85 116
REMARK Flexibility Score: inf
ROOT
ATOM      1  C   UNL A   1      32.788  28.892  27.343  1.00  0.00    -0.036 C 
ATOM      2  H   UNL A   1      33.639  28.993  27.983  1.00  0.00     0.028 H 
ATOM      3  H   UNL A   1      31.823  29.044  27.779  1.00  0.00     0.028 H 
ENDROOT
BRANCH   1   4
ATOM      4  C   UNL A   1      32.744  27.434  26.896  1.00  0.00     0.018 C 
ATOM      5  H   UNL A   1      33.091  27.398  25.885  1.00  0.00     0.049 H 
ATOM      6  H   UNL A   1      33.353  26.914  27.606  1.00  0.00     0.049 H 
BRANCH   4   7
ATOM      7  N   UNL A   1      31.475  26.764  26.941  1.00  0.00    -0.352 N 
ATOM      8  C   UNL A   1      30.795  26.070  25.966  1.00  0.00     0.253 C 
ATOM      9  O   UNL A   1      29.728  25.557  26.328  1.00  0.00    -0.269 OA
ATOM     10  H   UNL A   1      31.016  26.809  27.811  1.00  0.00     0.163 HD
BRANCH   8  11
ATOM     11  C   UNL A   1      31.178  25.920  24.514  1.00  0.00     0.063 A 
ATOM     12  C   UNL A   1      31.309  24.757  23.723  1.00  0.00     0.051 A 
ATOM     13  C   UNL A   1      31.538  24.902  22.329  1.00  0.00    -0.038 A 
ATOM     14  C   UNL A   1      31.724  26.142  21.726  1.00  0.00    -0.060 A 
ATOM     15  H   UNL A   1      31.568  24.056  21.740  1.00  0.00     0.064 H 
ATOM     16  C   UNL A   1      31.366  27.170  23.868  1.00  0.00    -0.047 A 
ATOM     17  C   UNL A   1      31.656  27.282  22.504  1.00  0.00    -0.061 A 
ATOM     18  H   UNL A   1      31.910  26.209  20.712  1.00  0.00     0.062 H 
ATOM     19  H   UNL A   1      31.286  28.033  24.429  1.00  0.00     0.063 H 
ATOM     20  H   UNL A   1      31.817  28.210  22.081  1.00  0.00     0.062 H 
BRANCH  12  21
ATOM     21  N   UNL A   1      31.337  23.429  24.205  1.00  0.00    -0.355 N 
ATOM     22  H   UNL A   1      30.495  23.056  24.551  1.00  0.00     0.167 HD
BRANCH  21  23
ATOM     23  C   UNL A   1      32.482  22.589  24.231  1.00  0.00     0.039 A 
ATOM     24  C   UNL A   1      33.439  20.303  24.369  1.00  0.00     0.002 A 
ATOM     25  C   UNL A   1      32.345  21.185  24.159  1.00  0.00    -0.031 A 
ATOM     26  C   UNL A   1      34.678  20.903  24.586  1.00  0.00     0.127 A 
ATOM     27  H   UNL A   1      31.417  20.786  23.947  1.00  0.00     0.065 H 
ATOM     28  C   UNL A   1      34.842  22.271  24.616  1.00  0.00     0.006 A 
ATOM     29  O   UNL A   1      35.835  20.225  24.858  1.00  0.00    -0.492 OA
ATOM     30  C   UNL A   1      33.761  23.116  24.452  1.00  0.00    -0.031 A 
ATOM     31  C   UNL A   1      36.263  22.632  24.875  1.00  0.00     0.028 C 
ATOM     32  C   UNL A   1      36.868  21.221  25.003  1.00  0.00     0.097 C 
ATOM     33  H   UNL A   1      33.895  24.138  24.493  1.00  0.00     0.065 H 
ATOM     34  H   UNL A   1      37.605  21.082  24.240  1.00  0.00     0.072 H 
ATOM     35  H   UNL A   1      37.320  21.120  25.967  1.00  0.00     0.072 H 
BRANCH  24  36
ATOM     36  C   UNL A   1      33.256  18.790  24.548  1.00  0.00    -0.009 C 
BRANCH  36  37
ATOM     37  C   UNL A   1      32.703  18.376  25.931  1.00  0.00    -0.056 C 
ATOM     38  H   UNL A   1      33.459  18.514  26.674  1.00  0.00     0.024 H 
ATOM     39  H   UNL A   1      32.413  17.345  25.904  1.00  0.00     0.024 H 
ATOM     40  H   UNL A   1      31.853  18.979  26.170  1.00  0.00     0.024 H 
ENDBRANCH  36  37
BRANCH  36  41
ATOM     41  C   UNL A   1      34.565  17.995  24.354  1.00  0.00    -0.056 C 
ATOM     42  H   UNL A   1      35.132  18.013  25.261  1.00  0.00     0.024 H 
ATOM     43  H   UNL A   1      35.138  18.438  23.566  1.00  0.00     0.024 H 
ATOM     44  H   UNL A   1      34.332  16.982  24.099  1.00  0.00     0.024 H 
ENDBRANCH  36  41
BRANCH  36  45
ATOM     45  C   UNL A   1      32.227  18.375  23.481  1.00  0.00    -0.056 C 
ATOM     46  H   UNL A   1      31.242  18.622  23.820  1.00  0.00     0.024 H 
ATOM     47  H   UNL A   1      32.292  17.321  23.315  1.00  0.00     0.024 H 
ATOM     48  H   UNL A   1      32.431  18.894  22.568  1.00  0.00     0.024 H 
ENDBRANCH  36  45
ENDBRANCH  24  36
BRANCH  31  49
ATOM     49  C   UNL A   1      36.845  23.389  23.679  1.00  0.00    -0.052 C 
ATOM     50  H   UNL A   1      37.412  24.228  24.030  1.00  0.00     0.024 H 
ATOM     51  H   UNL A   1      36.050  23.733  23.052  1.00  0.00     0.024 H 
ATOM     52  H   UNL A   1      37.484  22.737  23.121  1.00  0.00     0.024 H 
ENDBRANCH  31  49
BRANCH  31  53
ATOM     53  C   UNL A   1      36.440  23.432  26.167  1.00  0.00    -0.052 C 
ATOM     54  H   UNL A   1      35.594  24.074  26.309  1.00  0.00     0.024 H 
ATOM     55  H   UNL A   1      37.329  24.025  26.101  1.00  0.00     0.024 H 
ATOM     56  H   UNL A   1      36.521  22.760  26.996  1.00  0.00     0.024 H 
ENDBRANCH  31  53
ENDBRANCH  21  23
ENDBRANCH  12  21
ENDBRANCH   8  11
ENDBRANCH   4   7
ENDBRANCH   1   4
BRANCH   1  57
ATOM     57  C   UNL A   1      32.883  30.009  26.301  1.00  0.00    -0.052 C 
ATOM     58  H   UNL A   1      33.252  29.562  25.401  1.00  0.00     0.027 H 
ATOM     59  H   UNL A   1      33.506  30.739  26.776  1.00  0.00     0.027 H 
BRANCH  57  60
ATOM     60  C   UNL A   1      31.631  30.806  25.920  1.00  0.00    -0.052 C 
ATOM     61  H   UNL A   1      30.792  30.154  26.046  1.00  0.00     0.027 H 
ATOM     62  H   UNL A   1      31.826  31.137  24.922  1.00  0.00     0.027 H 
BRANCH  60  63
ATOM     63  C   UNL A   1      31.320  32.094  26.686  1.00  0.00    -0.036 C 
ATOM     64  H   UNL A   1      30.678  31.832  27.502  1.00  0.00     0.028 H 
ATOM     65  H   UNL A   1      30.896  32.746  25.950  1.00  0.00     0.028 H 
BRANCH  63  66
ATOM     66  C   UNL A   1      32.492  32.889  27.267  1.00  0.00     0.018 C 
ATOM     67  H   UNL A   1      33.250  32.950  26.514  1.00  0.00     0.049 H 
ATOM     68  H   UNL A   1      32.789  32.359  28.148  1.00  0.00     0.049 H 
BRANCH  66  69
ATOM     69  N   UNL A   1      32.194  34.239  27.705  1.00  0.00    -0.352 N 
ATOM     70  C   UNL A   1      32.917  35.080  28.536  1.00  0.00     0.251 C 
ATOM     71  H   UNL A   1      31.352  34.614  27.362  1.00  0.00     0.163 HD
ATOM     72  O   UNL A   1      32.525  36.219  28.740  1.00  0.00    -0.269 OA
BRANCH  70  73
ATOM     73  C   UNL A   1      34.135  34.598  29.243  1.00  0.00     0.039 A 
ATOM     74  C   UNL A   1      35.399  34.654  28.666  1.00  0.00    -0.049 A 
ATOM     75  C   UNL A   1      34.005  34.084  30.536  1.00  0.00    -0.049 A 
ATOM     76  C   UNL A   1      36.484  34.014  29.285  1.00  0.00    -0.053 A 
ATOM     77  H   UNL A   1      35.540  35.166  27.781  1.00  0.00     0.063 H 
ATOM     78  C   UNL A   1      35.111  33.514  31.189  1.00  0.00    -0.053 A 
ATOM     79  H   UNL A   1      33.091  34.124  31.014  1.00  0.00     0.063 H 
ATOM     80  C   UNL A   1      36.353  33.396  30.541  1.00  0.00    -0.014 A 
ATOM     81  H   UNL A   1      37.399  33.996  28.807  1.00  0.00     0.063 H 
ATOM     82  H   UNL A   1      35.010  33.176  32.158  1.00  0.00     0.063 H 
BRANCH  80  83
ATOM     83  C   UNL A   1      37.462  32.576  31.143  1.00  0.00     0.031 A 
ATOM     84  C   UNL A   1      37.954  32.862  32.550  1.00  0.00     0.074 A 
ATOM     85  C   UNL A   1      38.030  31.549  30.475  1.00  0.00     0.049 A 
ATOM     86  N   UNL A   1      38.985  32.364  33.194  1.00  0.00    -0.248 NA
ATOM     87  C   UNL A   1      37.190  33.843  33.335  1.00  0.00    -0.034 C 
ATOM     88  C   UNL A   1      37.653  31.094  29.139  1.00  0.00    -0.036 A 
ATOM     89  N   UNL A   1      39.045  30.690  30.840  1.00  0.00    -0.354 N 
ATOM     90  C   UNL A   1      39.014  33.000  34.431  1.00  0.00     0.074 A 
ATOM     91  C   UNL A   1      37.914  33.940  34.441  1.00  0.00    -0.034 C 
ATOM     92  H   UNL A   1      36.313  34.331  33.088  1.00  0.00     0.065 H 
ATOM     93  C   UNL A   1      38.383  30.014  28.818  1.00  0.00    -0.036 A 
ATOM     94  H   UNL A   1      36.940  31.533  28.537  1.00  0.00     0.065 H 
ATOM     95  C   UNL A   1      39.346  29.749  29.884  1.00  0.00     0.049 A 
ATOM     96  H   UNL A   1      39.512  30.745  31.705  1.00  0.00     0.167 HD
ATOM     97  C   UNL A   1      39.866  32.817  35.472  1.00  0.00     0.037 A 
ATOM     98  H   UNL A   1      37.718  34.599  35.210  1.00  0.00     0.065 H 
ATOM     99  H   UNL A   1      38.279  29.459  27.954  1.00  0.00     0.065 H 
ATOM    100  C   UNL A   1      40.303  28.798  29.841  1.00  0.00     0.037 A 
ATOM    101  C   UNL A   1      40.934  31.849  35.505  1.00  0.00     0.049 A 
ATOM    102  C   UNL A   1      41.284  28.662  30.975  1.00  0.00     0.074 A 
ATOM    103  C   UNL A   1      41.834  31.595  36.528  1.00  0.00    -0.036 A 
ATOM    104  N   UNL A   1      41.238  30.966  34.482  1.00  0.00    -0.354 N 
ATOM    105  N   UNL A   1      41.329  29.307  32.114  1.00  0.00    -0.248 NA
ATOM    106  C   UNL A   1      42.361  27.673  30.807  1.00  0.00    -0.034 C 
ATOM    107  C   UNL A   1      42.710  30.591  36.107  1.00  0.00    -0.036 A 
ATOM    108  H   UNL A   1      41.854  32.069  37.445  1.00  0.00     0.065 H 
ATOM    109  C   UNL A   1      42.322  30.180  34.843  1.00  0.00     0.049 A 
ATOM    110  H   UNL A   1      40.756  30.905  33.625  1.00  0.00     0.167 HD
ATOM    111  C   UNL A   1      42.422  28.793  32.801  1.00  0.00     0.074 A 
ATOM    112  C   UNL A   1      43.003  27.769  31.963  1.00  0.00    -0.034 C 
ATOM    113  H   UNL A   1      42.564  27.064  29.998  1.00  0.00     0.065 H 
ATOM    114  H   UNL A   1      43.507  30.218  36.647  1.00  0.00     0.065 H 
ATOM    115  C   UNL A   1      42.900  29.151  34.018  1.00  0.00     0.037 A 
ATOM    116  H   UNL A   1      43.814  27.186  32.230  1.00  0.00     0.065 H 
BRANCH  97 117
ATOM    117  C   UNL A   1      39.692  33.688  36.686  1.00  0.00     0.064 A 
ATOM    118  C   UNL A   1      40.275  34.960  36.771  1.00  0.00     0.173 A 
ATOM    119  C   UNL A   1      38.861  33.277  37.741  1.00  0.00     0.173 A 
ATOM    120  F   UNL A   1      41.084  35.399  35.796  1.00  0.00    -0.203 F 
ATOM    121  C   UNL A   1      40.048  35.780  37.875  1.00  0.00     0.198 A 
ATOM    122  C   UNL A   1      38.611  34.112  38.827  1.00  0.00     0.198 A 
ATOM    123  F   UNL A   1      38.266  32.075  37.705  1.00  0.00    -0.203 F 
ATOM    124  F   UNL A   1      40.646  36.978  37.951  1.00  0.00    -0.200 F 
ATOM    125  C   UNL A   1      39.209  35.360  38.896  1.00  0.00     0.200 A 
ATOM    126  F   UNL A   1      37.783  33.712  39.803  1.00  0.00    -0.200 F 
ATOM    127  F   UNL A   1      38.977  36.159  39.946  1.00  0.00    -0.200 F 
ENDBRANCH  97 117
BRANCH 100 128
ATOM    128  C   UNL A   1      40.394  27.897  28.661  1.00  0.00     0.064 A 
ATOM    129  C   UNL A   1      41.148  28.261  27.536  1.00  0.00     0.173 A 
ATOM    130  C   UNL A   1      39.740  26.657  28.633  1.00  0.00     0.173 A 
ATOM    131  F   UNL A   1      41.763  29.451  27.499  1.00  0.00    -0.203 F 
ATOM    132  C   UNL A   1      41.245  27.417  26.431  1.00  0.00     0.198 A 
ATOM    133  C   UNL A   1      39.865  25.799  27.542  1.00  0.00     0.198 A 
ATOM    134  F   UNL A   1      38.997  26.265  29.679  1.00  0.00    -0.203 F 
ATOM    135  F   UNL A   1      41.943  27.804  25.354  1.00  0.00    -0.200 F 
ATOM    136  C   UNL A   1      40.613  26.183  26.439  1.00  0.00     0.200 A 
ATOM    137  F   UNL A   1      39.265  24.602  27.560  1.00  0.00    -0.200 F 
ATOM    138  F   UNL A   1      40.722  25.363  25.384  1.00  0.00    -0.200 F 
ENDBRANCH 100 128
BRANCH 115 139
ATOM    139  C   UNL A   1      44.100  28.417  34.547  1.00  0.00     0.064 A 
ATOM    140  C   UNL A   1      43.971  27.218  35.263  1.00  0.00     0.173 A 
ATOM    141  C   UNL A   1      45.397  28.881  34.276  1.00  0.00     0.173 A 
ATOM    142  F   UNL A   1      42.754  26.738  35.561  1.00  0.00    -0.203 F 
ATOM    143  C   UNL A   1      45.093  26.520  35.702  1.00  0.00     0.198 A 
ATOM    144  C   UNL A   1      46.518  28.165  34.691  1.00  0.00     0.198 A 
ATOM    145  F   UNL A   1      45.578  30.018  33.588  1.00  0.00    -0.203 F 
ATOM    146  F   UNL A   1      44.944  25.395  36.416  1.00  0.00    -0.200 F 
ATOM    147  C   UNL A   1      46.365  26.988  35.407  1.00  0.00     0.200 A 
ATOM    148  F   UNL A   1      47.746  28.611  34.390  1.00  0.00    -0.200 F 
ATOM    149  F   UNL A   1      47.444  26.306  35.816  1.00  0.00    -0.200 F 
ENDBRANCH 115 139
ENDBRANCH  80  83
ENDBRANCH  70  73
ENDBRANCH  66  69
ENDBRANCH  63  66
ENDBRANCH  60  63
ENDBRANCH  57  60
ENDBRANCH   1  57
TORSDOF 21
ENDMDL
MODEL 6
REMARK VINA RESULT:     -11.9      3.496      7.459
REMARK SMILES CC(C)(C)c1cc(Nc2ccccc2C(=O)NCCCCCCNC(=O)c2ccc(-c3c4nc(c(-c5c(F)c(F)c(F)c(F)c5F)c5ccc([nH]5)c(-c5c(F)c(F)c(F)c(F)c5F)c5nc(c(-c6c(F)c(F)c(F)c(F)c6F)c6ccc3[nH]6)C=C5)C=C4)cc2)cc2c1OCC2(C)C
REMARK SMILES IDX 19 1 18 4 17 7 15 8 16 9 14 11 9 12 10 13 11 14 13 16 12 17
REMARK SMILES IDX 8 21 7 23 5 24 6 25 92 26 91 28 93 29 90 30 95 31 94 32 2 36
REMARK SMILES IDX 1 37 3 41 4 45 96 49 97 53 20 57 21 60 22 63 23 66 24 69
REMARK SMILES IDX 25 70 26 72 27 73 28 74 89 75 29 76 88 78 30 80 31 83 32 84
REMARK SMILES IDX 82 85 33 86 87 87 81 88 83 89 34 90 86 91 80 93 79 95 35 97
REMARK SMILES IDX 67 100 47 101 66 102 48 103 51 104 65 105 84 106 49 107
REMARK SMILES IDX 50 109 64 111 85 112 52 115 36 117 37 118 45 119 38 120
REMARK SMILES IDX 39 121 43 122 46 123 40 124 41 125 44 126 42 127 68 128
REMARK SMILES IDX 69 129 77 130 70 131 71 132 75 133 78 134 72 135 73 136
REMARK SMILES IDX 76 137 74 138 53 139 54 140 62 141 55 142 56 143 60 144
REMARK SMILES IDX 63 145 57 146 58 147 61 148 59 149
REMARK H PARENT 19 2 19 3 18 5 18 6 17 10 10 15 11 18 13 19 12 20 8 22 6 27
REMARK H PARENT 90 33 94 34 94 35 1 38 1 39 1 40 3 42 3 43 3 44 4 46 4 47 4 48
REMARK H PARENT 96 50 96 51 96 52 97 54 97 55 97 56 20 58 20 59 21 61 21 62
REMARK H PARENT 22 64 22 65 23 67 23 68 24 71 28 77 89 79 29 81 88 82 87 92
REMARK H PARENT 81 94 83 96 86 98 80 99 48 108 51 110 84 113 49 114 85 116
REMARK Flexibility Score: inf
ROOT
ATOM      1  C   UNL A   1      34.148  26.498  24.212  1.00  0.00    -0.036 C 
ATOM      2  H   UNL A   1      35.207  26.626  24.302  1.00  0.00     0.028 H 
ATOM      3  H   UNL A   1      33.797  25.573  23.806  1.00  0.00     0.028 H 
ENDROOT
BRANCH   1   4
ATOM      4  C   UNL A   1      33.665  27.532  23.201  1.00  0.00     0.018 C 
ATOM      5  H   UNL A   1      33.069  28.246  23.732  1.00  0.00     0.049 H 
ATOM      6  H   UNL A   1      34.559  27.922  22.761  1.00  0.00     0.049 H 
BRANCH   4   7
ATOM      7  N   UNL A   1      32.886  27.061  22.091  1.00  0.00    -0.352 N 
ATOM      8  C   UNL A   1      31.736  26.304  22.063  1.00  0.00     0.253 C 
ATOM      9  O   UNL A   1      31.266  26.096  20.936  1.00  0.00    -0.269 OA
ATOM     10  H   UNL A   1      33.230  27.320  21.206  1.00  0.00     0.163 HD
BRANCH   8  11
ATOM     11  C   UNL A   1      31.032  25.664  23.234  1.00  0.00     0.063 A 
ATOM     12  C   UNL A   1      31.050  24.326  23.687  1.00  0.00     0.051 A 
ATOM     13  C   UNL A   1      30.412  24.014  24.917  1.00  0.00    -0.038 A 
ATOM     14  C   UNL A   1      29.698  24.955  25.651  1.00  0.00    -0.060 A 
ATOM     15  H   UNL A   1      30.481  23.050  25.281  1.00  0.00     0.064 H 
ATOM     16  C   UNL A   1      30.301  26.603  24.009  1.00  0.00    -0.047 A 
ATOM     17  C   UNL A   1      29.626  26.254  25.184  1.00  0.00    -0.061 A 
ATOM     18  H   UNL A   1      29.228  24.687  26.530  1.00  0.00     0.062 H 
ATOM     19  H   UNL A   1      30.265  27.585  23.691  1.00  0.00     0.063 H 
ATOM     20  H   UNL A   1      29.079  26.962  25.699  1.00  0.00     0.062 H 
BRANCH  12  21
ATOM     21  N   UNL A   1      31.563  23.220  22.974  1.00  0.00    -0.355 N 
ATOM     22  H   UNL A   1      31.128  22.992  22.120  1.00  0.00     0.167 HD
BRANCH  21  23
ATOM     23  C   UNL A   1      32.653  22.410  23.386  1.00  0.00     0.039 A 
ATOM     24  C   UNL A   1      33.515  20.177  24.041  1.00  0.00     0.002 A 
ATOM     25  C   UNL A   1      32.519  21.006  23.459  1.00  0.00    -0.031 A 
ATOM     26  C   UNL A   1      34.670  20.821  24.482  1.00  0.00     0.127 A 
ATOM     27  H   UNL A   1      31.667  20.567  23.075  1.00  0.00     0.065 H 
ATOM     28  C   UNL A   1      34.840  22.185  24.381  1.00  0.00     0.006 A 
ATOM     29  O   UNL A   1      35.714  20.202  25.115  1.00  0.00    -0.492 OA
ATOM     30  C   UNL A   1      33.845  22.983  23.850  1.00  0.00    -0.031 A 
ATOM     31  C   UNL A   1      36.156  22.600  24.937  1.00  0.00     0.028 C 
ATOM     32  C   UNL A   1      36.692  21.227  25.386  1.00  0.00     0.097 C 
ATOM     33  H   UNL A   1      33.979  24.005  23.796  1.00  0.00     0.065 H 
ATOM     34  H   UNL A   1      37.593  21.007  24.853  1.00  0.00     0.072 H 
ATOM     35  H   UNL A   1      36.889  21.254  26.437  1.00  0.00     0.072 H 
BRANCH  24  36
ATOM     36  C   UNL A   1      33.273  18.694  24.357  1.00  0.00    -0.009 C 
BRANCH  36  37
ATOM     37  C   UNL A   1      32.712  18.428  25.772  1.00  0.00    -0.056 C 
ATOM     38  H   UNL A   1      33.027  17.462  26.105  1.00  0.00     0.024 H 
ATOM     39  H   UNL A   1      31.642  18.465  25.744  1.00  0.00     0.024 H 
ATOM     40  H   UNL A   1      33.077  19.174  26.446  1.00  0.00     0.024 H 
ENDBRANCH  36  37
BRANCH  36  41
ATOM     41  C   UNL A   1      34.548  17.832  24.231  1.00  0.00    -0.056 C 
ATOM     42  H   UNL A   1      35.343  18.427  23.832  1.00  0.00     0.024 H 
ATOM     43  H   UNL A   1      34.358  17.007  23.578  1.00  0.00     0.024 H 
ATOM     44  H   UNL A   1      34.827  17.466  25.197  1.00  0.00     0.024 H 
ENDBRANCH  36  41
BRANCH  36  45
ATOM     45  C   UNL A   1      32.221  18.227  23.334  1.00  0.00    -0.056 C 
ATOM     46  H   UNL A   1      32.543  17.311  22.885  1.00  0.00     0.024 H 
ATOM     47  H   UNL A   1      32.105  18.973  22.577  1.00  0.00     0.024 H 
ATOM     48  H   UNL A   1      31.286  18.073  23.830  1.00  0.00     0.024 H 
ENDBRANCH  36  45
ENDBRANCH  24  36
BRANCH  31  49
ATOM     49  C   UNL A   1      37.028  23.214  23.839  1.00  0.00    -0.052 C 
ATOM     50  H   UNL A   1      36.984  24.281  23.903  1.00  0.00     0.024 H 
ATOM     51  H   UNL A   1      36.670  22.899  22.881  1.00  0.00     0.024 H 
ATOM     52  H   UNL A   1      38.040  22.891  23.966  1.00  0.00     0.024 H 
ENDBRANCH  31  49
BRANCH  31  53
ATOM     53  C   UNL A   1      36.018  23.557  26.123  1.00  0.00    -0.052 C 
ATOM     54  H   UNL A   1      35.182  23.263  26.724  1.00  0.00     0.024 H 
ATOM     55  H   UNL A   1      35.864  24.553  25.761  1.00  0.00     0.024 H 
ATOM     56  H   UNL A   1      36.911  23.527  26.713  1.00  0.00     0.024 H 
ENDBRANCH  31  53
ENDBRANCH  21  23
ENDBRANCH  12  21
ENDBRANCH   8  11
ENDBRANCH   4   7
ENDBRANCH   1   4
BRANCH   1  57
ATOM     57  C   UNL A   1      33.582  26.495  25.634  1.00  0.00    -0.052 C 
ATOM     58  H   UNL A   1      34.395  26.260  26.290  1.00  0.00     0.027 H 
ATOM     59  H   UNL A   1      32.779  25.790  25.580  1.00  0.00     0.027 H 
BRANCH  57  60
ATOM     60  C   UNL A   1      32.912  27.755  26.192  1.00  0.00    -0.052 C 
ATOM     61  H   UNL A   1      31.968  27.457  26.596  1.00  0.00     0.027 H 
ATOM     62  H   UNL A   1      32.879  28.424  25.358  1.00  0.00     0.027 H 
BRANCH  60  63
ATOM     63  C   UNL A   1      33.637  28.551  27.279  1.00  0.00    -0.036 C 
ATOM     64  H   UNL A   1      34.520  28.004  27.540  1.00  0.00     0.028 H 
ATOM     65  H   UNL A   1      32.911  28.661  28.058  1.00  0.00     0.028 H 
BRANCH  63  66
ATOM     66  C   UNL A   1      34.070  29.984  26.957  1.00  0.00     0.018 C 
ATOM     67  H   UNL A   1      33.442  30.345  26.169  1.00  0.00     0.049 H 
ATOM     68  H   UNL A   1      35.106  29.921  26.701  1.00  0.00     0.049 H 
BRANCH  66  69
ATOM     69  N   UNL A   1      33.996  30.934  28.051  1.00  0.00    -0.352 N 
ATOM     70  C   UNL A   1      34.944  31.257  29.008  1.00  0.00     0.251 C 
ATOM     71  H   UNL A   1      33.144  31.422  28.126  1.00  0.00     0.163 HD
ATOM     72  O   UNL A   1      34.714  32.140  29.821  1.00  0.00    -0.269 OA
BRANCH  70  73
ATOM     73  C   UNL A   1      36.222  30.500  29.108  1.00  0.00     0.039 A 
ATOM     74  C   UNL A   1      36.448  29.553  30.101  1.00  0.00    -0.049 A 
ATOM     75  C   UNL A   1      37.224  30.741  28.163  1.00  0.00    -0.049 A 
ATOM     76  C   UNL A   1      37.730  29.009  30.276  1.00  0.00    -0.053 A 
ATOM     77  H   UNL A   1      35.673  29.251  30.711  1.00  0.00     0.063 H 
ATOM     78  C   UNL A   1      38.484  30.133  28.294  1.00  0.00    -0.053 A 
ATOM     79  H   UNL A   1      37.037  31.369  27.366  1.00  0.00     0.063 H 
ATOM     80  C   UNL A   1      38.785  29.318  29.398  1.00  0.00    -0.014 A 
ATOM     81  H   UNL A   1      37.902  28.367  31.065  1.00  0.00     0.063 H 
ATOM     82  H   UNL A   1      39.200  30.287  27.567  1.00  0.00     0.063 H 
BRANCH  80  83
ATOM     83  C   UNL A   1      40.196  28.866  29.663  1.00  0.00     0.031 A 
ATOM     84  C   UNL A   1      41.102  29.668  30.578  1.00  0.00     0.074 A 
ATOM     85  C   UNL A   1      40.690  27.728  29.129  1.00  0.00     0.049 A 
ATOM     86  N   UNL A   1      42.385  29.523  30.824  1.00  0.00    -0.248 NA
ATOM     87  C   UNL A   1      40.487  30.786  31.310  1.00  0.00    -0.034 C 
ATOM     88  C   UNL A   1      39.952  26.804  28.271  1.00  0.00    -0.036 A 
ATOM     89  N   UNL A   1      41.936  27.148  29.242  1.00  0.00    -0.354 N 
ATOM     90  C   UNL A   1      42.732  30.551  31.695  1.00  0.00     0.074 A 
ATOM     91  C   UNL A   1      41.532  31.328  31.919  1.00  0.00    -0.034 C 
ATOM     92  H   UNL A   1      39.496  31.073  31.342  1.00  0.00     0.065 H 
ATOM     93  C   UNL A   1      40.733  25.752  27.980  1.00  0.00    -0.036 A 
ATOM     94  H   UNL A   1      38.983  26.937  27.941  1.00  0.00     0.065 H 
ATOM     95  C   UNL A   1      42.061  25.965  28.552  1.00  0.00     0.049 A 
ATOM     96  H   UNL A   1      42.668  27.544  29.767  1.00  0.00     0.167 HD
ATOM     97  C   UNL A   1      43.930  30.821  32.272  1.00  0.00     0.037 A 
ATOM     98  H   UNL A   1      41.495  32.193  32.480  1.00  0.00     0.065 H 
ATOM     99  H   UNL A   1      40.443  24.924  27.438  1.00  0.00     0.065 H 
ATOM    100  C   UNL A   1      43.122  25.152  28.365  1.00  0.00     0.037 A 
ATOM    101  C   UNL A   1      45.124  30.029  32.107  1.00  0.00     0.049 A 
ATOM    102  C   UNL A   1      44.461  25.510  28.953  1.00  0.00     0.074 A 
ATOM    103  C   UNL A   1      46.375  30.231  32.666  1.00  0.00    -0.036 A 
ATOM    104  N   UNL A   1      45.213  28.876  31.342  1.00  0.00    -0.354 N 
ATOM    105  N   UNL A   1      44.783  26.513  29.732  1.00  0.00    -0.248 NA
ATOM    106  C   UNL A   1      45.592  24.629  28.617  1.00  0.00    -0.034 C 
ATOM    107  C   UNL A   1      47.233  29.229  32.205  1.00  0.00    -0.036 A 
ATOM    108  H   UNL A   1      46.630  30.994  33.313  1.00  0.00     0.065 H 
ATOM    109  C   UNL A   1      46.503  28.369  31.402  1.00  0.00     0.049 A 
ATOM    110  H   UNL A   1      44.471  28.477  30.833  1.00  0.00     0.167 HD
ATOM    111  C   UNL A   1      46.141  26.374  29.991  1.00  0.00     0.074 A 
ATOM    112  C   UNL A   1      46.582  25.180  29.305  1.00  0.00    -0.034 C 
ATOM    113  H   UNL A   1      45.608  23.798  28.005  1.00  0.00     0.065 H 
ATOM    114  H   UNL A   1      48.238  29.143  32.427  1.00  0.00     0.065 H 
ATOM    115  C   UNL A   1      46.947  27.176  30.729  1.00  0.00     0.037 A 
ATOM    116  H   UNL A   1      47.543  24.805  29.346  1.00  0.00     0.065 H 
BRANCH  97 117
ATOM    117  C   UNL A   1      44.033  32.040  33.147  1.00  0.00     0.064 A 
ATOM    118  C   UNL A   1      44.349  33.301  32.622  1.00  0.00     0.173 A 
ATOM    119  C   UNL A   1      43.726  31.958  34.516  1.00  0.00     0.173 A 
ATOM    120  F   UNL A   1      44.657  33.434  31.324  1.00  0.00    -0.203 F 
ATOM    121  C   UNL A   1      44.373  34.431  33.437  1.00  0.00     0.198 A 
ATOM    122  C   UNL A   1      43.719  33.095  35.320  1.00  0.00     0.198 A 
ATOM    123  F   UNL A   1      43.402  30.779  35.068  1.00  0.00    -0.203 F 
ATOM    124  F   UNL A   1      44.714  35.620  32.920  1.00  0.00    -0.200 F 
ATOM    125  C   UNL A   1      44.049  34.329  34.782  1.00  0.00     0.200 A 
ATOM    126  F   UNL A   1      43.386  32.998  36.615  1.00  0.00    -0.200 F 
ATOM    127  F   UNL A   1      44.053  35.421  35.558  1.00  0.00    -0.200 F 
ENDBRANCH  97 117
BRANCH 100 128
ATOM    128  C   UNL A   1      42.965  23.909  27.563  1.00  0.00     0.064 A 
ATOM    129  C   UNL A   1      42.533  22.717  28.164  1.00  0.00     0.173 A 
ATOM    130  C   UNL A   1      43.234  23.884  26.187  1.00  0.00     0.173 A 
ATOM    131  F   UNL A   1      42.297  22.679  29.483  1.00  0.00    -0.203 F 
ATOM    132  C   UNL A   1      42.375  21.551  27.417  1.00  0.00     0.198 A 
ATOM    133  C   UNL A   1      43.044  22.727  25.435  1.00  0.00     0.198 A 
ATOM    134  F   UNL A   1      43.660  24.994  25.566  1.00  0.00    -0.203 F 
ATOM    135  F   UNL A   1      41.995  20.417  28.021  1.00  0.00    -0.200 F 
ATOM    136  C   UNL A   1      42.619  21.560  26.052  1.00  0.00     0.200 A 
ATOM    137  F   UNL A   1      43.267  22.744  24.115  1.00  0.00    -0.200 F 
ATOM    138  F   UNL A   1      42.449  20.443  25.330  1.00  0.00    -0.200 F 
ENDBRANCH 100 128
BRANCH 115 139
ATOM    139  C   UNL A   1      48.391  26.787  30.869  1.00  0.00     0.064 A 
ATOM    140  C   UNL A   1      48.818  25.889  31.858  1.00  0.00     0.173 A 
ATOM    141  C   UNL A   1      49.349  27.263  29.960  1.00  0.00     0.173 A 
ATOM    142  F   UNL A   1      47.946  25.414  32.760  1.00  0.00    -0.203 F 
ATOM    143  C   UNL A   1      50.152  25.495  31.942  1.00  0.00     0.198 A 
ATOM    144  C   UNL A   1      50.676  26.845  30.029  1.00  0.00     0.198 A 
ATOM    145  F   UNL A   1      48.994  28.118  28.989  1.00  0.00    -0.203 F 
ATOM    146  F   UNL A   1      50.543  24.663  32.918  1.00  0.00    -0.200 F 
ATOM    147  C   UNL A   1      51.077  25.965  31.022  1.00  0.00     0.200 A 
ATOM    148  F   UNL A   1      51.566  27.288  29.129  1.00  0.00    -0.200 F 
ATOM    149  F   UNL A   1      52.356  25.572  31.096  1.00  0.00    -0.200 F 
ENDBRANCH 115 139
ENDBRANCH  80  83
ENDBRANCH  70  73
ENDBRANCH  66  69
ENDBRANCH  63  66
ENDBRANCH  60  63
ENDBRANCH  57  60
ENDBRANCH   1  57
TORSDOF 21
ENDMDL
MODEL 7
REMARK VINA RESULT:     -11.9      2.757      7.405
REMARK SMILES CC(C)(C)c1cc(Nc2ccccc2C(=O)NCCCCCCNC(=O)c2ccc(-c3c4nc(c(-c5c(F)c(F)c(F)c(F)c5F)c5ccc([nH]5)c(-c5c(F)c(F)c(F)c(F)c5F)c5nc(c(-c6c(F)c(F)c(F)c(F)c6F)c6ccc3[nH]6)C=C5)C=C4)cc2)cc2c1OCC2(C)C
REMARK SMILES IDX 19 1 18 4 17 7 15 8 16 9 14 11 9 12 10 13 11 14 13 16 12 17
REMARK SMILES IDX 8 21 7 23 5 24 6 25 92 26 91 28 93 29 90 30 95 31 94 32 2 36
REMARK SMILES IDX 1 37 3 41 4 45 96 49 97 53 20 57 21 60 22 63 23 66 24 69
REMARK SMILES IDX 25 70 26 72 27 73 28 74 89 75 29 76 88 78 30 80 31 83 32 84
REMARK SMILES IDX 82 85 33 86 87 87 81 88 83 89 34 90 86 91 80 93 79 95 35 97
REMARK SMILES IDX 67 100 47 101 66 102 48 103 51 104 65 105 84 106 49 107
REMARK SMILES IDX 50 109 64 111 85 112 52 115 36 117 37 118 45 119 38 120
REMARK SMILES IDX 39 121 43 122 46 123 40 124 41 125 44 126 42 127 68 128
REMARK SMILES IDX 69 129 77 130 70 131 71 132 75 133 78 134 72 135 73 136
REMARK SMILES IDX 76 137 74 138 53 139 54 140 62 141 55 142 56 143 60 144
REMARK SMILES IDX 63 145 57 146 58 147 61 148 59 149
REMARK H PARENT 19 2 19 3 18 5 18 6 17 10 10 15 11 18 13 19 12 20 8 22 6 27
REMARK H PARENT 90 33 94 34 94 35 1 38 1 39 1 40 3 42 3 43 3 44 4 46 4 47 4 48
REMARK H PARENT 96 50 96 51 96 52 97 54 97 55 97 56 20 58 20 59 21 61 21 62
REMARK H PARENT 22 64 22 65 23 67 23 68 24 71 28 77 89 79 29 81 88 82 87 92
REMARK H PARENT 81 94 83 96 86 98 80 99 48 108 51 110 84 113 49 114 85 116
REMARK Flexibility Score: inf
ROOT
ATOM      1  C   UNL A   1      33.955  23.545  26.580  1.00  0.00    -0.036 C 
ATOM      2  H   UNL A   1      33.707  22.699  25.973  1.00  0.00     0.028 H 
ATOM      3  H   UNL A   1      34.640  23.390  27.387  1.00  0.00     0.028 H 
ENDROOT
BRANCH   1   4
ATOM      4  C   UNL A   1      32.671  23.969  27.287  1.00  0.00     0.018 C 
ATOM      5  H   UNL A   1      32.880  24.004  28.336  1.00  0.00     0.049 H 
ATOM      6  H   UNL A   1      32.412  24.907  26.841  1.00  0.00     0.049 H 
BRANCH   4   7
ATOM      7  N   UNL A   1      31.511  23.143  27.105  1.00  0.00    -0.352 N 
ATOM      8  C   UNL A   1      30.958  22.617  25.959  1.00  0.00     0.253 C 
ATOM      9  O   UNL A   1      29.968  21.894  26.133  1.00  0.00    -0.269 OA
ATOM     10  H   UNL A   1      31.032  22.917  27.935  1.00  0.00     0.163 HD
BRANCH   8  11
ATOM     11  C   UNL A   1      31.388  22.871  24.535  1.00  0.00     0.063 A 
ATOM     12  C   UNL A   1      31.056  23.929  23.659  1.00  0.00     0.051 A 
ATOM     13  C   UNL A   1      31.723  24.012  22.407  1.00  0.00    -0.038 A 
ATOM     14  C   UNL A   1      32.627  23.046  21.974  1.00  0.00    -0.060 A 
ATOM     15  H   UNL A   1      31.530  24.819  21.795  1.00  0.00     0.064 H 
ATOM     16  C   UNL A   1      32.319  21.906  24.067  1.00  0.00    -0.047 A 
ATOM     17  C   UNL A   1      32.912  21.978  22.802  1.00  0.00    -0.061 A 
ATOM     18  H   UNL A   1      33.076  23.128  21.048  1.00  0.00     0.062 H 
ATOM     19  H   UNL A   1      32.568  21.119  24.686  1.00  0.00     0.063 H 
ATOM     20  H   UNL A   1      33.559  21.237  22.489  1.00  0.00     0.062 H 
BRANCH  12  21
ATOM     21  N   UNL A   1      30.030  24.878  23.862  1.00  0.00    -0.355 N 
ATOM     22  H   UNL A   1      29.102  24.571  23.747  1.00  0.00     0.167 HD
BRANCH  21  23
ATOM     23  C   UNL A   1      30.228  26.238  24.217  1.00  0.00     0.039 A 
ATOM     24  C   UNL A   1      29.779  28.639  23.775  1.00  0.00     0.002 A 
ATOM     25  C   UNL A   1      29.485  27.261  23.588  1.00  0.00    -0.031 A 
ATOM     26  C   UNL A   1      30.807  28.931  24.670  1.00  0.00     0.127 A 
ATOM     27  H   UNL A   1      28.700  26.999  22.971  1.00  0.00     0.065 H 
ATOM     28  C   UNL A   1      31.516  27.950  25.328  1.00  0.00     0.006 A 
ATOM     29  O   UNL A   1      31.269  30.190  24.941  1.00  0.00    -0.492 OA
ATOM     30  C   UNL A   1      31.246  26.613  25.104  1.00  0.00    -0.031 A 
ATOM     31  C   UNL A   1      32.556  28.545  26.210  1.00  0.00     0.028 C 
ATOM     32  C   UNL A   1      32.319  30.039  25.918  1.00  0.00     0.097 C 
ATOM     33  H   UNL A   1      31.796  25.889  25.591  1.00  0.00     0.065 H 
ATOM     34  H   UNL A   1      32.036  30.535  26.823  1.00  0.00     0.072 H 
ATOM     35  H   UNL A   1      33.220  30.469  25.535  1.00  0.00     0.072 H 
BRANCH  24  36
ATOM     36  C   UNL A   1      29.155  29.741  22.908  1.00  0.00    -0.009 C 
BRANCH  36  37
ATOM     37  C   UNL A   1      29.959  30.079  21.632  1.00  0.00    -0.056 C 
ATOM     38  H   UNL A   1      30.594  30.918  21.823  1.00  0.00     0.024 H 
ATOM     39  H   UNL A   1      29.282  30.317  20.838  1.00  0.00     0.024 H 
ATOM     40  H   UNL A   1      30.555  29.236  21.353  1.00  0.00     0.024 H 
ENDBRANCH  36  37
BRANCH  36  41
ATOM     41  C   UNL A   1      28.968  31.073  23.665  1.00  0.00    -0.056 C 
ATOM     42  H   UNL A   1      28.520  30.884  24.618  1.00  0.00     0.024 H 
ATOM     43  H   UNL A   1      28.336  31.722  23.095  1.00  0.00     0.024 H 
ATOM     44  H   UNL A   1      29.922  31.539  23.806  1.00  0.00     0.024 H 
ENDBRANCH  36  41
BRANCH  36  45
ATOM     45  C   UNL A   1      27.785  29.189  22.473  1.00  0.00    -0.056 C 
ATOM     46  H   UNL A   1      27.344  29.851  21.758  1.00  0.00     0.024 H 
ATOM     47  H   UNL A   1      27.145  29.110  23.327  1.00  0.00     0.024 H 
ATOM     48  H   UNL A   1      27.913  28.222  22.033  1.00  0.00     0.024 H 
ENDBRANCH  36  45
ENDBRANCH  24  36
BRANCH  31  49
ATOM     49  C   UNL A   1      32.271  28.203  27.674  1.00  0.00    -0.052 C 
ATOM     50  H   UNL A   1      31.214  28.210  27.843  1.00  0.00     0.024 H 
ATOM     51  H   UNL A   1      32.738  28.928  28.307  1.00  0.00     0.024 H 
ATOM     52  H   UNL A   1      32.661  27.232  27.895  1.00  0.00     0.024 H 
ENDBRANCH  31  49
BRANCH  31  53
ATOM     53  C   UNL A   1      33.974  28.121  25.817  1.00  0.00    -0.052 C 
ATOM     54  H   UNL A   1      34.302  27.331  26.461  1.00  0.00     0.024 H 
ATOM     55  H   UNL A   1      34.635  28.956  25.912  1.00  0.00     0.024 H 
ATOM     56  H   UNL A   1      33.976  27.778  24.803  1.00  0.00     0.024 H 
ENDBRANCH  31  53
ENDBRANCH  21  23
ENDBRANCH  12  21
ENDBRANCH   8  11
ENDBRANCH   4   7
ENDBRANCH   1   4
BRANCH   1  57
ATOM     57  C   UNL A   1      34.694  24.535  25.677  1.00  0.00    -0.052 C 
ATOM     58  H   UNL A   1      35.482  24.961  26.264  1.00  0.00     0.027 H 
ATOM     59  H   UNL A   1      33.919  25.195  25.345  1.00  0.00     0.027 H 
BRANCH  57  60
ATOM     60  C   UNL A   1      35.328  24.049  24.370  1.00  0.00    -0.052 C 
ATOM     61  H   UNL A   1      35.546  24.916  23.783  1.00  0.00     0.027 H 
ATOM     62  H   UNL A   1      34.605  23.373  23.964  1.00  0.00     0.027 H 
BRANCH  60  63
ATOM     63  C   UNL A   1      36.612  23.219  24.442  1.00  0.00    -0.036 C 
ATOM     64  H   UNL A   1      37.315  23.659  23.764  1.00  0.00     0.028 H 
ATOM     65  H   UNL A   1      36.300  22.223  24.207  1.00  0.00     0.028 H 
BRANCH  63  66
ATOM     66  C   UNL A   1      37.312  23.088  25.799  1.00  0.00     0.018 C 
ATOM     67  H   UNL A   1      36.700  22.469  26.421  1.00  0.00     0.049 H 
ATOM     68  H   UNL A   1      37.434  24.089  26.156  1.00  0.00     0.049 H 
BRANCH  66  69
ATOM     69  N   UNL A   1      38.644  22.516  25.777  1.00  0.00    -0.352 N 
ATOM     70  C   UNL A   1      39.829  23.014  26.294  1.00  0.00     0.251 C 
ATOM     71  H   UNL A   1      38.718  21.644  25.328  1.00  0.00     0.163 HD
ATOM     72  O   UNL A   1      40.850  22.347  26.229  1.00  0.00    -0.269 OA
BRANCH  70  73
ATOM     73  C   UNL A   1      39.899  24.384  26.871  1.00  0.00     0.039 A 
ATOM     74  C   UNL A   1      40.381  25.471  26.149  1.00  0.00    -0.049 A 
ATOM     75  C   UNL A   1      39.452  24.588  28.180  1.00  0.00    -0.049 A 
ATOM     76  C   UNL A   1      40.611  26.697  26.792  1.00  0.00    -0.053 A 
ATOM     77  H   UNL A   1      40.571  25.376  25.139  1.00  0.00     0.063 H 
ATOM     78  C   UNL A   1      39.610  25.840  28.798  1.00  0.00    -0.053 A 
ATOM     79  H   UNL A   1      39.004  23.814  28.695  1.00  0.00     0.063 H 
ATOM     80  C   UNL A   1      40.267  26.895  28.142  1.00  0.00    -0.014 A 
ATOM     81  H   UNL A   1      41.042  27.471  26.263  1.00  0.00     0.063 H 
ATOM     82  H   UNL A   1      39.239  25.987  29.750  1.00  0.00     0.063 H 
BRANCH  80  83
ATOM     83  C   UNL A   1      40.647  28.148  28.883  1.00  0.00     0.031 A 
ATOM     84  C   UNL A   1      42.083  28.378  29.319  1.00  0.00     0.074 A 
ATOM     85  C   UNL A   1      39.745  29.116  29.155  1.00  0.00     0.049 A 
ATOM     86  N   UNL A   1      42.585  29.321  30.083  1.00  0.00    -0.248 NA
ATOM     87  C   UNL A   1      43.086  27.416  28.837  1.00  0.00    -0.034 C 
ATOM     88  C   UNL A   1      38.336  29.094  28.769  1.00  0.00    -0.036 A 
ATOM     89  N   UNL A   1      39.887  30.318  29.814  1.00  0.00    -0.354 N 
ATOM     90  C   UNL A   1      43.942  29.039  30.206  1.00  0.00     0.074 A 
ATOM     91  C   UNL A   1      44.183  27.824  29.459  1.00  0.00    -0.034 C 
ATOM     92  H   UNL A   1      42.966  26.627  28.182  1.00  0.00     0.065 H 
ATOM     93  C   UNL A   1      37.757  30.244  29.147  1.00  0.00    -0.036 A 
ATOM     94  H   UNL A   1      37.861  28.318  28.283  1.00  0.00     0.065 H 
ATOM     95  C   UNL A   1      38.726  31.052  29.885  1.00  0.00     0.049 A 
ATOM     96  H   UNL A   1      40.740  30.623  30.200  1.00  0.00     0.167 HD
ATOM     97  C   UNL A   1      44.907  29.729  30.865  1.00  0.00     0.037 A 
ATOM     98  H   UNL A   1      45.092  27.337  29.415  1.00  0.00     0.065 H 
ATOM     99  H   UNL A   1      36.782  30.515  28.949  1.00  0.00     0.065 H 
ATOM    100  C   UNL A   1      38.450  32.223  30.496  1.00  0.00     0.037 A 
ATOM    101  C   UNL A   1      44.700  30.970  31.570  1.00  0.00     0.049 A 
ATOM    102  C   UNL A   1      39.517  32.934  31.284  1.00  0.00     0.074 A 
ATOM    103  C   UNL A   1      45.630  31.736  32.254  1.00  0.00    -0.036 A 
ATOM    104  N   UNL A   1      43.489  31.637  31.667  1.00  0.00    -0.354 N 
ATOM    105  N   UNL A   1      40.782  32.627  31.433  1.00  0.00    -0.248 NA
ATOM    106  C   UNL A   1      39.110  34.150  32.007  1.00  0.00    -0.034 C 
ATOM    107  C   UNL A   1      44.974  32.841  32.804  1.00  0.00    -0.036 A 
ATOM    108  H   UNL A   1      46.636  31.526  32.344  1.00  0.00     0.065 H 
ATOM    109  C   UNL A   1      43.646  32.794  32.415  1.00  0.00     0.049 A 
ATOM    110  H   UNL A   1      42.643  31.334  31.264  1.00  0.00     0.167 HD
ATOM    111  C   UNL A   1      41.322  33.614  32.248  1.00  0.00     0.074 A 
ATOM    112  C   UNL A   1      40.255  34.544  32.547  1.00  0.00    -0.034 C 
ATOM    113  H   UNL A   1      38.175  34.583  32.077  1.00  0.00     0.065 H 
ATOM    114  H   UNL A   1      45.405  33.569  33.396  1.00  0.00     0.065 H 
ATOM    115  C   UNL A   1      42.591  33.729  32.709  1.00  0.00     0.037 A 
ATOM    116  H   UNL A   1      40.371  35.403  33.108  1.00  0.00     0.065 H 
BRANCH  97 117
ATOM    117  C   UNL A   1      46.300  29.162  30.872  1.00  0.00     0.064 A 
ATOM    118  C   UNL A   1      46.720  28.248  31.849  1.00  0.00     0.173 A 
ATOM    119  C   UNL A   1      47.197  29.472  29.836  1.00  0.00     0.173 A 
ATOM    120  F   UNL A   1      45.907  27.922  32.863  1.00  0.00    -0.203 F 
ATOM    121  C   UNL A   1      47.992  27.681  31.800  1.00  0.00     0.198 A 
ATOM    122  C   UNL A   1      48.456  28.879  29.773  1.00  0.00     0.198 A 
ATOM    123  F   UNL A   1      46.842  30.329  28.867  1.00  0.00    -0.203 F 
ATOM    124  F   UNL A   1      48.386  26.838  32.766  1.00  0.00    -0.200 F 
ATOM    125  C   UNL A   1      48.855  27.989  30.758  1.00  0.00     0.200 A 
ATOM    126  F   UNL A   1      49.279  29.163  28.754  1.00  0.00    -0.200 F 
ATOM    127  F   UNL A   1      50.070  27.427  30.703  1.00  0.00    -0.200 F 
ENDBRANCH  97 117
BRANCH 100 128
ATOM    128  C   UNL A   1      37.082  32.800  30.399  1.00  0.00     0.064 A 
ATOM    129  C   UNL A   1      36.712  33.590  29.300  1.00  0.00     0.173 A 
ATOM    130  C   UNL A   1      36.117  32.570  31.390  1.00  0.00     0.173 A 
ATOM    131  F   UNL A   1      37.609  33.868  28.344  1.00  0.00    -0.203 F 
ATOM    132  C   UNL A   1      35.429  34.125  29.199  1.00  0.00     0.198 A 
ATOM    133  C   UNL A   1      34.825  33.077  31.271  1.00  0.00     0.198 A 
ATOM    134  F   UNL A   1      36.422  31.829  32.466  1.00  0.00    -0.203 F 
ATOM    135  F   UNL A   1      35.112  34.907  28.157  1.00  0.00    -0.200 F 
ATOM    136  C   UNL A   1      34.483  33.859  30.177  1.00  0.00     0.200 A 
ATOM    137  F   UNL A   1      33.911  32.806  32.211  1.00  0.00    -0.200 F 
ATOM    138  F   UNL A   1      33.244  34.359  30.070  1.00  0.00    -0.200 F 
ENDBRANCH 100 128
BRANCH 115 139
ATOM    139  C   UNL A   1      42.924  34.916  33.569  1.00  0.00     0.064 A 
ATOM    140  C   UNL A   1      43.257  36.158  33.009  1.00  0.00     0.173 A 
ATOM    141  C   UNL A   1      42.841  34.829  34.967  1.00  0.00     0.173 A 
ATOM    142  F   UNL A   1      43.362  36.292  31.679  1.00  0.00    -0.203 F 
ATOM    143  C   UNL A   1      43.510  37.264  33.817  1.00  0.00     0.198 A 
ATOM    144  C   UNL A   1      43.067  35.944  35.772  1.00  0.00     0.198 A 
ATOM    145  F   UNL A   1      42.519  33.667  35.555  1.00  0.00    -0.203 F 
ATOM    146  F   UNL A   1      43.862  38.432  33.261  1.00  0.00    -0.200 F 
ATOM    147  C   UNL A   1      43.405  37.159  35.196  1.00  0.00     0.200 A 
ATOM    148  F   UNL A   1      42.949  35.843  37.103  1.00  0.00    -0.200 F 
ATOM    149  F   UNL A   1      43.634  38.228  35.971  1.00  0.00    -0.200 F 
ENDBRANCH 115 139
ENDBRANCH  80  83
ENDBRANCH  70  73
ENDBRANCH  66  69
ENDBRANCH  63  66
ENDBRANCH  60  63
ENDBRANCH  57  60
ENDBRANCH   1  57
TORSDOF 21
ENDMDL
MODEL 8
REMARK VINA RESULT:     -11.9      1.637      2.909
REMARK SMILES CC(C)(C)c1cc(Nc2ccccc2C(=O)NCCCCCCNC(=O)c2ccc(-c3c4nc(c(-c5c(F)c(F)c(F)c(F)c5F)c5ccc([nH]5)c(-c5c(F)c(F)c(F)c(F)c5F)c5nc(c(-c6c(F)c(F)c(F)c(F)c6F)c6ccc3[nH]6)C=C5)C=C4)cc2)cc2c1OCC2(C)C
REMARK SMILES IDX 19 1 18 4 17 7 15 8 16 9 14 11 9 12 10 13 11 14 13 16 12 17
REMARK SMILES IDX 8 21 7 23 5 24 6 25 92 26 91 28 93 29 90 30 95 31 94 32 2 36
REMARK SMILES IDX 1 37 3 41 4 45 96 49 97 53 20 57 21 60 22 63 23 66 24 69
REMARK SMILES IDX 25 70 26 72 27 73 28 74 89 75 29 76 88 78 30 80 31 83 32 84
REMARK SMILES IDX 82 85 33 86 87 87 81 88 83 89 34 90 86 91 80 93 79 95 35 97
REMARK SMILES IDX 67 100 47 101 66 102 48 103 51 104 65 105 84 106 49 107
REMARK SMILES IDX 50 109 64 111 85 112 52 115 36 117 37 118 45 119 38 120
REMARK SMILES IDX 39 121 43 122 46 123 40 124 41 125 44 126 42 127 68 128
REMARK SMILES IDX 69 129 77 130 70 131 71 132 75 133 78 134 72 135 73 136
REMARK SMILES IDX 76 137 74 138 53 139 54 140 62 141 55 142 56 143 60 144
REMARK SMILES IDX 63 145 57 146 58 147 61 148 59 149
REMARK H PARENT 19 2 19 3 18 5 18 6 17 10 10 15 11 18 13 19 12 20 8 22 6 27
REMARK H PARENT 90 33 94 34 94 35 1 38 1 39 1 40 3 42 3 43 3 44 4 46 4 47 4 48
REMARK H PARENT 96 50 96 51 96 52 97 54 97 55 97 56 20 58 20 59 21 61 21 62
REMARK H PARENT 22 64 22 65 23 67 23 68 24 71 28 77 89 79 29 81 88 82 87 92
REMARK H PARENT 81 94 83 96 86 98 80 99 48 108 51 110 84 113 49 114 85 116
REMARK Flexibility Score: inf
ROOT
ATOM      1  C   UNL A   1      34.723  23.175  26.788  1.00  0.00    -0.036 C 
ATOM      2  H   UNL A   1      34.917  24.025  27.408  1.00  0.00     0.028 H 
ATOM      3  H   UNL A   1      34.185  23.342  25.878  1.00  0.00     0.028 H 
ENDROOT
BRANCH   1   4
ATOM      4  C   UNL A   1      33.799  22.255  27.579  1.00  0.00     0.018 C 
ATOM      5  H   UNL A   1      33.766  21.317  27.066  1.00  0.00     0.049 H 
ATOM      6  H   UNL A   1      34.222  22.224  28.561  1.00  0.00     0.049 H 
BRANCH   4   7
ATOM      7  N   UNL A   1      32.444  22.687  27.777  1.00  0.00    -0.352 N 
ATOM      8  C   UNL A   1      31.424  22.875  26.871  1.00  0.00     0.253 C 
ATOM      9  O   UNL A   1      30.338  23.211  27.360  1.00  0.00    -0.269 OA
ATOM     10  H   UNL A   1      32.206  22.880  28.712  1.00  0.00     0.163 HD
BRANCH   8  11
ATOM     11  C   UNL A   1      31.504  22.772  25.368  1.00  0.00     0.063 A 
ATOM     12  C   UNL A   1      30.967  23.612  24.368  1.00  0.00     0.051 A 
ATOM     13  C   UNL A   1      31.318  23.371  23.013  1.00  0.00    -0.038 A 
ATOM     14  C   UNL A   1      32.102  22.289  22.623  1.00  0.00    -0.060 A 
ATOM     15  H   UNL A   1      30.979  24.023  22.288  1.00  0.00     0.064 H 
ATOM     16  C   UNL A   1      32.306  21.681  24.939  1.00  0.00    -0.047 A 
ATOM     17  C   UNL A   1      32.583  21.429  23.591  1.00  0.00    -0.061 A 
ATOM     18  H   UNL A   1      32.319  22.133  21.626  1.00  0.00     0.062 H 
ATOM     19  H   UNL A   1      32.700  21.047  25.652  1.00  0.00     0.063 H 
ATOM     20  H   UNL A   1      33.144  20.605  23.321  1.00  0.00     0.062 H 
BRANCH  12  21
ATOM     21  N   UNL A   1      30.010  24.631  24.572  1.00  0.00    -0.355 N 
ATOM     22  H   UNL A   1      29.063  24.363  24.599  1.00  0.00     0.167 HD
BRANCH  21  23
ATOM     23  C   UNL A   1      30.302  26.010  24.742  1.00  0.00     0.039 A 
ATOM     24  C   UNL A   1      29.955  28.361  24.026  1.00  0.00     0.002 A 
ATOM     25  C   UNL A   1      29.577  26.991  24.030  1.00  0.00    -0.031 A 
ATOM     26  C   UNL A   1      31.051  28.698  24.820  1.00  0.00     0.127 A 
ATOM     27  H   UNL A   1      28.743  26.703  23.494  1.00  0.00     0.065 H 
ATOM     28  C   UNL A   1      31.745  27.763  25.557  1.00  0.00     0.006 A 
ATOM     29  O   UNL A   1      31.595  29.950  24.904  1.00  0.00    -0.492 OA
ATOM     30  C   UNL A   1      31.390  26.428  25.518  1.00  0.00    -0.031 A 
ATOM     31  C   UNL A   1      32.868  28.398  26.299  1.00  0.00     0.028 C 
ATOM     32  C   UNL A   1      32.693  29.856  25.835  1.00  0.00     0.097 C 
ATOM     33  H   UNL A   1      31.930  25.737  26.062  1.00  0.00     0.065 H 
ATOM     34  H   UNL A   1      32.493  30.477  26.684  1.00  0.00     0.072 H 
ATOM     35  H   UNL A   1      33.591  30.180  25.352  1.00  0.00     0.072 H 
BRANCH  24  36
ATOM     36  C   UNL A   1      29.339  29.384  23.062  1.00  0.00    -0.009 C 
BRANCH  36  37
ATOM     37  C   UNL A   1      29.111  30.782  23.678  1.00  0.00    -0.056 C 
ATOM     38  H   UNL A   1      29.188  31.526  22.914  1.00  0.00     0.024 H 
ATOM     39  H   UNL A   1      29.852  30.965  24.430  1.00  0.00     0.024 H 
ATOM     40  H   UNL A   1      28.137  30.823  24.120  1.00  0.00     0.024 H 
ENDBRANCH  36  37
BRANCH  36  41
ATOM     41  C   UNL A   1      27.975  28.936  22.495  1.00  0.00    -0.056 C 
ATOM     42  H   UNL A   1      28.015  27.896  22.245  1.00  0.00     0.024 H 
ATOM     43  H   UNL A   1      27.748  29.506  21.618  1.00  0.00     0.024 H 
ATOM     44  H   UNL A   1      27.213  29.096  23.231  1.00  0.00     0.024 H 
ENDBRANCH  36  41
BRANCH  36  45
ATOM     45  C   UNL A   1      30.359  29.530  21.918  1.00  0.00    -0.056 C 
ATOM     46  H   UNL A   1      30.366  30.543  21.573  1.00  0.00     0.024 H 
ATOM     47  H   UNL A   1      30.087  28.882  21.112  1.00  0.00     0.024 H 
ATOM     48  H   UNL A   1      31.334  29.268  22.273  1.00  0.00     0.024 H 
ENDBRANCH  36  45
ENDBRANCH  24  36
BRANCH  31  49
ATOM     49  C   UNL A   1      32.655  28.257  27.808  1.00  0.00    -0.052 C 
ATOM     50  H   UNL A   1      31.693  27.824  27.994  1.00  0.00     0.024 H 
ATOM     51  H   UNL A   1      32.707  29.221  28.268  1.00  0.00     0.024 H 
ATOM     52  H   UNL A   1      33.415  27.624  28.217  1.00  0.00     0.024 H 
ENDBRANCH  31  49
BRANCH  31  53
ATOM     53  C   UNL A   1      34.233  27.843  25.887  1.00  0.00    -0.052 C 
ATOM     54  H   UNL A   1      34.209  26.773  25.920  1.00  0.00     0.024 H 
ATOM     55  H   UNL A   1      34.983  28.203  26.561  1.00  0.00     0.024 H 
ATOM     56  H   UNL A   1      34.465  28.165  24.892  1.00  0.00     0.024 H 
ENDBRANCH  31  53
ENDBRANCH  21  23
ENDBRANCH  12  21
ENDBRANCH   8  11
ENDBRANCH   4   7
ENDBRANCH   1   4
BRANCH   1  57
ATOM     57  C   UNL A   1      36.082  22.664  26.303  1.00  0.00    -0.052 C 
ATOM     58  H   UNL A   1      36.537  22.161  27.132  1.00  0.00     0.027 H 
ATOM     59  H   UNL A   1      36.565  23.548  25.942  1.00  0.00     0.027 H 
BRANCH  57  60
ATOM     60  C   UNL A   1      36.155  21.706  25.109  1.00  0.00    -0.052 C 
ATOM     61  H   UNL A   1      35.756  22.226  24.264  1.00  0.00     0.027 H 
ATOM     62  H   UNL A   1      35.613  20.843  25.433  1.00  0.00     0.027 H 
BRANCH  60  63
ATOM     63  C   UNL A   1      37.520  21.154  24.695  1.00  0.00    -0.036 C 
ATOM     64  H   UNL A   1      37.913  21.806  23.941  1.00  0.00     0.028 H 
ATOM     65  H   UNL A   1      37.319  20.150  24.382  1.00  0.00     0.028 H 
BRANCH  63  66
ATOM     66  C   UNL A   1      38.597  21.007  25.773  1.00  0.00     0.018 C 
ATOM     67  H   UNL A   1      38.103  20.944  26.720  1.00  0.00     0.049 H 
ATOM     68  H   UNL A   1      39.232  21.861  25.663  1.00  0.00     0.049 H 
BRANCH  66  69
ATOM     69  N   UNL A   1      39.470  19.855  25.652  1.00  0.00    -0.352 N 
ATOM     70  C   UNL A   1      40.807  19.718  25.988  1.00  0.00     0.251 C 
ATOM     71  H   UNL A   1      39.050  19.050  25.274  1.00  0.00     0.163 HD
ATOM     72  O   UNL A   1      41.358  18.634  25.867  1.00  0.00    -0.269 OA
BRANCH  70  73
ATOM     73  C   UNL A   1      41.609  20.889  26.436  1.00  0.00     0.039 A 
ATOM     74  C   UNL A   1      41.896  21.125  27.776  1.00  0.00    -0.049 A 
ATOM     75  C   UNL A   1      42.102  21.776  25.474  1.00  0.00    -0.049 A 
ATOM     76  C   UNL A   1      42.484  22.337  28.168  1.00  0.00    -0.053 A 
ATOM     77  H   UNL A   1      41.675  20.407  28.485  1.00  0.00     0.063 H 
ATOM     78  C   UNL A   1      42.762  22.953  25.865  1.00  0.00    -0.053 A 
ATOM     79  H   UNL A   1      41.980  21.564  24.471  1.00  0.00     0.063 H 
ATOM     80  C   UNL A   1      42.893  23.294  27.222  1.00  0.00    -0.014 A 
ATOM     81  H   UNL A   1      42.619  22.531  29.172  1.00  0.00     0.063 H 
ATOM     82  H   UNL A   1      43.157  23.577  25.144  1.00  0.00     0.063 H 
BRANCH  80  83
ATOM     83  C   UNL A   1      43.381  24.658  27.631  1.00  0.00     0.031 A 
ATOM     84  C   UNL A   1      42.396  25.733  28.051  1.00  0.00     0.074 A 
ATOM     85  C   UNL A   1      44.697  24.960  27.672  1.00  0.00     0.049 A 
ATOM     86  N   UNL A   1      42.603  27.006  28.305  1.00  0.00    -0.248 NA
ATOM     87  C   UNL A   1      40.990  25.326  28.198  1.00  0.00    -0.034 C 
ATOM     88  C   UNL A   1      45.788  24.042  27.356  1.00  0.00    -0.036 A 
ATOM     89  N   UNL A   1      45.341  26.131  28.011  1.00  0.00    -0.354 N 
ATOM     90  C   UNL A   1      41.356  27.551  28.595  1.00  0.00     0.074 A 
ATOM     91  C   UNL A   1      40.393  26.480  28.463  1.00  0.00    -0.034 C 
ATOM     92  H   UNL A   1      40.576  24.384  28.117  1.00  0.00     0.065 H 
ATOM     93  C   UNL A   1      46.961  24.660  27.565  1.00  0.00    -0.036 A 
ATOM     94  H   UNL A   1      45.676  23.071  27.025  1.00  0.00     0.065 H 
ATOM     95  C   UNL A   1      46.712  26.050  27.943  1.00  0.00     0.049 A 
ATOM     96  H   UNL A   1      44.864  26.950  28.276  1.00  0.00     0.167 HD
ATOM     97  C   UNL A   1      41.036  28.820  28.953  1.00  0.00     0.037 A 
ATOM     98  H   UNL A   1      39.373  26.598  28.562  1.00  0.00     0.065 H 
ATOM     99  H   UNL A   1      47.891  24.224  27.474  1.00  0.00     0.065 H 
ATOM    100  C   UNL A   1      47.669  26.983  28.127  1.00  0.00     0.037 A 
ATOM    101  C   UNL A   1      41.984  29.889  29.144  1.00  0.00     0.049 A 
ATOM    102  C   UNL A   1      47.287  28.403  28.451  1.00  0.00     0.074 A 
ATOM    103  C   UNL A   1      41.739  31.201  29.517  1.00  0.00    -0.036 A 
ATOM    104  N   UNL A   1      43.357  29.769  28.997  1.00  0.00    -0.354 N 
ATOM    105  N   UNL A   1      46.100  28.913  28.670  1.00  0.00    -0.248 NA
ATOM    106  C   UNL A   1      48.381  29.384  28.534  1.00  0.00    -0.034 C 
ATOM    107  C   UNL A   1      42.956  31.886  29.550  1.00  0.00    -0.036 A 
ATOM    108  H   UNL A   1      40.813  31.604  29.732  1.00  0.00     0.065 H 
ATOM    109  C   UNL A   1      43.967  30.989  29.253  1.00  0.00     0.049 A 
ATOM    110  H   UNL A   1      43.829  28.942  28.747  1.00  0.00     0.167 HD
ATOM    111  C   UNL A   1      46.306  30.262  28.932  1.00  0.00     0.074 A 
ATOM    112  C   UNL A   1      47.732  30.491  28.865  1.00  0.00    -0.034 C 
ATOM    113  H   UNL A   1      49.392  29.245  28.374  1.00  0.00     0.065 H 
ATOM    114  H   UNL A   1      43.081  32.889  29.763  1.00  0.00     0.065 H 
ATOM    115  C   UNL A   1      45.387  31.222  29.197  1.00  0.00     0.037 A 
ATOM    116  H   UNL A   1      48.187  31.400  29.051  1.00  0.00     0.065 H 
BRANCH  97 117
ATOM    117  C   UNL A   1      39.583  29.148  29.164  1.00  0.00     0.064 A 
ATOM    118  C   UNL A   1      38.738  29.477  28.093  1.00  0.00     0.173 A 
ATOM    119  C   UNL A   1      39.011  29.046  30.443  1.00  0.00     0.173 A 
ATOM    120  F   UNL A   1      39.234  29.595  26.854  1.00  0.00    -0.203 F 
ATOM    121  C   UNL A   1      37.380  29.712  28.299  1.00  0.00     0.198 A 
ATOM    122  C   UNL A   1      37.647  29.249  30.639  1.00  0.00     0.198 A 
ATOM    123  F   UNL A   1      39.770  28.720  31.499  1.00  0.00    -0.203 F 
ATOM    124  F   UNL A   1      36.599  30.062  27.267  1.00  0.00    -0.200 F 
ATOM    125  C   UNL A   1      36.834  29.588  29.568  1.00  0.00     0.200 A 
ATOM    126  F   UNL A   1      37.118  29.109  31.862  1.00  0.00    -0.200 F 
ATOM    127  F   UNL A   1      35.524  29.794  29.759  1.00  0.00    -0.200 F 
ENDBRANCH  97 117
BRANCH 100 128
ATOM    128  C   UNL A   1      49.102  26.606  27.994  1.00  0.00     0.064 A 
ATOM    129  C   UNL A   1      49.695  26.472  26.730  1.00  0.00     0.173 A 
ATOM    130  C   UNL A   1      49.908  26.380  29.119  1.00  0.00     0.173 A 
ATOM    131  F   UNL A   1      48.957  26.643  25.624  1.00  0.00    -0.203 F 
ATOM    132  C   UNL A   1      51.038  26.127  26.599  1.00  0.00     0.198 A 
ATOM    133  C   UNL A   1      51.260  26.069  28.987  1.00  0.00     0.198 A 
ATOM    134  F   UNL A   1      49.388  26.485  30.351  1.00  0.00    -0.203 F 
ATOM    135  F   UNL A   1      51.572  25.970  25.379  1.00  0.00    -0.200 F 
ATOM    136  C   UNL A   1      51.823  25.938  27.727  1.00  0.00     0.200 A 
ATOM    137  F   UNL A   1      52.016  25.900  30.080  1.00  0.00    -0.200 F 
ATOM    138  F   UNL A   1      53.120  25.625  27.600  1.00  0.00    -0.200 F 
ENDBRANCH 100 128
BRANCH 115 139
ATOM    139  C   UNL A   1      45.881  32.615  29.467  1.00  0.00     0.064 A 
ATOM    140  C   UNL A   1      46.267  33.023  30.751  1.00  0.00     0.173 A 
ATOM    141  C   UNL A   1      46.036  33.533  28.415  1.00  0.00     0.173 A 
ATOM    142  F   UNL A   1      46.127  32.190  31.794  1.00  0.00    -0.203 F 
ATOM    143  C   UNL A   1      46.774  34.301  30.978  1.00  0.00     0.198 A 
ATOM    144  C   UNL A   1      46.570  34.800  28.639  1.00  0.00     0.198 A 
ATOM    145  F   UNL A   1      45.690  33.193  27.164  1.00  0.00    -0.203 F 
ATOM    146  F   UNL A   1      47.102  34.680  32.220  1.00  0.00    -0.200 F 
ATOM    147  C   UNL A   1      46.934  35.184  29.920  1.00  0.00     0.200 A 
ATOM    148  F   UNL A   1      46.739  35.646  27.613  1.00  0.00    -0.200 F 
ATOM    149  F   UNL A   1      47.437  36.407  30.137  1.00  0.00    -0.200 F 
ENDBRANCH 115 139
ENDBRANCH  80  83
ENDBRANCH  70  73
ENDBRANCH  66  69
ENDBRANCH  63  66
ENDBRANCH  60  63
ENDBRANCH  57  60
ENDBRANCH   1  57
TORSDOF 21
ENDMDL
MODEL 9
REMARK VINA RESULT:     -11.9      0.554      2.379
REMARK SMILES CC(C)(C)c1cc(Nc2ccccc2C(=O)NCCCCCCNC(=O)c2ccc(-c3c4nc(c(-c5c(F)c(F)c(F)c(F)c5F)c5ccc([nH]5)c(-c5c(F)c(F)c(F)c(F)c5F)c5nc(c(-c6c(F)c(F)c(F)c(F)c6F)c6ccc3[nH]6)C=C5)C=C4)cc2)cc2c1OCC2(C)C
REMARK SMILES IDX 19 1 18 4 17 7 15 8 16 9 14 11 9 12 10 13 11 14 13 16 12 17
REMARK SMILES IDX 8 21 7 23 5 24 6 25 92 26 91 28 93 29 90 30 95 31 94 32 2 36
REMARK SMILES IDX 1 37 3 41 4 45 96 49 97 53 20 57 21 60 22 63 23 66 24 69
REMARK SMILES IDX 25 70 26 72 27 73 28 74 89 75 29 76 88 78 30 80 31 83 32 84
REMARK SMILES IDX 82 85 33 86 87 87 81 88 83 89 34 90 86 91 80 93 79 95 35 97
REMARK SMILES IDX 67 100 47 101 66 102 48 103 51 104 65 105 84 106 49 107
REMARK SMILES IDX 50 109 64 111 85 112 52 115 36 117 37 118 45 119 38 120
REMARK SMILES IDX 39 121 43 122 46 123 40 124 41 125 44 126 42 127 68 128
REMARK SMILES IDX 69 129 77 130 70 131 71 132 75 133 78 134 72 135 73 136
REMARK SMILES IDX 76 137 74 138 53 139 54 140 62 141 55 142 56 143 60 144
REMARK SMILES IDX 63 145 57 146 58 147 61 148 59 149
REMARK H PARENT 19 2 19 3 18 5 18 6 17 10 10 15 11 18 13 19 12 20 8 22 6 27
REMARK H PARENT 90 33 94 34 94 35 1 38 1 39 1 40 3 42 3 43 3 44 4 46 4 47 4 48
REMARK H PARENT 96 50 96 51 96 52 97 54 97 55 97 56 20 58 20 59 21 61 21 62
REMARK H PARENT 22 64 22 65 23 67 23 68 24 71 28 77 89 79 29 81 88 82 87 92
REMARK H PARENT 81 94 83 96 86 98 80 99 48 108 51 110 84 113 49 114 85 116
REMARK Flexibility Score: inf
ROOT
ATOM      1  C   UNL A   1      34.000  23.583  26.641  1.00  0.00    -0.036 C 
ATOM      2  H   UNL A   1      33.719  22.716  26.080  1.00  0.00     0.028 H 
ATOM      3  H   UNL A   1      34.585  23.430  27.524  1.00  0.00     0.028 H 
ENDROOT
BRANCH   1   4
ATOM      4  C   UNL A   1      32.710  24.195  27.178  1.00  0.00     0.018 C 
ATOM      5  H   UNL A   1      32.866  24.417  28.213  1.00  0.00     0.049 H 
ATOM      6  H   UNL A   1      32.529  25.043  26.551  1.00  0.00     0.049 H 
BRANCH   4   7
ATOM      7  N   UNL A   1      31.513  23.407  27.083  1.00  0.00    -0.352 N 
ATOM      8  C   UNL A   1      30.938  22.781  25.999  1.00  0.00     0.253 C 
ATOM      9  O   UNL A   1      29.916  22.127  26.247  1.00  0.00    -0.269 OA
ATOM     10  H   UNL A   1      31.023  23.297  27.930  1.00  0.00     0.163 HD
BRANCH   8  11
ATOM     11  C   UNL A   1      31.381  22.854  24.559  1.00  0.00     0.063 A 
ATOM     12  C   UNL A   1      31.106  23.824  23.570  1.00  0.00     0.051 A 
ATOM     13  C   UNL A   1      31.776  23.733  22.320  1.00  0.00    -0.038 A 
ATOM     14  C   UNL A   1      32.627  22.680  22.001  1.00  0.00    -0.060 A 
ATOM     15  H   UNL A   1      31.626  24.478  21.621  1.00  0.00     0.064 H 
ATOM     16  C   UNL A   1      32.259  21.795  24.205  1.00  0.00    -0.047 A 
ATOM     17  C   UNL A   1      32.855  21.695  22.944  1.00  0.00    -0.061 A 
ATOM     18  H   UNL A   1      33.080  22.635  21.075  1.00  0.00     0.062 H 
ATOM     19  H   UNL A   1      32.466  21.069  24.909  1.00  0.00     0.063 H 
ATOM     20  H   UNL A   1      33.462  20.891  22.718  1.00  0.00     0.062 H 
BRANCH  12  21
ATOM     21  N   UNL A   1      30.132  24.843  23.661  1.00  0.00    -0.355 N 
ATOM     22  H   UNL A   1      29.188  24.573  23.587  1.00  0.00     0.167 HD
BRANCH  21  23
ATOM     23  C   UNL A   1      30.403  26.224  23.850  1.00  0.00     0.039 A 
ATOM     24  C   UNL A   1      31.572  28.006  25.121  1.00  0.00     0.002 A 
ATOM     25  C   UNL A   1      31.396  26.643  24.763  1.00  0.00    -0.031 A 
ATOM     26  C   UNL A   1      30.748  28.923  24.471  1.00  0.00     0.127 A 
ATOM     27  H   UNL A   1      32.016  25.933  25.184  1.00  0.00     0.065 H 
ATOM     28  C   UNL A   1      29.802  28.540  23.544  1.00  0.00     0.006 A 
ATOM     29  O   UNL A   1      30.732  30.269  24.719  1.00  0.00    -0.492 OA
ATOM     30  C   UNL A   1      29.615  27.206  23.237  1.00  0.00    -0.031 A 
ATOM     31  C   UNL A   1      29.063  29.720  23.019  1.00  0.00     0.028 C 
ATOM     32  C   UNL A   1      29.750  30.837  23.828  1.00  0.00     0.097 C 
ATOM     33  H   UNL A   1      28.892  26.932  22.554  1.00  0.00     0.065 H 
ATOM     34  H   UNL A   1      30.231  31.516  23.156  1.00  0.00     0.072 H 
ATOM     35  H   UNL A   1      29.013  31.357  24.403  1.00  0.00     0.072 H 
BRANCH  24  36
ATOM     36  C   UNL A   1      32.463  28.443  26.292  1.00  0.00    -0.009 C 
BRANCH  36  37
ATOM     37  C   UNL A   1      32.876  29.932  26.256  1.00  0.00    -0.056 C 
ATOM     38  H   UNL A   1      32.170  30.511  26.813  1.00  0.00     0.024 H 
ATOM     39  H   UNL A   1      32.894  30.273  25.241  1.00  0.00     0.024 H 
ATOM     40  H   UNL A   1      33.848  30.043  26.687  1.00  0.00     0.024 H 
ENDBRANCH  36  37
BRANCH  36  41
ATOM     41  C   UNL A   1      33.776  27.636  26.387  1.00  0.00    -0.056 C 
ATOM     42  H   UNL A   1      34.605  28.274  26.161  1.00  0.00     0.024 H 
ATOM     43  H   UNL A   1      33.748  26.825  25.690  1.00  0.00     0.024 H 
ATOM     44  H   UNL A   1      33.885  27.249  27.379  1.00  0.00     0.024 H 
ENDBRANCH  36  41
BRANCH  36  45
ATOM     45  C   UNL A   1      31.615  28.216  27.556  1.00  0.00    -0.056 C 
ATOM     46  H   UNL A   1      31.655  27.183  27.832  1.00  0.00     0.024 H 
ATOM     47  H   UNL A   1      30.600  28.493  27.359  1.00  0.00     0.024 H 
ATOM     48  H   UNL A   1      31.999  28.814  28.356  1.00  0.00     0.024 H 
ENDBRANCH  36  45
ENDBRANCH  24  36
BRANCH  31  49
ATOM     49  C   UNL A   1      29.311  29.877  21.517  1.00  0.00    -0.052 C 
ATOM     50  H   UNL A   1      28.597  29.293  20.974  1.00  0.00     0.024 H 
ATOM     51  H   UNL A   1      30.299  29.543  21.281  1.00  0.00     0.024 H 
ATOM     52  H   UNL A   1      29.209  30.907  21.245  1.00  0.00     0.024 H 
ENDBRANCH  31  49
BRANCH  31  53
ATOM     53  C   UNL A   1      27.564  29.657  23.320  1.00  0.00    -0.052 C 
ATOM     54  H   UNL A   1      27.263  28.634  23.423  1.00  0.00     0.024 H 
ATOM     55  H   UNL A   1      27.019  30.109  22.518  1.00  0.00     0.024 H 
ATOM     56  H   UNL A   1      27.359  30.182  24.230  1.00  0.00     0.024 H 
ENDBRANCH  31  53
ENDBRANCH  21  23
ENDBRANCH  12  21
ENDBRANCH   8  11
ENDBRANCH   4   7
ENDBRANCH   1   4
BRANCH   1  57
ATOM     57  C   UNL A   1      34.924  24.410  25.745  1.00  0.00    -0.052 C 
ATOM     58  H   UNL A   1      35.838  24.548  26.286  1.00  0.00     0.027 H 
ATOM     59  H   UNL A   1      34.345  25.284  25.530  1.00  0.00     0.027 H 
BRANCH  57  60
ATOM     60  C   UNL A   1      35.307  23.888  24.356  1.00  0.00    -0.052 C 
ATOM     61  H   UNL A   1      35.829  24.677  23.856  1.00  0.00     0.027 H 
ATOM     62  H   UNL A   1      34.376  23.589  23.924  1.00  0.00     0.027 H 
BRANCH  60  63
ATOM     63  C   UNL A   1      36.181  22.636  24.258  1.00  0.00    -0.036 C 
ATOM     64  H   UNL A   1      37.107  22.928  23.807  1.00  0.00     0.028 H 
ATOM     65  H   UNL A   1      35.590  21.940  23.700  1.00  0.00     0.028 H 
BRANCH  63  66
ATOM     66  C   UNL A   1      36.523  21.891  25.552  1.00  0.00     0.018 C 
ATOM     67  H   UNL A   1      35.653  21.346  25.853  1.00  0.00     0.049 H 
ATOM     68  H   UNL A   1      36.832  22.646  26.244  1.00  0.00     0.049 H 
BRANCH  66  69
ATOM     69  N   UNL A   1      37.628  20.955  25.477  1.00  0.00    -0.352 N 
ATOM     70  C   UNL A   1      38.927  21.081  25.943  1.00  0.00     0.251 C 
ATOM     71  H   UNL A   1      37.426  20.104  25.028  1.00  0.00     0.163 HD
ATOM     72  O   UNL A   1      39.705  20.145  25.837  1.00  0.00    -0.269 OA
BRANCH  70  73
ATOM     73  C   UNL A   1      39.417  22.365  26.514  1.00  0.00     0.039 A 
ATOM     74  C   UNL A   1      38.843  23.590  26.188  1.00  0.00    -0.049 A 
ATOM     75  C   UNL A   1      40.482  22.339  27.418  1.00  0.00    -0.049 A 
ATOM     76  C   UNL A   1      39.456  24.785  26.592  1.00  0.00    -0.053 A 
ATOM     77  H   UNL A   1      37.964  23.619  25.647  1.00  0.00     0.063 H 
ATOM     78  C   UNL A   1      41.047  23.537  27.886  1.00  0.00    -0.053 A 
ATOM     79  H   UNL A   1      40.857  21.433  27.743  1.00  0.00     0.063 H 
ATOM     80  C   UNL A   1      40.595  24.783  27.418  1.00  0.00    -0.014 A 
ATOM     81  H   UNL A   1      39.063  25.686  26.278  1.00  0.00     0.063 H 
ATOM     82  H   UNL A   1      41.806  23.502  28.584  1.00  0.00     0.063 H 
BRANCH  80  83
ATOM     83  C   UNL A   1      41.351  26.046  27.732  1.00  0.00     0.031 A 
ATOM     84  C   UNL A   1      40.716  27.132  28.580  1.00  0.00     0.074 A 
ATOM     85  C   UNL A   1      42.617  26.242  27.304  1.00  0.00     0.049 A 
ATOM     86  N   UNL A   1      41.145  28.345  28.846  1.00  0.00    -0.248 NA
ATOM     87  C   UNL A   1      39.423  26.816  29.206  1.00  0.00    -0.034 C 
ATOM     88  C   UNL A   1      43.406  25.290  26.526  1.00  0.00    -0.036 A 
ATOM     89  N   UNL A   1      43.469  27.312  27.477  1.00  0.00    -0.354 N 
ATOM     90  C   UNL A   1      40.160  28.942  29.627  1.00  0.00     0.074 A 
ATOM     91  C   UNL A   1      39.098  27.970  29.772  1.00  0.00    -0.034 C 
ATOM     92  H   UNL A   1      38.902  25.925  29.204  1.00  0.00     0.065 H 
ATOM     93  C   UNL A   1      44.637  25.789  26.335  1.00  0.00    -0.036 A 
ATOM     94  H   UNL A   1      43.071  24.378  26.178  1.00  0.00     0.065 H 
ATOM     95  C   UNL A   1      44.703  27.137  26.896  1.00  0.00     0.049 A 
ATOM     96  H   UNL A   1      43.218  28.125  27.970  1.00  0.00     0.167 HD
ATOM     97  C   UNL A   1      40.139  30.179  30.186  1.00  0.00     0.037 A 
ATOM     98  H   UNL A   1      38.205  28.151  30.255  1.00  0.00     0.065 H 
ATOM     99  H   UNL A   1      45.414  25.299  25.865  1.00  0.00     0.065 H 
ATOM    100  C   UNL A   1      45.762  27.967  26.789  1.00  0.00     0.037 A 
ATOM    101  C   UNL A   1      41.208  31.143  30.100  1.00  0.00     0.049 A 
ATOM    102  C   UNL A   1      45.689  29.361  27.353  1.00  0.00     0.074 A 
ATOM    103  C   UNL A   1      41.267  32.413  30.649  1.00  0.00    -0.036 A 
ATOM    104  N   UNL A   1      42.410  30.940  29.441  1.00  0.00    -0.354 N 
ATOM    105  N   UNL A   1      44.730  29.928  28.042  1.00  0.00    -0.248 NA
ATOM    106  C   UNL A   1      46.844  30.240  27.104  1.00  0.00    -0.034 C 
ATOM    107  C   UNL A   1      42.483  32.997  30.285  1.00  0.00    -0.036 A 
ATOM    108  H   UNL A   1      40.535  32.855  31.228  1.00  0.00     0.065 H 
ATOM    109  C   UNL A   1      43.207  32.069  29.555  1.00  0.00     0.049 A 
ATOM    110  H   UNL A   1      42.661  30.116  28.963  1.00  0.00     0.167 HD
ATOM    111  C   UNL A   1      45.170  31.215  28.323  1.00  0.00     0.074 A 
ATOM    112  C   UNL A   1      46.491  31.344  27.748  1.00  0.00    -0.034 C 
ATOM    113  H   UNL A   1      47.704  30.046  26.567  1.00  0.00     0.065 H 
ATOM    114  H   UNL A   1      42.790  33.954  30.520  1.00  0.00     0.065 H 
ATOM    115  C   UNL A   1      44.526  32.201  28.993  1.00  0.00     0.037 A 
ATOM    116  H   UNL A   1      47.083  32.187  27.829  1.00  0.00     0.065 H 
BRANCH  97 117
ATOM    117  C   UNL A   1      38.910  30.586  30.951  1.00  0.00     0.064 A 
ATOM    118  C   UNL A   1      38.831  30.454  32.346  1.00  0.00     0.173 A 
ATOM    119  C   UNL A   1      37.831  31.195  30.289  1.00  0.00     0.173 A 
ATOM    120  F   UNL A   1      39.829  29.873  33.026  1.00  0.00    -0.203 F 
ATOM    121  C   UNL A   1      37.711  30.899  33.045  1.00  0.00     0.198 A 
ATOM    122  C   UNL A   1      36.728  31.667  30.995  1.00  0.00     0.198 A 
ATOM    123  F   UNL A   1      37.859  31.359  28.958  1.00  0.00    -0.203 F 
ATOM    124  F   UNL A   1      37.642  30.729  34.373  1.00  0.00    -0.200 F 
ATOM    125  C   UNL A   1      36.666  31.514  32.372  1.00  0.00     0.200 A 
ATOM    126  F   UNL A   1      35.728  32.279  30.345  1.00  0.00    -0.200 F 
ATOM    127  F   UNL A   1      35.599  31.959  33.050  1.00  0.00    -0.200 F 
ENDBRANCH  97 117
BRANCH 100 128
ATOM    128  C   UNL A   1      46.996  27.503  26.099  1.00  0.00     0.064 A 
ATOM    129  C   UNL A   1      47.138  27.643  24.710  1.00  0.00     0.173 A 
ATOM    130  C   UNL A   1      48.057  26.920  26.806  1.00  0.00     0.173 A 
ATOM    131  F   UNL A   1      46.137  28.162  23.984  1.00  0.00    -0.203 F 
ATOM    132  C   UNL A   1      48.294  27.218  24.059  1.00  0.00     0.198 A 
ATOM    133  C   UNL A   1      49.226  26.527  26.159  1.00  0.00     0.198 A 
ATOM    134  F   UNL A   1      47.968  26.753  28.134  1.00  0.00    -0.203 F 
ATOM    135  F   UNL A   1      48.390  27.331  22.727  1.00  0.00    -0.200 F 
ATOM    136  C   UNL A   1      49.342  26.672  24.784  1.00  0.00     0.200 A 
ATOM    137  F   UNL A   1      50.241  26.012  26.865  1.00  0.00    -0.200 F 
ATOM    138  F   UNL A   1      50.461  26.281  24.160  1.00  0.00    -0.200 F 
ENDBRANCH 100 128
BRANCH 115 139
ATOM    139  C   UNL A   1      45.241  33.510  29.178  1.00  0.00     0.064 A 
ATOM    140  C   UNL A   1      46.148  33.711  30.227  1.00  0.00     0.173 A 
ATOM    141  C   UNL A   1      45.068  34.553  28.254  1.00  0.00     0.173 A 
ATOM    142  F   UNL A   1      46.340  32.752  31.146  1.00  0.00    -0.203 F 
ATOM    143  C   UNL A   1      46.844  34.911  30.355  1.00  0.00     0.198 A 
ATOM    144  C   UNL A   1      45.786  35.741  28.367  1.00  0.00     0.198 A 
ATOM    145  F   UNL A   1      44.218  34.412  27.225  1.00  0.00    -0.203 F 
ATOM    146  F   UNL A   1      47.679  35.094  31.388  1.00  0.00    -0.200 F 
ATOM    147  C   UNL A   1      46.670  35.921  29.420  1.00  0.00     0.200 A 
ATOM    148  F   UNL A   1      45.628  36.709  27.453  1.00  0.00    -0.200 F 
ATOM    149  F   UNL A   1      47.352  37.069  29.536  1.00  0.00    -0.200 F 
ENDBRANCH 115 139
ENDBRANCH  80  83
ENDBRANCH  70  73
ENDBRANCH  66  69
ENDBRANCH  63  66
ENDBRANCH  60  63
ENDBRANCH  57  60
ENDBRANCH   1  57
TORSDOF 21
ENDMDL
MODEL 10
REMARK VINA RESULT:     -11.8      4.435      9.990
REMARK SMILES CC(C)(C)c1cc(Nc2ccccc2C(=O)NCCCCCCNC(=O)c2ccc(-c3c4nc(c(-c5c(F)c(F)c(F)c(F)c5F)c5ccc([nH]5)c(-c5c(F)c(F)c(F)c(F)c5F)c5nc(c(-c6c(F)c(F)c(F)c(F)c6F)c6ccc3[nH]6)C=C5)C=C4)cc2)cc2c1OCC2(C)C
REMARK SMILES IDX 19 1 18 4 17 7 15 8 16 9 14 11 9 12 10 13 11 14 13 16 12 17
REMARK SMILES IDX 8 21 7 23 5 24 6 25 92 26 91 28 93 29 90 30 95 31 94 32 2 36
REMARK SMILES IDX 1 37 3 41 4 45 96 49 97 53 20 57 21 60 22 63 23 66 24 69
REMARK SMILES IDX 25 70 26 72 27 73 28 74 89 75 29 76 88 78 30 80 31 83 32 84
REMARK SMILES IDX 82 85 33 86 87 87 81 88 83 89 34 90 86 91 80 93 79 95 35 97
REMARK SMILES IDX 67 100 47 101 66 102 48 103 51 104 65 105 84 106 49 107
REMARK SMILES IDX 50 109 64 111 85 112 52 115 36 117 37 118 45 119 38 120
REMARK SMILES IDX 39 121 43 122 46 123 40 124 41 125 44 126 42 127 68 128
REMARK SMILES IDX 69 129 77 130 70 131 71 132 75 133 78 134 72 135 73 136
REMARK SMILES IDX 76 137 74 138 53 139 54 140 62 141 55 142 56 143 60 144
REMARK SMILES IDX 63 145 57 146 58 147 61 148 59 149
REMARK H PARENT 19 2 19 3 18 5 18 6 17 10 10 15 11 18 13 19 12 20 8 22 6 27
REMARK H PARENT 90 33 94 34 94 35 1 38 1 39 1 40 3 42 3 43 3 44 4 46 4 47 4 48
REMARK H PARENT 96 50 96 51 96 52 97 54 97 55 97 56 20 58 20 59 21 61 21 62
REMARK H PARENT 22 64 22 65 23 67 23 68 24 71 28 77 89 79 29 81 88 82 87 92
REMARK H PARENT 81 94 83 96 86 98 80 99 48 108 51 110 84 113 49 114 85 116
REMARK Flexibility Score: inf
ROOT
ATOM      1  C   UNL A   1      34.192  28.481  24.090  1.00  0.00    -0.036 C 
ATOM      2  H   UNL A   1      35.031  29.146  24.114  1.00  0.00     0.028 H 
ATOM      3  H   UNL A   1      34.394  27.431  24.126  1.00  0.00     0.028 H 
ENDROOT
BRANCH   1   4
ATOM      4  C   UNL A   1      33.528  28.663  22.729  1.00  0.00     0.018 C 
ATOM      5  H   UNL A   1      32.493  28.870  22.903  1.00  0.00     0.049 H 
ATOM      6  H   UNL A   1      34.079  29.452  22.260  1.00  0.00     0.049 H 
BRANCH   4   7
ATOM      7  N   UNL A   1      33.600  27.567  21.804  1.00  0.00    -0.352 N 
ATOM      8  C   UNL A   1      32.816  26.440  21.691  1.00  0.00     0.253 C 
ATOM      9  O   UNL A   1      33.101  25.691  20.747  1.00  0.00    -0.269 OA
ATOM     10  H   UNL A   1      34.328  27.631  21.144  1.00  0.00     0.163 HD
BRANCH   8  11
ATOM     11  C   UNL A   1      31.704  26.003  22.611  1.00  0.00     0.063 A 
ATOM     12  C   UNL A   1      31.343  24.710  23.052  1.00  0.00     0.051 A 
ATOM     13  C   UNL A   1      30.337  24.585  24.047  1.00  0.00    -0.038 A 
ATOM     14  C   UNL A   1      29.633  25.678  24.542  1.00  0.00    -0.060 A 
ATOM     15  H   UNL A   1      30.118  23.646  24.417  1.00  0.00     0.064 H 
ATOM     16  C   UNL A   1      30.972  27.098  23.141  1.00  0.00    -0.047 A 
ATOM     17  C   UNL A   1      29.941  26.940  24.073  1.00  0.00    -0.061 A 
ATOM     18  H   UNL A   1      28.892  25.547  25.250  1.00  0.00     0.062 H 
ATOM     19  H   UNL A   1      31.211  28.051  22.825  1.00  0.00     0.063 H 
ATOM     20  H   UNL A   1      29.413  27.762  24.408  1.00  0.00     0.062 H 
BRANCH  12  21
ATOM     21  N   UNL A   1      31.820  23.492  22.518  1.00  0.00    -0.355 N 
ATOM     22  H   UNL A   1      31.418  23.181  21.674  1.00  0.00     0.167 HD
BRANCH  21  23
ATOM     23  C   UNL A   1      32.830  22.681  23.097  1.00  0.00     0.039 A 
ATOM     24  C   UNL A   1      33.540  20.470  23.974  1.00  0.00     0.002 A 
ATOM     25  C   UNL A   1      32.643  21.288  23.236  1.00  0.00    -0.031 A 
ATOM     26  C   UNL A   1      34.660  21.110  24.504  1.00  0.00     0.127 A 
ATOM     27  H   UNL A   1      31.825  20.849  22.785  1.00  0.00     0.065 H 
ATOM     28  C   UNL A   1      34.885  22.460  24.343  1.00  0.00     0.006 A 
ATOM     29  O   UNL A   1      35.606  20.504  25.285  1.00  0.00    -0.492 OA
ATOM     30  C   UNL A   1      33.981  23.250  23.658  1.00  0.00    -0.031 A 
ATOM     31  C   UNL A   1      36.145  22.874  25.018  1.00  0.00     0.028 C 
ATOM     32  C   UNL A   1      36.582  21.518  25.604  1.00  0.00     0.097 C 
ATOM     33  H   UNL A   1      34.154  24.262  23.560  1.00  0.00     0.065 H 
ATOM     34  H   UNL A   1      37.528  21.242  25.189  1.00  0.00     0.072 H 
ATOM     35  H   UNL A   1      36.662  21.605  26.667  1.00  0.00     0.072 H 
BRANCH  24  36
ATOM     36  C   UNL A   1      33.216  19.017  24.347  1.00  0.00    -0.009 C 
BRANCH  36  37
ATOM     37  C   UNL A   1      32.652  18.837  25.774  1.00  0.00    -0.056 C 
ATOM     38  H   UNL A   1      31.632  19.160  25.798  1.00  0.00     0.024 H 
ATOM     39  H   UNL A   1      33.227  19.423  26.461  1.00  0.00     0.024 H 
ATOM     40  H   UNL A   1      32.706  17.806  26.052  1.00  0.00     0.024 H 
ENDBRANCH  36  37
BRANCH  36  41
ATOM     41  C   UNL A   1      34.438  18.079  24.246  1.00  0.00    -0.056 C 
ATOM     42  H   UNL A   1      34.747  18.003  23.224  1.00  0.00     0.024 H 
ATOM     43  H   UNL A   1      34.175  17.109  24.613  1.00  0.00     0.024 H 
ATOM     44  H   UNL A   1      35.241  18.476  24.832  1.00  0.00     0.024 H 
ENDBRANCH  36  41
BRANCH  36  45
ATOM     45  C   UNL A   1      32.131  18.574  23.348  1.00  0.00    -0.056 C 
ATOM     46  H   UNL A   1      31.961  17.522  23.449  1.00  0.00     0.024 H 
ATOM     47  H   UNL A   1      32.455  18.788  22.352  1.00  0.00     0.024 H 
ATOM     48  H   UNL A   1      31.223  19.103  23.550  1.00  0.00     0.024 H 
ENDBRANCH  36  45
ENDBRANCH  24  36
BRANCH  31  49
ATOM     49  C   UNL A   1      37.152  23.396  23.991  1.00  0.00    -0.052 C 
ATOM     50  H   UNL A   1      36.660  23.543  23.052  1.00  0.00     0.024 H 
ATOM     51  H   UNL A   1      37.942  22.685  23.873  1.00  0.00     0.024 H 
ATOM     52  H   UNL A   1      37.557  24.326  24.330  1.00  0.00     0.024 H 
ENDBRANCH  31  49
BRANCH  31  53
ATOM     53  C   UNL A   1      35.908  23.906  26.123  1.00  0.00    -0.052 C 
ATOM     54  H   UNL A   1      35.173  24.614  25.799  1.00  0.00     0.024 H 
ATOM     55  H   UNL A   1      36.824  24.417  26.336  1.00  0.00     0.024 H 
ATOM     56  H   UNL A   1      35.562  23.412  27.007  1.00  0.00     0.024 H 
ENDBRANCH  31  53
ENDBRANCH  21  23
ENDBRANCH  12  21
ENDBRANCH   8  11
ENDBRANCH   4   7
ENDBRANCH   1   4
BRANCH   1  57
ATOM     57  C   UNL A   1      33.394  28.731  25.371  1.00  0.00    -0.052 C 
ATOM     58  H   UNL A   1      34.098  29.019  26.124  1.00  0.00     0.027 H 
ATOM     59  H   UNL A   1      32.868  27.810  25.519  1.00  0.00     0.027 H 
BRANCH  57  60
ATOM     60  C   UNL A   1      32.278  29.781  25.383  1.00  0.00    -0.052 C 
ATOM     61  H   UNL A   1      31.372  29.280  25.114  1.00  0.00     0.027 H 
ATOM     62  H   UNL A   1      32.621  30.533  24.705  1.00  0.00     0.027 H 
BRANCH  60  63
ATOM     63  C   UNL A   1      32.004  30.545  26.680  1.00  0.00    -0.036 C 
ATOM     64  H   UNL A   1      31.857  29.819  27.453  1.00  0.00     0.028 H 
ATOM     65  H   UNL A   1      31.159  31.162  26.453  1.00  0.00     0.028 H 
BRANCH  63  66
ATOM     66  C   UNL A   1      33.068  31.528  27.177  1.00  0.00     0.018 C 
ATOM     67  H   UNL A   1      33.836  31.581  26.433  1.00  0.00     0.049 H 
ATOM     68  H   UNL A   1      33.395  31.145  28.120  1.00  0.00     0.049 H 
BRANCH  66  69
ATOM     69  N   UNL A   1      32.615  32.881  27.441  1.00  0.00    -0.352 N 
ATOM     70  C   UNL A   1      33.182  33.865  28.234  1.00  0.00     0.251 C 
ATOM     71  H   UNL A   1      31.779  33.137  26.990  1.00  0.00     0.163 HD
ATOM     72  O   UNL A   1      32.676  34.976  28.281  1.00  0.00    -0.269 OA
BRANCH  70  73
ATOM     73  C   UNL A   1      34.366  33.575  29.087  1.00  0.00     0.039 A 
ATOM     74  C   UNL A   1      35.623  34.108  28.820  1.00  0.00    -0.049 A 
ATOM     75  C   UNL A   1      34.208  32.748  30.203  1.00  0.00    -0.049 A 
ATOM     76  C   UNL A   1      36.746  33.655  29.530  1.00  0.00    -0.053 A 
ATOM     77  H   UNL A   1      35.731  34.837  28.097  1.00  0.00     0.063 H 
ATOM     78  C   UNL A   1      35.323  32.358  30.963  1.00  0.00    -0.053 A 
ATOM     79  H   UNL A   1      33.265  32.423  30.470  1.00  0.00     0.063 H 
ATOM     80  C   UNL A   1      36.623  32.740  30.591  1.00  0.00    -0.014 A 
ATOM     81  H   UNL A   1      37.682  34.001  29.268  1.00  0.00     0.063 H 
ATOM     82  H   UNL A   1      35.185  31.782  31.808  1.00  0.00     0.063 H 
BRANCH  80  83
ATOM     83  C   UNL A   1      37.827  32.131  31.258  1.00  0.00     0.031 A 
ATOM     84  C   UNL A   1      38.652  31.078  30.541  1.00  0.00     0.074 A 
ATOM     85  C   UNL A   1      38.232  32.518  32.487  1.00  0.00     0.049 A 
ATOM     86  N   UNL A   1      39.637  30.335  30.993  1.00  0.00    -0.248 NA
ATOM     87  C   UNL A   1      38.321  30.819  29.131  1.00  0.00    -0.034 C 
ATOM     88  C   UNL A   1      37.598  33.550  33.302  1.00  0.00    -0.036 A 
ATOM     89  N   UNL A   1      39.289  32.089  33.262  1.00  0.00    -0.354 N 
ATOM     90  C   UNL A   1      40.007  29.501  29.943  1.00  0.00     0.074 A 
ATOM     91  C   UNL A   1      39.126  29.808  28.837  1.00  0.00    -0.034 C 
ATOM     92  H   UNL A   1      37.637  31.302  28.527  1.00  0.00     0.065 H 
ATOM     93  C   UNL A   1      38.303  33.715  34.433  1.00  0.00    -0.036 A 
ATOM     94  H   UNL A   1      36.744  34.072  33.050  1.00  0.00     0.065 H 
ATOM     95  C   UNL A   1      39.388  32.737  34.471  1.00  0.00     0.049 A 
ATOM     96  H   UNL A   1      39.914  31.384  32.977  1.00  0.00     0.167 HD
ATOM     97  C   UNL A   1      40.995  28.572  29.891  1.00  0.00     0.037 A 
ATOM     98  H   UNL A   1      39.124  29.306  27.937  1.00  0.00     0.065 H 
ATOM     99  H   UNL A   1      38.108  34.420  35.161  1.00  0.00     0.065 H 
ATOM    100  C   UNL A   1      40.228  32.556  35.511  1.00  0.00     0.037 A 
ATOM    101  C   UNL A   1      41.920  28.288  30.960  1.00  0.00     0.049 A 
ATOM    102  C   UNL A   1      41.270  31.470  35.461  1.00  0.00     0.074 A 
ATOM    103  C   UNL A   1      42.956  27.368  30.980  1.00  0.00    -0.036 A 
ATOM    104  N   UNL A   1      41.934  28.928  32.189  1.00  0.00    -0.354 N 
ATOM    105  N   UNL A   1      41.571  30.655  34.480  1.00  0.00    -0.248 NA
ATOM    106  C   UNL A   1      42.077  31.266  36.675  1.00  0.00    -0.034 C 
ATOM    107  C   UNL A   1      43.568  27.419  32.236  1.00  0.00    -0.036 A 
ATOM    108  H   UNL A   1      43.229  26.750  30.200  1.00  0.00     0.065 H 
ATOM    109  C   UNL A   1      42.949  28.409  32.980  1.00  0.00     0.049 A 
ATOM    110  H   UNL A   1      41.315  29.644  32.461  1.00  0.00     0.167 HD
ATOM    111  C   UNL A   1      42.608  29.859  34.950  1.00  0.00     0.074 A 
ATOM    112  C   UNL A   1      42.900  30.298  36.297  1.00  0.00    -0.034 C 
ATOM    113  H   UNL A   1      42.016  31.751  37.584  1.00  0.00     0.065 H 
ATOM    114  H   UNL A   1      44.348  26.822  32.553  1.00  0.00     0.065 H 
ATOM    115  C   UNL A   1      43.252  28.848  34.317  1.00  0.00     0.037 A 
ATOM    116  H   UNL A   1      43.653  29.909  36.887  1.00  0.00     0.065 H 
BRANCH  97 117
ATOM    117  C   UNL A   1      41.143  27.770  28.627  1.00  0.00     0.064 A 
ATOM    118  C   UNL A   1      40.402  26.600  28.404  1.00  0.00     0.173 A 
ATOM    119  C   UNL A   1      41.973  28.226  27.589  1.00  0.00     0.173 A 
ATOM    120  F   UNL A   1      39.600  26.116  29.364  1.00  0.00    -0.203 F 
ATOM    121  C   UNL A   1      40.501  25.907  27.200  1.00  0.00     0.198 A 
ATOM    122  C   UNL A   1      42.045  27.548  26.375  1.00  0.00     0.198 A 
ATOM    123  F   UNL A   1      42.694  29.347  27.743  1.00  0.00    -0.203 F 
ATOM    124  F   UNL A   1      39.812  24.771  27.024  1.00  0.00    -0.200 F 
ATOM    125  C   UNL A   1      41.314  26.386  26.183  1.00  0.00     0.200 A 
ATOM    126  F   UNL A   1      42.816  28.025  25.387  1.00  0.00    -0.200 F 
ATOM    127  F   UNL A   1      41.392  25.728  25.019  1.00  0.00    -0.200 F 
ENDBRANCH  97 117
BRANCH 100 128
ATOM    128  C   UNL A   1      40.110  33.424  36.714  1.00  0.00     0.064 A 
ATOM    129  C   UNL A   1      39.223  33.097  37.750  1.00  0.00     0.173 A 
ATOM    130  C   UNL A   1      40.880  34.587  36.858  1.00  0.00     0.173 A 
ATOM    131  F   UNL A   1      38.439  32.015  37.645  1.00  0.00    -0.203 F 
ATOM    132  C   UNL A   1      39.114  33.901  38.883  1.00  0.00     0.198 A 
ATOM    133  C   UNL A   1      40.795  35.371  38.006  1.00  0.00     0.198 A 
ATOM    134  F   UNL A   1      41.736  34.950  35.891  1.00  0.00    -0.203 F 
ATOM    135  F   UNL A   1      38.233  33.586  39.843  1.00  0.00    -0.200 F 
ATOM    136  C   UNL A   1      39.908  35.030  39.016  1.00  0.00     0.200 A 
ATOM    137  F   UNL A   1      41.573  36.453  38.135  1.00  0.00    -0.200 F 
ATOM    138  F   UNL A   1      39.816  35.793  40.114  1.00  0.00    -0.200 F 
ENDBRANCH 100 128
BRANCH 115 139
ATOM    139  C   UNL A   1      44.363  28.152  35.051  1.00  0.00     0.064 A 
ATOM    140  C   UNL A   1      45.678  28.638  35.025  1.00  0.00     0.173 A 
ATOM    141  C   UNL A   1      44.098  27.025  35.844  1.00  0.00     0.173 A 
ATOM    142  F   UNL A   1      45.989  29.704  34.272  1.00  0.00    -0.203 F 
ATOM    143  C   UNL A   1      46.689  28.013  35.753  1.00  0.00     0.198 A 
ATOM    144  C   UNL A   1      45.104  26.420  36.594  1.00  0.00     0.198 A 
ATOM    145  F   UNL A   1      42.856  26.522  35.912  1.00  0.00    -0.203 F 
ATOM    146  F   UNL A   1      47.945  28.475  35.684  1.00  0.00    -0.200 F 
ATOM    147  C   UNL A   1      46.399  26.912  36.544  1.00  0.00     0.200 A 
ATOM    148  F   UNL A   1      44.818  25.365  37.370  1.00  0.00    -0.200 F 
ATOM    149  F   UNL A   1      47.370  26.322  37.256  1.00  0.00    -0.200 F 
ENDBRANCH 115 139
ENDBRANCH  80  83
ENDBRANCH  70  73
ENDBRANCH  66  69
ENDBRANCH  63  66
ENDBRANCH  60  63
ENDBRANCH  57  60
ENDBRANCH   1  57
TORSDOF 21
ENDMDL
