MODEL 1
REMARK VINA RESULT:     -10.9      0.000      0.000
REMARK SMILES CC(C)(C)OC(=O)N1CCC[C@H]1C(=O)N[C@@H](Cc1ccccc1)C(=O)NCCCCCCNC(=O)c1ccc(-c2c3nc(c(-c4c(F)c(F)c(F)c(F)c4F)c4ccc([nH]4)c(-c4c(F)c(F)c(F)c(F)c4F)c4nc(c(-c5c(F)c(F)c(F)c(F)c5F)c5ccc2[nH]5)C=C4)C=C3)cc1
REMARK SMILES IDX 27 1 26 4 24 5 25 6 16 8 15 10 13 11 14 12 12 14 8 15 9 16
REMARK SMILES IDX 10 17 11 20 6 26 7 27 5 28 2 29 1 30 3 34 4 38 17 42 18 45
REMARK SMILES IDX 19 46 23 47 20 48 22 50 21 52 28 56 29 59 30 62 31 65 32 68
REMARK SMILES IDX 33 71 34 72 35 74 36 75 37 76 98 77 38 78 97 80 39 82 40 85
REMARK SMILES IDX 41 86 91 87 42 88 96 89 90 90 92 91 43 92 95 93 89 95 88 97
REMARK SMILES IDX 44 99 76 102 56 103 75 104 57 105 60 106 74 107 93 108
REMARK SMILES IDX 58 109 59 111 73 113 94 114 61 117 45 119 46 120 54 121
REMARK SMILES IDX 47 122 48 123 52 124 55 125 49 126 50 127 53 128 51 129
REMARK SMILES IDX 77 130 78 131 86 132 79 133 80 134 84 135 87 136 81 137
REMARK SMILES IDX 82 138 85 139 83 140 62 141 63 142 71 143 64 144 65 145
REMARK SMILES IDX 69 146 72 147 66 148 67 149 70 150 68 151
REMARK H PARENT 27 2 27 3 26 7 16 9 15 13 9 18 9 19 12 21 10 22 10 23 11 24
REMARK H PARENT 11 25 1 31 1 32 1 33 3 35 3 36 3 37 4 39 4 40 4 41 17 43 17 44
REMARK H PARENT 19 49 23 51 20 53 22 54 21 55 28 57 28 58 29 60 29 61 30 63
REMARK H PARENT 30 64 31 66 31 67 32 69 32 70 33 73 37 79 98 81 38 83 97 84
REMARK H PARENT 96 94 90 96 92 98 95 100 89 101 57 110 60 112 93 115 58 116
REMARK H PARENT 94 118
REMARK Flexibility Score: inf
ROOT
ATOM      1  C   UNL A   1      38.649  23.188  26.502  1.00  0.00     0.017 C 
ATOM      2  H   UNL A   1      37.959  23.091  27.313  1.00  0.00     0.049 H 
ATOM      3  H   UNL A   1      38.672  24.176  26.093  1.00  0.00     0.049 H 
ENDROOT
BRANCH   1   4
ATOM      4  N   UNL A   1      38.226  22.307  25.439  1.00  0.00    -0.354 N 
ATOM      5  C   UNL A   1      37.034  22.251  24.781  1.00  0.00     0.242 C 
ATOM      6  O   UNL A   1      37.040  21.718  23.663  1.00  0.00    -0.273 OA
ATOM      7  H   UNL A   1      38.898  21.650  25.146  1.00  0.00     0.163 HD
BRANCH   5   8
ATOM      8  C   UNL A   1      35.733  22.910  25.299  1.00  0.00     0.112 C 
ATOM      9  H   UNL A   1      35.024  22.672  24.534  1.00  0.00     0.064 H 
BRANCH   8  10
ATOM     10  N   UNL A   1      35.156  22.306  26.506  1.00  0.00    -0.342 N 
ATOM     11  C   UNL A   1      33.851  22.236  26.909  1.00  0.00     0.243 C 
ATOM     12  O   UNL A   1      33.622  21.712  28.000  1.00  0.00    -0.273 OA
ATOM     13  H   UNL A   1      35.806  21.887  27.116  1.00  0.00     0.164 HD
BRANCH  11  14
ATOM     14  C   UNL A   1      32.764  22.917  26.057  1.00  0.00     0.114 C 
ATOM     15  N   UNL A   1      31.776  21.984  25.536  1.00  0.00    -0.296 N 
ATOM     16  C   UNL A   1      30.472  22.192  26.127  1.00  0.00     0.025 C 
ATOM     17  C   UNL A   1      30.501  23.654  26.530  1.00  0.00    -0.033 C 
ATOM     18  H   UNL A   1      30.334  21.561  26.981  1.00  0.00     0.050 H 
ATOM     19  H   UNL A   1      29.668  21.956  25.462  1.00  0.00     0.050 H 
ATOM     20  C   UNL A   1      31.955  23.886  26.933  1.00  0.00    -0.022 C 
ATOM     21  H   UNL A   1      33.289  23.391  25.254  1.00  0.00     0.064 H 
ATOM     22  H   UNL A   1      29.844  23.837  27.353  1.00  0.00     0.029 H 
ATOM     23  H   UNL A   1      30.177  24.307  25.747  1.00  0.00     0.029 H 
ATOM     24  H   UNL A   1      32.098  23.666  27.969  1.00  0.00     0.029 H 
ATOM     25  H   UNL A   1      32.255  24.903  26.792  1.00  0.00     0.029 H 
BRANCH  15  26
ATOM     26  C   UNL A   1      32.086  21.126  24.511  1.00  0.00     0.410 C 
ATOM     27  O   UNL A   1      32.459  21.509  23.415  1.00  0.00    -0.224 OA
BRANCH  26  28
ATOM     28  O   UNL A   1      31.862  19.834  24.859  1.00  0.00    -0.444 OA
BRANCH  28  29
ATOM     29  C   UNL A   1      32.779  18.765  24.510  1.00  0.00     0.106 C 
BRANCH  29  30
ATOM     30  C   UNL A   1      32.544  17.688  25.580  1.00  0.00    -0.025 C 
ATOM     31  H   UNL A   1      33.319  17.742  26.317  1.00  0.00     0.027 H 
ATOM     32  H   UNL A   1      32.552  16.722  25.122  1.00  0.00     0.027 H 
ATOM     33  H   UNL A   1      31.596  17.852  26.049  1.00  0.00     0.027 H 
ENDBRANCH  29  30
BRANCH  29  34
ATOM     34  C   UNL A   1      34.208  19.295  24.624  1.00  0.00    -0.025 C 
ATOM     35  H   UNL A   1      34.839  18.775  23.934  1.00  0.00     0.027 H 
ATOM     36  H   UNL A   1      34.566  19.142  25.621  1.00  0.00     0.027 H 
ATOM     37  H   UNL A   1      34.220  20.341  24.399  1.00  0.00     0.027 H 
ENDBRANCH  29  34
BRANCH  29  38
ATOM     38  C   UNL A   1      32.528  18.128  23.136  1.00  0.00    -0.025 C 
ATOM     39  H   UNL A   1      31.742  18.653  22.637  1.00  0.00     0.027 H 
ATOM     40  H   UNL A   1      32.247  17.103  23.264  1.00  0.00     0.027 H 
ATOM     41  H   UNL A   1      33.422  18.181  22.550  1.00  0.00     0.027 H 
ENDBRANCH  29  38
ENDBRANCH  28  29
ENDBRANCH  26  28
ENDBRANCH  15  26
ENDBRANCH  11  14
ENDBRANCH   8  10
BRANCH   8  42
ATOM     42  C   UNL A   1      35.781  24.454  25.348  1.00  0.00     0.002 C 
ATOM     43  H   UNL A   1      36.684  24.761  24.863  1.00  0.00     0.034 H 
ATOM     44  H   UNL A   1      35.712  24.693  26.389  1.00  0.00     0.034 H 
BRANCH  42  45
ATOM     45  C   UNL A   1      34.645  25.215  24.707  1.00  0.00    -0.045 A 
ATOM     46  C   UNL A   1      34.171  24.838  23.442  1.00  0.00    -0.059 A 
ATOM     47  C   UNL A   1      34.046  26.306  25.354  1.00  0.00    -0.059 A 
ATOM     48  C   UNL A   1      33.156  25.567  22.817  1.00  0.00    -0.062 A 
ATOM     49  H   UNL A   1      34.576  24.015  22.967  1.00  0.00     0.063 H 
ATOM     50  C   UNL A   1      33.045  27.045  24.719  1.00  0.00    -0.062 A 
ATOM     51  H   UNL A   1      34.345  26.564  26.307  1.00  0.00     0.063 H 
ATOM     52  C   UNL A   1      32.604  26.679  23.449  1.00  0.00    -0.062 A 
ATOM     53  H   UNL A   1      32.815  25.281  21.886  1.00  0.00     0.062 H 
ATOM     54  H   UNL A   1      32.632  27.865  25.191  1.00  0.00     0.062 H 
ATOM     55  H   UNL A   1      31.870  27.229  22.977  1.00  0.00     0.062 H 
ENDBRANCH  42  45
ENDBRANCH   8  42
ENDBRANCH   5   8
ENDBRANCH   1   4
BRANCH   1  56
ATOM     56  C   UNL A   1      40.049  22.901  27.029  1.00  0.00    -0.036 C 
ATOM     57  H   UNL A   1      39.951  22.410  27.975  1.00  0.00     0.028 H 
ATOM     58  H   UNL A   1      40.544  23.847  27.087  1.00  0.00     0.028 H 
BRANCH  56  59
ATOM     59  C   UNL A   1      40.918  22.020  26.127  1.00  0.00    -0.052 C 
ATOM     60  H   UNL A   1      41.648  22.651  25.662  1.00  0.00     0.027 H 
ATOM     61  H   UNL A   1      40.238  21.553  25.446  1.00  0.00     0.027 H 
BRANCH  59  62
ATOM     62  C   UNL A   1      41.665  20.870  26.814  1.00  0.00    -0.052 C 
ATOM     63  H   UNL A   1      41.142  20.638  27.718  1.00  0.00     0.027 H 
ATOM     64  H   UNL A   1      42.663  21.227  26.957  1.00  0.00     0.027 H 
BRANCH  62  65
ATOM     65  C   UNL A   1      41.810  19.574  26.012  1.00  0.00    -0.036 C 
ATOM     66  H   UNL A   1      41.733  19.821  24.974  1.00  0.00     0.028 H 
ATOM     67  H   UNL A   1      41.034  18.927  26.365  1.00  0.00     0.028 H 
BRANCH  65  68
ATOM     68  C   UNL A   1      43.112  18.807  26.213  1.00  0.00     0.018 C 
ATOM     69  H   UNL A   1      42.885  17.854  26.644  1.00  0.00     0.049 H 
ATOM     70  H   UNL A   1      43.736  19.393  26.853  1.00  0.00     0.049 H 
BRANCH  68  71
ATOM     71  N   UNL A   1      43.836  18.594  24.972  1.00  0.00    -0.352 N 
ATOM     72  C   UNL A   1      44.539  19.474  24.189  1.00  0.00     0.251 C 
ATOM     73  H   UNL A   1      43.820  17.667  24.639  1.00  0.00     0.163 HD
ATOM     74  O   UNL A   1      44.957  19.107  23.094  1.00  0.00    -0.269 OA
BRANCH  72  75
ATOM     75  C   UNL A   1      44.782  20.866  24.630  1.00  0.00     0.039 A 
ATOM     76  C   UNL A   1      44.259  21.909  23.859  1.00  0.00    -0.049 A 
ATOM     77  C   UNL A   1      45.554  21.160  25.758  1.00  0.00    -0.049 A 
ATOM     78  C   UNL A   1      44.462  23.237  24.244  1.00  0.00    -0.053 A 
ATOM     79  H   UNL A   1      43.722  21.698  23.002  1.00  0.00     0.063 H 
ATOM     80  C   UNL A   1      45.696  22.481  26.181  1.00  0.00    -0.053 A 
ATOM     81  H   UNL A   1      46.017  20.399  26.277  1.00  0.00     0.063 H 
ATOM     82  C   UNL A   1      45.158  23.534  25.426  1.00  0.00    -0.014 A 
ATOM     83  H   UNL A   1      44.097  24.004  23.657  1.00  0.00     0.063 H 
ATOM     84  H   UNL A   1      46.203  22.687  27.057  1.00  0.00     0.063 H 
BRANCH  82  85
ATOM     85  C   UNL A   1      45.334  24.937  25.880  1.00  0.00     0.031 A 
ATOM     86  C   UNL A   1      46.685  25.592  25.822  1.00  0.00     0.074 A 
ATOM     87  C   UNL A   1      44.288  25.602  26.409  1.00  0.00     0.049 A 
ATOM     88  N   UNL A   1      47.049  26.781  26.235  1.00  0.00    -0.248 NA
ATOM     89  C   UNL A   1      47.782  24.794  25.253  1.00  0.00    -0.034 C 
ATOM     90  C   UNL A   1      42.939  25.060  26.571  1.00  0.00    -0.036 A 
ATOM     91  N   UNL A   1      44.201  26.872  26.922  1.00  0.00    -0.354 N 
ATOM     92  C   UNL A   1      48.415  26.863  25.997  1.00  0.00     0.074 A 
ATOM     93  C   UNL A   1      48.824  25.589  25.444  1.00  0.00    -0.034 C 
ATOM     94  H   UNL A   1      47.747  23.858  24.818  1.00  0.00     0.065 H 
ATOM     95  C   UNL A   1      42.155  25.994  27.134  1.00  0.00    -0.036 A 
ATOM     96  H   UNL A   1      42.637  24.112  26.297  1.00  0.00     0.065 H 
ATOM     97  C   UNL A   1      42.953  27.187  27.401  1.00  0.00     0.049 A 
ATOM     98  H   UNL A   1      44.962  27.498  26.946  1.00  0.00     0.167 HD
ATOM     99  C   UNL A   1      49.248  27.912  26.203  1.00  0.00     0.037 A 
ATOM    100  H   UNL A   1      49.800  25.334  25.228  1.00  0.00     0.065 H 
ATOM    101  H   UNL A   1      41.151  25.886  27.343  1.00  0.00     0.065 H 
ATOM    102  C   UNL A   1      42.504  28.309  27.996  1.00  0.00     0.037 A 
ATOM    103  C   UNL A   1      48.832  29.190  26.716  1.00  0.00     0.049 A 
ATOM    104  C   UNL A   1      43.440  29.469  28.189  1.00  0.00     0.074 A 
ATOM    105  C   UNL A   1      49.582  30.342  26.876  1.00  0.00    -0.036 A 
ATOM    106  N   UNL A   1      47.549  29.484  27.158  1.00  0.00    -0.354 N 
ATOM    107  N   UNL A   1      44.711  29.563  27.884  1.00  0.00    -0.248 NA
ATOM    108  C   UNL A   1      42.878  30.681  28.800  1.00  0.00    -0.034 C 
ATOM    109  C   UNL A   1      48.766  31.320  27.457  1.00  0.00    -0.036 A 
ATOM    110  H   UNL A   1      50.572  30.460  26.611  1.00  0.00     0.065 H 
ATOM    111  C   UNL A   1      47.494  30.791  27.615  1.00  0.00     0.049 A 
ATOM    112  H   UNL A   1      46.792  28.857  27.148  1.00  0.00     0.167 HD
ATOM    113  C   UNL A   1      45.096  30.847  28.246  1.00  0.00     0.074 A 
ATOM    114  C   UNL A   1      43.919  31.501  28.778  1.00  0.00    -0.034 C 
ATOM    115  H   UNL A   1      41.922  30.850  29.152  1.00  0.00     0.065 H 
ATOM    116  H   UNL A   1      49.061  32.272  27.722  1.00  0.00     0.065 H 
ATOM    117  C   UNL A   1      46.316  31.430  28.144  1.00  0.00     0.037 A 
ATOM    118  H   UNL A   1      43.895  32.481  29.101  1.00  0.00     0.065 H 
BRANCH  99 119
ATOM    119  C   UNL A   1      50.700  27.718  25.873  1.00  0.00     0.064 A 
ATOM    120  C   UNL A   1      51.192  27.892  24.570  1.00  0.00     0.173 A 
ATOM    121  C   UNL A   1      51.617  27.381  26.880  1.00  0.00     0.173 A 
ATOM    122  F   UNL A   1      50.354  28.205  23.569  1.00  0.00    -0.203 F 
ATOM    123  C   UNL A   1      52.540  27.702  24.281  1.00  0.00     0.198 A 
ATOM    124  C   UNL A   1      52.971  27.222  26.593  1.00  0.00     0.198 A 
ATOM    125  F   UNL A   1      51.203  27.211  28.144  1.00  0.00    -0.203 F 
ATOM    126  F   UNL A   1      52.977  27.821  23.019  1.00  0.00    -0.200 F 
ATOM    127  C   UNL A   1      53.430  27.374  25.293  1.00  0.00     0.200 A 
ATOM    128  F   UNL A   1      53.831  26.918  27.573  1.00  0.00    -0.200 F 
ATOM    129  F   UNL A   1      54.728  27.194  25.014  1.00  0.00    -0.200 F 
ENDBRANCH  99 119
BRANCH 102 130
ATOM    130  C   UNL A   1      41.086  28.390  28.430  1.00  0.00     0.064 A 
ATOM    131  C   UNL A   1      40.698  27.972  29.710  1.00  0.00     0.173 A 
ATOM    132  C   UNL A   1      40.094  28.907  27.583  1.00  0.00     0.173 A 
ATOM    133  F   UNL A   1      41.608  27.453  30.547  1.00  0.00    -0.203 F 
ATOM    134  C   UNL A   1      39.371  28.055  30.123  1.00  0.00     0.198 A 
ATOM    135  C   UNL A   1      38.771  29.014  28.007  1.00  0.00     0.198 A 
ATOM    136  F   UNL A   1      40.415  29.328  26.350  1.00  0.00    -0.203 F 
ATOM    137  F   UNL A   1      39.020  27.616  31.339  1.00  0.00    -0.200 F 
ATOM    138  C   UNL A   1      38.409  28.583  29.273  1.00  0.00     0.200 A 
ATOM    139  F   UNL A   1      37.848  29.538  27.187  1.00  0.00    -0.200 F 
ATOM    140  F   UNL A   1      37.134  28.673  29.675  1.00  0.00    -0.200 F 
ENDBRANCH 102 130
BRANCH 117 141
ATOM    141  C   UNL A   1      46.437  32.855  28.600  1.00  0.00     0.064 A 
ATOM    142  C   UNL A   1      46.804  33.176  29.915  1.00  0.00     0.173 A 
ATOM    143  C   UNL A   1      46.226  33.908  27.699  1.00  0.00     0.173 A 
ATOM    144  F   UNL A   1      47.001  32.204  30.818  1.00  0.00    -0.203 F 
ATOM    145  C   UNL A   1      46.933  34.503  30.316  1.00  0.00     0.198 A 
ATOM    146  C   UNL A   1      46.383  35.234  28.097  1.00  0.00     0.198 A 
ATOM    147  F   UNL A   1      45.878  33.654  26.428  1.00  0.00    -0.203 F 
ATOM    148  F   UNL A   1      47.243  34.789  31.589  1.00  0.00    -0.200 F 
ATOM    149  C   UNL A   1      46.730  35.529  29.406  1.00  0.00     0.200 A 
ATOM    150  F   UNL A   1      46.198  36.224  27.213  1.00  0.00    -0.200 F 
ATOM    151  F   UNL A   1      46.863  36.805  29.794  1.00  0.00    -0.200 F 
ENDBRANCH 117 141
ENDBRANCH  82  85
ENDBRANCH  72  75
ENDBRANCH  68  71
ENDBRANCH  65  68
ENDBRANCH  62  65
ENDBRANCH  59  62
ENDBRANCH  56  59
ENDBRANCH   1  56
TORSDOF 23
ENDMDL
MODEL 2
REMARK VINA RESULT:     -10.4      6.626     11.920
REMARK SMILES CC(C)(C)OC(=O)N1CCC[C@H]1C(=O)N[C@@H](Cc1ccccc1)C(=O)NCCCCCCNC(=O)c1ccc(-c2c3nc(c(-c4c(F)c(F)c(F)c(F)c4F)c4ccc([nH]4)c(-c4c(F)c(F)c(F)c(F)c4F)c4nc(c(-c5c(F)c(F)c(F)c(F)c5F)c5ccc2[nH]5)C=C4)C=C3)cc1
REMARK SMILES IDX 27 1 26 4 24 5 25 6 16 8 15 10 13 11 14 12 12 14 8 15 9 16
REMARK SMILES IDX 10 17 11 20 6 26 7 27 5 28 2 29 1 30 3 34 4 38 17 42 18 45
REMARK SMILES IDX 19 46 23 47 20 48 22 50 21 52 28 56 29 59 30 62 31 65 32 68
REMARK SMILES IDX 33 71 34 72 35 74 36 75 37 76 98 77 38 78 97 80 39 82 40 85
REMARK SMILES IDX 41 86 91 87 42 88 96 89 90 90 92 91 43 92 95 93 89 95 88 97
REMARK SMILES IDX 44 99 76 102 56 103 75 104 57 105 60 106 74 107 93 108
REMARK SMILES IDX 58 109 59 111 73 113 94 114 61 117 45 119 46 120 54 121
REMARK SMILES IDX 47 122 48 123 52 124 55 125 49 126 50 127 53 128 51 129
REMARK SMILES IDX 77 130 78 131 86 132 79 133 80 134 84 135 87 136 81 137
REMARK SMILES IDX 82 138 85 139 83 140 62 141 63 142 71 143 64 144 65 145
REMARK SMILES IDX 69 146 72 147 66 148 67 149 70 150 68 151
REMARK H PARENT 27 2 27 3 26 7 16 9 15 13 9 18 9 19 12 21 10 22 10 23 11 24
REMARK H PARENT 11 25 1 31 1 32 1 33 3 35 3 36 3 37 4 39 4 40 4 41 17 43 17 44
REMARK H PARENT 19 49 23 51 20 53 22 54 21 55 28 57 28 58 29 60 29 61 30 63
REMARK H PARENT 30 64 31 66 31 67 32 69 32 70 33 73 37 79 98 81 38 83 97 84
REMARK H PARENT 96 94 90 96 92 98 95 100 89 101 57 110 60 112 93 115 58 116
REMARK H PARENT 94 118
REMARK Flexibility Score: inf
ROOT
ATOM      1  C   UNL A   1      33.625  30.230  27.128  1.00  0.00     0.017 C 
ATOM      2  H   UNL A   1      33.704  29.997  26.087  1.00  0.00     0.049 H 
ATOM      3  H   UNL A   1      34.438  29.838  27.703  1.00  0.00     0.049 H 
ENDROOT
BRANCH   1   4
ATOM      4  N   UNL A   1      32.420  29.619  27.640  1.00  0.00    -0.354 N 
ATOM      5  C   UNL A   1      31.713  28.558  27.158  1.00  0.00     0.242 C 
ATOM      6  O   UNL A   1      30.980  27.967  27.963  1.00  0.00    -0.273 OA
ATOM      7  H   UNL A   1      32.056  30.030  28.456  1.00  0.00     0.163 HD
BRANCH   5   8
ATOM      8  C   UNL A   1      31.870  27.999  25.724  1.00  0.00     0.112 C 
ATOM      9  H   UNL A   1      32.842  27.554  25.747  1.00  0.00     0.064 H 
BRANCH   8  10
ATOM     10  N   UNL A   1      30.985  26.879  25.383  1.00  0.00    -0.342 N 
ATOM     11  C   UNL A   1      31.174  25.856  24.495  1.00  0.00     0.243 C 
ATOM     12  O   UNL A   1      30.250  25.054  24.350  1.00  0.00    -0.273 OA
ATOM     13  H   UNL A   1      30.127  26.861  25.865  1.00  0.00     0.164 HD
BRANCH  11  14
ATOM     14  C   UNL A   1      32.456  25.828  23.642  1.00  0.00     0.114 C 
ATOM     15  N   UNL A   1      33.068  24.509  23.570  1.00  0.00    -0.296 N 
ATOM     16  C   UNL A   1      32.993  23.951  22.239  1.00  0.00     0.025 C 
ATOM     17  C   UNL A   1      32.912  25.177  21.350  1.00  0.00    -0.033 C 
ATOM     18  H   UNL A   1      32.121  23.339  22.128  1.00  0.00     0.050 H 
ATOM     19  H   UNL A   1      33.821  23.315  22.003  1.00  0.00     0.050 H 
ATOM     20  C   UNL A   1      32.113  26.173  22.185  1.00  0.00    -0.022 C 
ATOM     21  H   UNL A   1      33.122  26.523  24.108  1.00  0.00     0.064 H 
ATOM     22  H   UNL A   1      32.406  24.953  20.435  1.00  0.00     0.029 H 
ATOM     23  H   UNL A   1      33.875  25.549  21.068  1.00  0.00     0.029 H 
ATOM     24  H   UNL A   1      31.065  26.057  22.007  1.00  0.00     0.029 H 
ATOM     25  H   UNL A   1      32.352  27.187  21.943  1.00  0.00     0.029 H 
BRANCH  15  26
ATOM     26  C   UNL A   1      33.735  23.981  24.647  1.00  0.00     0.410 C 
ATOM     27  O   UNL A   1      34.374  24.662  25.431  1.00  0.00    -0.224 OA
BRANCH  26  28
ATOM     28  O   UNL A   1      33.640  22.628  24.676  1.00  0.00    -0.444 OA
BRANCH  28  29
ATOM     29  C   UNL A   1      32.945  21.920  25.735  1.00  0.00     0.106 C 
BRANCH  29  30
ATOM     30  C   UNL A   1      34.041  21.580  26.757  1.00  0.00    -0.025 C 
ATOM     31  H   UNL A   1      33.672  20.847  27.445  1.00  0.00     0.027 H 
ATOM     32  H   UNL A   1      34.317  22.464  27.292  1.00  0.00     0.027 H 
ATOM     33  H   UNL A   1      34.896  21.190  26.247  1.00  0.00     0.027 H 
ENDBRANCH  29  30
BRANCH  29  34
ATOM     34  C   UNL A   1      32.368  20.628  25.156  1.00  0.00    -0.025 C 
ATOM     35  H   UNL A   1      33.073  20.194  24.478  1.00  0.00     0.027 H 
ATOM     36  H   UNL A   1      31.459  20.846  24.635  1.00  0.00     0.027 H 
ATOM     37  H   UNL A   1      32.167  19.940  25.950  1.00  0.00     0.027 H 
ENDBRANCH  29  34
BRANCH  29  38
ATOM     38  C   UNL A   1      31.866  22.740  26.455  1.00  0.00    -0.025 C 
ATOM     39  H   UNL A   1      30.961  22.173  26.505  1.00  0.00     0.027 H 
ATOM     40  H   UNL A   1      31.689  23.648  25.916  1.00  0.00     0.027 H 
ATOM     41  H   UNL A   1      32.197  22.973  27.446  1.00  0.00     0.027 H 
ENDBRANCH  29  38
ENDBRANCH  28  29
ENDBRANCH  26  28
ENDBRANCH  15  26
ENDBRANCH  11  14
ENDBRANCH   8  10
BRANCH   8  42
ATOM     42  C   UNL A   1      31.941  29.083  24.625  1.00  0.00     0.002 C 
ATOM     43  H   UNL A   1      32.478  28.665  23.798  1.00  0.00     0.034 H 
ATOM     44  H   UNL A   1      32.406  29.920  25.102  1.00  0.00     0.034 H 
BRANCH  42  45
ATOM     45  C   UNL A   1      30.639  29.627  24.087  1.00  0.00    -0.045 A 
ATOM     46  C   UNL A   1      30.187  30.893  24.489  1.00  0.00    -0.059 A 
ATOM     47  C   UNL A   1      29.859  28.888  23.186  1.00  0.00    -0.059 A 
ATOM     48  C   UNL A   1      28.959  31.385  24.039  1.00  0.00    -0.062 A 
ATOM     49  H   UNL A   1      30.766  31.467  25.123  1.00  0.00     0.063 H 
ATOM     50  C   UNL A   1      28.623  29.373  22.754  1.00  0.00    -0.062 A 
ATOM     51  H   UNL A   1      30.202  27.978  22.839  1.00  0.00     0.063 H 
ATOM     52  C   UNL A   1      28.171  30.618  23.184  1.00  0.00    -0.062 A 
ATOM     53  H   UNL A   1      28.636  32.317  24.340  1.00  0.00     0.062 H 
ATOM     54  H   UNL A   1      28.043  28.807  22.115  1.00  0.00     0.062 H 
ATOM     55  H   UNL A   1      27.255  30.973  22.869  1.00  0.00     0.062 H 
ENDBRANCH  42  45
ENDBRANCH   8  42
ENDBRANCH   5   8
ENDBRANCH   1   4
BRANCH   1  56
ATOM     56  C   UNL A   1      33.670  31.744  27.284  1.00  0.00    -0.036 C 
ATOM     57  H   UNL A   1      32.662  32.103  27.317  1.00  0.00     0.028 H 
ATOM     58  H   UNL A   1      34.227  32.112  26.448  1.00  0.00     0.028 H 
BRANCH  56  59
ATOM     59  C   UNL A   1      34.394  32.250  28.534  1.00  0.00    -0.052 C 
ATOM     60  H   UNL A   1      35.388  31.854  28.518  1.00  0.00     0.027 H 
ATOM     61  H   UNL A   1      33.799  31.921  29.360  1.00  0.00     0.027 H 
BRANCH  59  62
ATOM     62  C   UNL A   1      34.501  33.773  28.689  1.00  0.00    -0.052 C 
ATOM     63  H   UNL A   1      35.022  34.150  27.835  1.00  0.00     0.027 H 
ATOM     64  H   UNL A   1      35.003  33.928  29.621  1.00  0.00     0.027 H 
BRANCH  62  65
ATOM     65  C   UNL A   1      33.182  34.541  28.808  1.00  0.00    -0.036 C 
ATOM     66  H   UNL A   1      32.547  34.001  29.478  1.00  0.00     0.028 H 
ATOM     67  H   UNL A   1      32.800  34.617  27.811  1.00  0.00     0.028 H 
BRANCH  65  68
ATOM     68  C   UNL A   1      33.288  35.974  29.319  1.00  0.00     0.018 C 
ATOM     69  H   UNL A   1      32.904  36.634  28.570  1.00  0.00     0.049 H 
ATOM     70  H   UNL A   1      34.319  36.166  29.528  1.00  0.00     0.049 H 
BRANCH  68  71
ATOM     71  N   UNL A   1      32.546  36.187  30.550  1.00  0.00    -0.352 N 
ATOM     72  C   UNL A   1      32.749  35.685  31.809  1.00  0.00     0.251 C 
ATOM     73  H   UNL A   1      31.773  36.791  30.465  1.00  0.00     0.163 HD
ATOM     74  O   UNL A   1      31.907  35.884  32.682  1.00  0.00    -0.269 OA
BRANCH  72  75
ATOM     75  C   UNL A   1      33.953  34.886  32.132  1.00  0.00     0.039 A 
ATOM     76  C   UNL A   1      35.198  35.525  32.118  1.00  0.00    -0.049 A 
ATOM     77  C   UNL A   1      33.882  33.516  32.398  1.00  0.00    -0.049 A 
ATOM     78  C   UNL A   1      36.358  34.807  32.423  1.00  0.00    -0.053 A 
ATOM     79  H   UNL A   1      35.260  36.528  31.882  1.00  0.00     0.063 H 
ATOM     80  C   UNL A   1      35.029  32.816  32.771  1.00  0.00    -0.053 A 
ATOM     81  H   UNL A   1      32.979  33.023  32.320  1.00  0.00     0.063 H 
ATOM     82  C   UNL A   1      36.280  33.453  32.781  1.00  0.00    -0.014 A 
ATOM     83  H   UNL A   1      37.277  35.276  32.385  1.00  0.00     0.063 H 
ATOM     84  H   UNL A   1      34.959  31.823  33.041  1.00  0.00     0.063 H 
BRANCH  82  85
ATOM     85  C   UNL A   1      37.496  32.689  33.162  1.00  0.00     0.031 A 
ATOM     86  C   UNL A   1      38.208  32.985  34.452  1.00  0.00     0.074 A 
ATOM     87  C   UNL A   1      38.000  31.772  32.313  1.00  0.00     0.049 A 
ATOM     88  N   UNL A   1      39.318  32.474  34.923  1.00  0.00    -0.248 NA
ATOM     89  C   UNL A   1      37.609  34.015  35.315  1.00  0.00    -0.034 C 
ATOM     90  C   UNL A   1      37.435  31.432  31.007  1.00  0.00    -0.036 A 
ATOM     91  N   UNL A   1      39.110  30.972  32.414  1.00  0.00    -0.354 N 
ATOM     92  C   UNL A   1      39.561  33.134  36.121  1.00  0.00     0.074 A 
ATOM     93  C   UNL A   1      38.507  34.113  36.284  1.00  0.00    -0.034 C 
ATOM     94  H   UNL A   1      36.720  34.527  35.196  1.00  0.00     0.065 H 
ATOM     95  C   UNL A   1      38.194  30.485  30.433  1.00  0.00    -0.036 A 
ATOM     96  H   UNL A   1      36.588  31.852  30.593  1.00  0.00     0.065 H 
ATOM     97  C   UNL A   1      39.316  30.175  31.315  1.00  0.00     0.049 A 
ATOM     98  H   UNL A   1      39.704  30.970  33.200  1.00  0.00     0.167 HD
ATOM     99  C   UNL A   1      40.561  32.929  37.011  1.00  0.00     0.037 A 
ATOM    100  H   UNL A   1      38.462  34.798  37.054  1.00  0.00     0.065 H 
ATOM    101  H   UNL A   1      38.014  30.047  29.516  1.00  0.00     0.065 H 
ATOM    102  C   UNL A   1      40.302  29.298  31.044  1.00  0.00     0.037 A 
ATOM    103  C   UNL A   1      41.586  31.929  36.865  1.00  0.00     0.049 A 
ATOM    104  C   UNL A   1      41.386  29.069  32.060  1.00  0.00     0.074 A 
ATOM    105  C   UNL A   1      42.588  31.584  37.755  1.00  0.00    -0.036 A 
ATOM    106  N   UNL A   1      41.741  31.114  35.753  1.00  0.00    -0.354 N 
ATOM    107  N   UNL A   1      41.559  29.641  33.226  1.00  0.00    -0.248 NA
ATOM    108  C   UNL A   1      42.406  28.065  31.727  1.00  0.00    -0.034 C 
ATOM    109  C   UNL A   1      43.378  30.592  37.163  1.00  0.00    -0.036 A 
ATOM    110  H   UNL A   1      42.728  31.988  38.694  1.00  0.00     0.065 H 
ATOM    111  C   UNL A   1      42.839  30.286  35.923  1.00  0.00     0.049 A 
ATOM    112  H   UNL A   1      41.158  31.124  34.961  1.00  0.00     0.167 HD
ATOM    113  C   UNL A   1      42.692  29.056  33.774  1.00  0.00     0.074 A 
ATOM    114  C   UNL A   1      43.156  28.070  32.819  1.00  0.00    -0.034 C 
ATOM    115  H   UNL A   1      42.510  27.502  30.868  1.00  0.00     0.065 H 
ATOM    116  H   UNL A   1      44.219  30.163  37.578  1.00  0.00     0.065 H 
ATOM    117  C   UNL A   1      43.292  29.311  34.963  1.00  0.00     0.037 A 
ATOM    118  H   UNL A   1      43.969  27.452  32.971  1.00  0.00     0.065 H 
BRANCH  99 119
ATOM    119  C   UNL A   1      40.596  33.809  38.228  1.00  0.00     0.064 A 
ATOM    120  C   UNL A   1      39.841  33.517  39.374  1.00  0.00     0.173 A 
ATOM    121  C   UNL A   1      41.419  34.946  38.257  1.00  0.00     0.173 A 
ATOM    122  F   UNL A   1      39.032  32.447  39.394  1.00  0.00    -0.203 F 
ATOM    123  C   UNL A   1      39.881  34.348  40.491  1.00  0.00     0.198 A 
ATOM    124  C   UNL A   1      41.480  35.758  39.387  1.00  0.00     0.198 A 
ATOM    125  F   UNL A   1      42.167  35.267  37.192  1.00  0.00    -0.203 F 
ATOM    126  F   UNL A   1      39.111  34.077  41.553  1.00  0.00    -0.200 F 
ATOM    127  C   UNL A   1      40.705  35.464  40.499  1.00  0.00     0.200 A 
ATOM    128  F   UNL A   1      42.285  36.828  39.398  1.00  0.00    -0.200 F 
ATOM    129  F   UNL A   1      40.745  36.261  41.575  1.00  0.00    -0.200 F 
ENDBRANCH  99 119
BRANCH 102 130
ATOM    130  C   UNL A   1      40.290  28.556  29.758  1.00  0.00     0.064 A 
ATOM    131  C   UNL A   1      41.001  29.028  28.646  1.00  0.00     0.173 A 
ATOM    132  C   UNL A   1      39.585  27.351  29.619  1.00  0.00     0.173 A 
ATOM    133  F   UNL A   1      41.673  30.186  28.725  1.00  0.00    -0.203 F 
ATOM    134  C   UNL A   1      40.999  28.330  27.441  1.00  0.00     0.198 A 
ATOM    135  C   UNL A   1      39.605  26.641  28.421  1.00  0.00     0.198 A 
ATOM    136  F   UNL A   1      38.895  26.854  30.657  1.00  0.00    -0.203 F 
ATOM    137  F   UNL A   1      41.659  28.821  26.383  1.00  0.00    -0.200 F 
ATOM    138  C   UNL A   1      40.306  27.133  27.332  1.00  0.00     0.200 A 
ATOM    139  F   UNL A   1      38.946  25.477  28.325  1.00  0.00    -0.200 F 
ATOM    140  F   UNL A   1      40.313  26.456  26.175  1.00  0.00    -0.200 F 
ENDBRANCH 102 130
BRANCH 117 141
ATOM    141  C   UNL A   1      44.506  28.500  35.309  1.00  0.00     0.064 A 
ATOM    142  C   UNL A   1      45.798  28.938  34.985  1.00  0.00     0.173 A 
ATOM    143  C   UNL A   1      44.377  27.292  36.011  1.00  0.00     0.173 A 
ATOM    144  F   UNL A   1      45.972  30.078  34.301  1.00  0.00    -0.203 F 
ATOM    145  C   UNL A   1      46.916  28.184  35.332  1.00  0.00     0.198 A 
ATOM    146  C   UNL A   1      45.499  26.555  36.380  1.00  0.00     0.198 A 
ATOM    147  F   UNL A   1      43.163  26.832  36.349  1.00  0.00    -0.203 F 
ATOM    148  F   UNL A   1      48.140  28.600  34.975  1.00  0.00    -0.200 F 
ATOM    149  C   UNL A   1      46.766  26.998  36.035  1.00  0.00     0.200 A 
ATOM    150  F   UNL A   1      45.353  25.415  37.070  1.00  0.00    -0.200 F 
ATOM    151  F   UNL A   1      47.845  26.279  36.375  1.00  0.00    -0.200 F 
ENDBRANCH 117 141
ENDBRANCH  82  85
ENDBRANCH  72  75
ENDBRANCH  68  71
ENDBRANCH  65  68
ENDBRANCH  62  65
ENDBRANCH  59  62
ENDBRANCH  56  59
ENDBRANCH   1  56
TORSDOF 23
ENDMDL
MODEL 3
REMARK VINA RESULT:     -10.4      6.326     11.166
REMARK SMILES CC(C)(C)OC(=O)N1CCC[C@H]1C(=O)N[C@@H](Cc1ccccc1)C(=O)NCCCCCCNC(=O)c1ccc(-c2c3nc(c(-c4c(F)c(F)c(F)c(F)c4F)c4ccc([nH]4)c(-c4c(F)c(F)c(F)c(F)c4F)c4nc(c(-c5c(F)c(F)c(F)c(F)c5F)c5ccc2[nH]5)C=C4)C=C3)cc1
REMARK SMILES IDX 27 1 26 4 24 5 25 6 16 8 15 10 13 11 14 12 12 14 8 15 9 16
REMARK SMILES IDX 10 17 11 20 6 26 7 27 5 28 2 29 1 30 3 34 4 38 17 42 18 45
REMARK SMILES IDX 19 46 23 47 20 48 22 50 21 52 28 56 29 59 30 62 31 65 32 68
REMARK SMILES IDX 33 71 34 72 35 74 36 75 37 76 98 77 38 78 97 80 39 82 40 85
REMARK SMILES IDX 41 86 91 87 42 88 96 89 90 90 92 91 43 92 95 93 89 95 88 97
REMARK SMILES IDX 44 99 76 102 56 103 75 104 57 105 60 106 74 107 93 108
REMARK SMILES IDX 58 109 59 111 73 113 94 114 61 117 45 119 46 120 54 121
REMARK SMILES IDX 47 122 48 123 52 124 55 125 49 126 50 127 53 128 51 129
REMARK SMILES IDX 77 130 78 131 86 132 79 133 80 134 84 135 87 136 81 137
REMARK SMILES IDX 82 138 85 139 83 140 62 141 63 142 71 143 64 144 65 145
REMARK SMILES IDX 69 146 72 147 66 148 67 149 70 150 68 151
REMARK H PARENT 27 2 27 3 26 7 16 9 15 13 9 18 9 19 12 21 10 22 10 23 11 24
REMARK H PARENT 11 25 1 31 1 32 1 33 3 35 3 36 3 37 4 39 4 40 4 41 17 43 17 44
REMARK H PARENT 19 49 23 51 20 53 22 54 21 55 28 57 28 58 29 60 29 61 30 63
REMARK H PARENT 30 64 31 66 31 67 32 69 32 70 33 73 37 79 98 81 38 83 97 84
REMARK H PARENT 96 94 90 96 92 98 95 100 89 101 57 110 60 112 93 115 58 116
REMARK H PARENT 94 118
REMARK Flexibility Score: inf
ROOT
ATOM      1  C   UNL A   1      33.542  28.392  26.165  1.00  0.00     0.017 C 
ATOM      2  H   UNL A   1      33.026  28.641  25.262  1.00  0.00     0.049 H 
ATOM      3  H   UNL A   1      34.323  29.085  26.399  1.00  0.00     0.049 H 
ENDROOT
BRANCH   1   4
ATOM      4  N   UNL A   1      34.168  27.102  25.989  1.00  0.00    -0.354 N 
ATOM      5  C   UNL A   1      33.730  26.012  25.299  1.00  0.00     0.242 C 
ATOM      6  O   UNL A   1      34.591  25.194  24.947  1.00  0.00    -0.273 OA
ATOM      7  H   UNL A   1      35.040  26.996  26.433  1.00  0.00     0.163 HD
BRANCH   5   8
ATOM      8  C   UNL A   1      32.264  25.813  24.844  1.00  0.00     0.112 C 
ATOM      9  H   UNL A   1      31.759  26.637  25.302  1.00  0.00     0.064 H 
BRANCH   8  10
ATOM     10  N   UNL A   1      32.016  26.009  23.411  1.00  0.00    -0.342 N 
ATOM     11  C   UNL A   1      31.051  26.748  22.785  1.00  0.00     0.243 C 
ATOM     12  O   UNL A   1      31.020  26.714  21.554  1.00  0.00    -0.273 OA
ATOM     13  H   UNL A   1      32.638  25.538  22.810  1.00  0.00     0.164 HD
BRANCH  11  14
ATOM     14  C   UNL A   1      29.989  27.470  23.635  1.00  0.00     0.114 C 
ATOM     15  N   UNL A   1      29.317  28.546  22.920  1.00  0.00    -0.296 N 
ATOM     16  C   UNL A   1      27.925  28.246  22.675  1.00  0.00     0.025 C 
ATOM     17  C   UNL A   1      27.575  27.279  23.790  1.00  0.00    -0.033 C 
ATOM     18  H   UNL A   1      27.794  27.789  21.716  1.00  0.00     0.050 H 
ATOM     19  H   UNL A   1      27.303  29.117  22.665  1.00  0.00     0.050 H 
ATOM     20  C   UNL A   1      28.863  26.488  23.996  1.00  0.00    -0.022 C 
ATOM     21  H   UNL A   1      30.517  27.856  24.481  1.00  0.00     0.064 H 
ATOM     22  H   UNL A   1      26.773  26.634  23.499  1.00  0.00     0.029 H 
ATOM     23  H   UNL A   1      27.243  27.773  24.679  1.00  0.00     0.029 H 
ATOM     24  H   UNL A   1      28.887  25.634  23.353  1.00  0.00     0.029 H 
ATOM     25  H   UNL A   1      28.955  26.120  24.996  1.00  0.00     0.029 H 
BRANCH  15  26
ATOM     26  C   UNL A   1      29.961  29.730  22.661  1.00  0.00     0.410 C 
ATOM     27  O   UNL A   1      30.865  29.830  21.849  1.00  0.00    -0.224 OA
BRANCH  26  28
ATOM     28  O   UNL A   1      29.509  30.728  23.460  1.00  0.00    -0.444 OA
BRANCH  28  29
ATOM     29  C   UNL A   1      28.548  31.715  23.003  1.00  0.00     0.106 C 
BRANCH  29  30
ATOM     30  C   UNL A   1      29.213  33.068  23.299  1.00  0.00    -0.025 C 
ATOM     31  H   UNL A   1      28.933  33.776  22.546  1.00  0.00     0.027 H 
ATOM     32  H   UNL A   1      30.276  32.951  23.301  1.00  0.00     0.027 H 
ATOM     33  H   UNL A   1      28.892  33.422  24.256  1.00  0.00     0.027 H 
ENDBRANCH  29  30
BRANCH  29  34
ATOM     34  C   UNL A   1      27.276  31.577  23.840  1.00  0.00    -0.025 C 
ATOM     35  H   UNL A   1      26.532  32.253  23.474  1.00  0.00     0.027 H 
ATOM     36  H   UNL A   1      27.495  31.808  24.863  1.00  0.00     0.027 H 
ATOM     37  H   UNL A   1      26.911  30.574  23.772  1.00  0.00     0.027 H 
ENDBRANCH  29  34
BRANCH  29  38
ATOM     38  C   UNL A   1      28.237  31.661  21.501  1.00  0.00    -0.025 C 
ATOM     39  H   UNL A   1      28.506  32.590  21.047  1.00  0.00     0.027 H 
ATOM     40  H   UNL A   1      27.191  31.484  21.360  1.00  0.00     0.027 H 
ATOM     41  H   UNL A   1      28.797  30.868  21.050  1.00  0.00     0.027 H 
ENDBRANCH  29  38
ENDBRANCH  28  29
ENDBRANCH  26  28
ENDBRANCH  15  26
ENDBRANCH  11  14
ENDBRANCH   8  10
BRANCH   8  42
ATOM     42  C   UNL A   1      31.589  24.547  25.418  1.00  0.00     0.002 C 
ATOM     43  H   UNL A   1      30.537  24.640  25.244  1.00  0.00     0.034 H 
ATOM     44  H   UNL A   1      31.887  24.525  26.445  1.00  0.00     0.034 H 
BRANCH  42  45
ATOM     45  C   UNL A   1      32.020  23.208  24.868  1.00  0.00    -0.045 A 
ATOM     46  C   UNL A   1      31.730  22.867  23.539  1.00  0.00    -0.059 A 
ATOM     47  C   UNL A   1      32.710  22.284  25.666  1.00  0.00    -0.059 A 
ATOM     48  C   UNL A   1      32.077  21.611  23.036  1.00  0.00    -0.062 A 
ATOM     49  H   UNL A   1      31.255  23.549  22.927  1.00  0.00     0.063 H 
ATOM     50  C   UNL A   1      33.038  21.021  25.167  1.00  0.00    -0.062 A 
ATOM     51  H   UNL A   1      32.979  22.539  26.629  1.00  0.00     0.063 H 
ATOM     52  C   UNL A   1      32.718  20.683  23.854  1.00  0.00    -0.062 A 
ATOM     53  H   UNL A   1      31.859  21.370  22.056  1.00  0.00     0.062 H 
ATOM     54  H   UNL A   1      33.519  20.337  25.772  1.00  0.00     0.062 H 
ATOM     55  H   UNL A   1      32.955  19.748  23.488  1.00  0.00     0.062 H 
ENDBRANCH  42  45
ENDBRANCH   8  42
ENDBRANCH   5   8
ENDBRANCH   1   4
BRANCH   1  56
ATOM     56  C   UNL A   1      32.547  28.449  27.316  1.00  0.00    -0.036 C 
ATOM     57  H   UNL A   1      33.089  28.679  28.210  1.00  0.00     0.028 H 
ATOM     58  H   UNL A   1      32.066  27.494  27.341  1.00  0.00     0.028 H 
BRANCH  56  59
ATOM     59  C   UNL A   1      31.429  29.484  27.162  1.00  0.00    -0.052 C 
ATOM     60  H   UNL A   1      31.213  29.876  28.134  1.00  0.00     0.027 H 
ATOM     61  H   UNL A   1      30.617  28.959  26.705  1.00  0.00     0.027 H 
BRANCH  59  62
ATOM     62  C   UNL A   1      31.722  30.670  26.235  1.00  0.00    -0.052 C 
ATOM     63  H   UNL A   1      31.092  30.576  25.376  1.00  0.00     0.027 H 
ATOM     64  H   UNL A   1      32.770  30.613  26.025  1.00  0.00     0.027 H 
BRANCH  62  65
ATOM     65  C   UNL A   1      31.504  32.067  26.823  1.00  0.00    -0.036 C 
ATOM     66  H   UNL A   1      31.024  31.951  27.772  1.00  0.00     0.028 H 
ATOM     67  H   UNL A   1      30.919  32.597  26.100  1.00  0.00     0.028 H 
BRANCH  65  68
ATOM     68  C   UNL A   1      32.760  32.906  27.034  1.00  0.00     0.018 C 
ATOM     69  H   UNL A   1      33.241  33.046  26.088  1.00  0.00     0.049 H 
ATOM     70  H   UNL A   1      33.385  32.382  27.724  1.00  0.00     0.049 H 
BRANCH  68  71
ATOM     71  N   UNL A   1      32.474  34.210  27.606  1.00  0.00    -0.352 N 
ATOM     72  C   UNL A   1      33.034  34.853  28.680  1.00  0.00     0.251 C 
ATOM     73  H   UNL A   1      31.762  34.714  27.148  1.00  0.00     0.163 HD
ATOM     74  O   UNL A   1      32.537  35.902  29.083  1.00  0.00    -0.269 OA
BRANCH  72  75
ATOM     75  C   UNL A   1      34.214  34.294  29.378  1.00  0.00     0.039 A 
ATOM     76  C   UNL A   1      34.005  33.539  30.536  1.00  0.00    -0.049 A 
ATOM     77  C   UNL A   1      35.517  34.542  28.939  1.00  0.00    -0.049 A 
ATOM     78  C   UNL A   1      35.093  32.989  31.221  1.00  0.00    -0.053 A 
ATOM     79  H   UNL A   1      33.046  33.387  30.887  1.00  0.00     0.063 H 
ATOM     80  C   UNL A   1      36.597  33.935  29.580  1.00  0.00    -0.053 A 
ATOM     81  H   UNL A   1      35.681  35.173  28.139  1.00  0.00     0.063 H 
ATOM     82  C   UNL A   1      36.397  33.158  30.732  1.00  0.00    -0.014 A 
ATOM     83  H   UNL A   1      34.936  32.455  32.090  1.00  0.00     0.063 H 
ATOM     84  H   UNL A   1      37.551  34.059  29.206  1.00  0.00     0.063 H 
BRANCH  82  85
ATOM     85  C   UNL A   1      37.559  32.534  31.415  1.00  0.00     0.031 A 
ATOM     86  C   UNL A   1      38.290  31.386  30.778  1.00  0.00     0.074 A 
ATOM     87  C   UNL A   1      37.916  32.958  32.643  1.00  0.00     0.049 A 
ATOM     88  N   UNL A   1      39.281  30.669  31.249  1.00  0.00    -0.248 NA
ATOM     89  C   UNL A   1      37.827  30.965  29.447  1.00  0.00    -0.034 C 
ATOM     90  C   UNL A   1      37.254  34.026  33.392  1.00  0.00    -0.036 A 
ATOM     91  N   UNL A   1      38.913  32.531  33.484  1.00  0.00    -0.354 N 
ATOM     92  C   UNL A   1      39.542  29.704  30.286  1.00  0.00     0.074 A 
ATOM     93  C   UNL A   1      38.578  29.897  29.223  1.00  0.00    -0.034 C 
ATOM     94  H   UNL A   1      37.105  31.392  28.845  1.00  0.00     0.065 H 
ATOM     95  C   UNL A   1      37.868  34.179  34.576  1.00  0.00    -0.036 A 
ATOM     96  H   UNL A   1      36.444  34.575  33.063  1.00  0.00     0.065 H 
ATOM     97  C   UNL A   1      38.947  33.200  34.682  1.00  0.00     0.049 A 
ATOM     98  H   UNL A   1      39.545  31.812  33.250  1.00  0.00     0.167 HD
ATOM     99  C   UNL A   1      40.509  28.755  30.280  1.00  0.00     0.037 A 
ATOM    100  H   UNL A   1      38.488  29.283  28.399  1.00  0.00     0.065 H 
ATOM    101  H   UNL A   1      37.620  34.877  35.294  1.00  0.00     0.065 H 
ATOM    102  C   UNL A   1      39.750  33.038  35.751  1.00  0.00     0.037 A 
ATOM    103  C   UNL A   1      41.490  28.589  31.320  1.00  0.00     0.049 A 
ATOM    104  C   UNL A   1      40.833  31.997  35.709  1.00  0.00     0.074 A 
ATOM    105  C   UNL A   1      42.563  27.717  31.362  1.00  0.00    -0.036 A 
ATOM    106  N   UNL A   1      41.514  29.311  32.505  1.00  0.00    -0.354 N 
ATOM    107  N   UNL A   1      41.122  31.144  34.758  1.00  0.00    -0.248 NA
ATOM    108  C   UNL A   1      41.707  31.901  36.887  1.00  0.00    -0.034 C 
ATOM    109  C   UNL A   1      43.211  27.878  32.593  1.00  0.00    -0.036 A 
ATOM    110  H   UNL A   1      42.840  27.061  30.616  1.00  0.00     0.065 H 
ATOM    111  C   UNL A   1      42.568  28.885  33.297  1.00  0.00     0.049 A 
ATOM    112  H   UNL A   1      40.876  30.020  32.747  1.00  0.00     0.167 HD
ATOM    113  C   UNL A   1      42.220  30.425  35.210  1.00  0.00     0.074 A 
ATOM    114  C   UNL A   1      42.557  30.954  36.515  1.00  0.00    -0.034 C 
ATOM    115  H   UNL A   1      41.671  32.434  37.770  1.00  0.00     0.065 H 
ATOM    116  H   UNL A   1      44.027  27.339  32.920  1.00  0.00     0.065 H 
ATOM    117  C   UNL A   1      42.890  29.418  34.596  1.00  0.00     0.037 A 
ATOM    118  H   UNL A   1      43.356  30.633  37.084  1.00  0.00     0.065 H 
BRANCH  99 119
ATOM    119  C   UNL A   1      40.552  27.817  29.108  1.00  0.00     0.064 A 
ATOM    120  C   UNL A   1      39.737  26.677  29.043  1.00  0.00     0.173 A 
ATOM    121  C   UNL A   1      41.402  28.077  28.022  1.00  0.00     0.173 A 
ATOM    122  F   UNL A   1      38.913  26.378  30.059  1.00  0.00    -0.203 F 
ATOM    123  C   UNL A   1      39.795  25.814  27.951  1.00  0.00     0.198 A 
ATOM    124  C   UNL A   1      41.435  27.229  26.917  1.00  0.00     0.198 A 
ATOM    125  F   UNL A   1      42.197  29.157  28.028  1.00  0.00    -0.203 F 
ATOM    126  F   UNL A   1      39.045  24.704  27.936  1.00  0.00    -0.200 F 
ATOM    127  C   UNL A   1      40.639  26.094  26.887  1.00  0.00     0.200 A 
ATOM    128  F   UNL A   1      42.242  27.507  25.885  1.00  0.00    -0.200 F 
ATOM    129  F   UNL A   1      40.692  25.265  25.836  1.00  0.00    -0.200 F 
ENDBRANCH  99 119
BRANCH 102 130
ATOM    130  C   UNL A   1      39.569  33.906  36.942  1.00  0.00     0.064 A 
ATOM    131  C   UNL A   1      40.139  35.185  36.996  1.00  0.00     0.173 A 
ATOM    132  C   UNL A   1      38.805  33.484  38.041  1.00  0.00     0.173 A 
ATOM    133  F   UNL A   1      40.893  35.625  35.977  1.00  0.00    -0.203 F 
ATOM    134  C   UNL A   1      39.963  36.005  38.108  1.00  0.00     0.198 A 
ATOM    135  C   UNL A   1      38.609  34.316  39.142  1.00  0.00     0.198 A 
ATOM    136  F   UNL A   1      38.233  32.271  38.035  1.00  0.00    -0.203 F 
ATOM    137  F   UNL A   1      40.548  37.211  38.149  1.00  0.00    -0.200 F 
ATOM    138  C   UNL A   1      39.193  35.572  39.177  1.00  0.00     0.200 A 
ATOM    139  F   UNL A   1      37.852  33.899  40.166  1.00  0.00    -0.200 F 
ATOM    140  F   UNL A   1      39.015  36.366  40.242  1.00  0.00    -0.200 F 
ENDBRANCH 102 130
BRANCH 117 141
ATOM    141  C   UNL A   1      44.068  28.834  35.320  1.00  0.00     0.064 A 
ATOM    142  C   UNL A   1      45.366  29.331  35.130  1.00  0.00     0.173 A 
ATOM    143  C   UNL A   1      43.889  27.796  36.245  1.00  0.00     0.173 A 
ATOM    144  F   UNL A   1      45.591  30.313  34.244  1.00  0.00    -0.203 F 
ATOM    145  C   UNL A   1      46.446  28.792  35.826  1.00  0.00     0.198 A 
ATOM    146  C   UNL A   1      44.967  27.279  36.959  1.00  0.00     0.198 A 
ATOM    147  F   UNL A   1      42.667  27.289  36.466  1.00  0.00    -0.203 F 
ATOM    148  F   UNL A   1      47.684  29.253  35.598  1.00  0.00    -0.200 F 
ATOM    149  C   UNL A   1      46.244  27.773  36.744  1.00  0.00     0.200 A 
ATOM    150  F   UNL A   1      44.769  26.302  37.855  1.00  0.00    -0.200 F 
ATOM    151  F   UNL A   1      47.284  27.262  37.418  1.00  0.00    -0.200 F 
ENDBRANCH 117 141
ENDBRANCH  82  85
ENDBRANCH  72  75
ENDBRANCH  68  71
ENDBRANCH  65  68
ENDBRANCH  62  65
ENDBRANCH  59  62
ENDBRANCH  56  59
ENDBRANCH   1  56
TORSDOF 23
ENDMDL
MODEL 4
REMARK VINA RESULT:     -10.2      3.653      8.571
REMARK SMILES CC(C)(C)OC(=O)N1CCC[C@H]1C(=O)N[C@@H](Cc1ccccc1)C(=O)NCCCCCCNC(=O)c1ccc(-c2c3nc(c(-c4c(F)c(F)c(F)c(F)c4F)c4ccc([nH]4)c(-c4c(F)c(F)c(F)c(F)c4F)c4nc(c(-c5c(F)c(F)c(F)c(F)c5F)c5ccc2[nH]5)C=C4)C=C3)cc1
REMARK SMILES IDX 27 1 26 4 24 5 25 6 16 8 15 10 13 11 14 12 12 14 8 15 9 16
REMARK SMILES IDX 10 17 11 20 6 26 7 27 5 28 2 29 1 30 3 34 4 38 17 42 18 45
REMARK SMILES IDX 19 46 23 47 20 48 22 50 21 52 28 56 29 59 30 62 31 65 32 68
REMARK SMILES IDX 33 71 34 72 35 74 36 75 37 76 98 77 38 78 97 80 39 82 40 85
REMARK SMILES IDX 41 86 91 87 42 88 96 89 90 90 92 91 43 92 95 93 89 95 88 97
REMARK SMILES IDX 44 99 76 102 56 103 75 104 57 105 60 106 74 107 93 108
REMARK SMILES IDX 58 109 59 111 73 113 94 114 61 117 45 119 46 120 54 121
REMARK SMILES IDX 47 122 48 123 52 124 55 125 49 126 50 127 53 128 51 129
REMARK SMILES IDX 77 130 78 131 86 132 79 133 80 134 84 135 87 136 81 137
REMARK SMILES IDX 82 138 85 139 83 140 62 141 63 142 71 143 64 144 65 145
REMARK SMILES IDX 69 146 72 147 66 148 67 149 70 150 68 151
REMARK H PARENT 27 2 27 3 26 7 16 9 15 13 9 18 9 19 12 21 10 22 10 23 11 24
REMARK H PARENT 11 25 1 31 1 32 1 33 3 35 3 36 3 37 4 39 4 40 4 41 17 43 17 44
REMARK H PARENT 19 49 23 51 20 53 22 54 21 55 28 57 28 58 29 60 29 61 30 63
REMARK H PARENT 30 64 31 66 31 67 32 69 32 70 33 73 37 79 98 81 38 83 97 84
REMARK H PARENT 96 94 90 96 92 98 95 100 89 101 57 110 60 112 93 115 58 116
REMARK H PARENT 94 118
REMARK Flexibility Score: inf
ROOT
ATOM      1  C   UNL A   1      34.010  29.147  26.978  1.00  0.00     0.017 C 
ATOM      2  H   UNL A   1      34.618  28.444  27.507  1.00  0.00     0.049 H 
ATOM      3  H   UNL A   1      32.966  29.023  27.175  1.00  0.00     0.049 H 
ENDROOT
BRANCH   1   4
ATOM      4  N   UNL A   1      34.195  28.930  25.562  1.00  0.00    -0.354 N 
ATOM      5  C   UNL A   1      33.273  28.913  24.559  1.00  0.00     0.242 C 
ATOM      6  O   UNL A   1      33.694  29.121  23.413  1.00  0.00    -0.273 OA
ATOM      7  H   UNL A   1      35.124  28.770  25.280  1.00  0.00     0.163 HD
BRANCH   5   8
ATOM      8  C   UNL A   1      31.749  28.771  24.793  1.00  0.00     0.112 C 
ATOM      9  H   UNL A   1      31.409  28.323  23.883  1.00  0.00     0.064 H 
BRANCH   8  10
ATOM     10  N   UNL A   1      31.356  27.802  25.823  1.00  0.00    -0.342 N 
ATOM     11  C   UNL A   1      31.303  26.438  25.762  1.00  0.00     0.243 C 
ATOM     12  O   UNL A   1      30.889  25.842  26.758  1.00  0.00    -0.273 OA
ATOM     13  H   UNL A   1      31.093  28.194  26.687  1.00  0.00     0.164 HD
BRANCH  11  14
ATOM     14  C   UNL A   1      31.633  25.731  24.434  1.00  0.00     0.114 C 
ATOM     15  N   UNL A   1      32.424  24.521  24.611  1.00  0.00    -0.296 N 
ATOM     16  C   UNL A   1      31.678  23.332  24.263  1.00  0.00     0.025 C 
ATOM     17  C   UNL A   1      30.652  23.842  23.269  1.00  0.00    -0.033 C 
ATOM     18  H   UNL A   1      31.201  22.914  25.125  1.00  0.00     0.050 H 
ATOM     19  H   UNL A   1      32.293  22.551  23.868  1.00  0.00     0.050 H 
ATOM     20  C   UNL A   1      30.335  25.248  23.771  1.00  0.00    -0.022 C 
ATOM     21  H   UNL A   1      32.175  26.450  23.858  1.00  0.00     0.064 H 
ATOM     22  H   UNL A   1      29.777  23.228  23.274  1.00  0.00     0.029 H 
ATOM     23  H   UNL A   1      31.011  23.832  22.261  1.00  0.00     0.029 H 
ATOM     24  H   UNL A   1      29.536  25.222  24.481  1.00  0.00     0.029 H 
ATOM     25  H   UNL A   1      30.020  25.897  22.981  1.00  0.00     0.029 H 
BRANCH  15  26
ATOM     26  C   UNL A   1      33.754  24.589  24.942  1.00  0.00     0.410 C 
ATOM     27  O   UNL A   1      34.293  25.618  25.313  1.00  0.00    -0.224 OA
BRANCH  26  28
ATOM     28  O   UNL A   1      34.378  23.402  24.740  1.00  0.00    -0.444 OA
BRANCH  28  29
ATOM     29  C   UNL A   1      34.800  22.549  25.836  1.00  0.00     0.106 C 
BRANCH  29  30
ATOM     30  C   UNL A   1      36.277  22.909  26.061  1.00  0.00    -0.025 C 
ATOM     31  H   UNL A   1      36.429  23.167  27.089  1.00  0.00     0.027 H 
ATOM     32  H   UNL A   1      36.540  23.740  25.441  1.00  0.00     0.027 H 
ATOM     33  H   UNL A   1      36.891  22.069  25.810  1.00  0.00     0.027 H 
ENDBRANCH  29  30
BRANCH  29  34
ATOM     34  C   UNL A   1      34.693  21.092  25.384  1.00  0.00    -0.025 C 
ATOM     35  H   UNL A   1      35.671  20.660  25.335  1.00  0.00     0.027 H 
ATOM     36  H   UNL A   1      34.236  21.052  24.417  1.00  0.00     0.027 H 
ATOM     37  H   UNL A   1      34.096  20.545  26.084  1.00  0.00     0.027 H 
ENDBRANCH  29  34
BRANCH  29  38
ATOM     38  C   UNL A   1      34.051  22.782  27.155  1.00  0.00    -0.025 C 
ATOM     39  H   UNL A   1      33.641  23.769  27.164  1.00  0.00     0.027 H 
ATOM     40  H   UNL A   1      34.730  22.671  27.975  1.00  0.00     0.027 H 
ATOM     41  H   UNL A   1      33.262  22.065  27.248  1.00  0.00     0.027 H 
ENDBRANCH  29  38
ENDBRANCH  28  29
ENDBRANCH  26  28
ENDBRANCH  15  26
ENDBRANCH  11  14
ENDBRANCH   8  10
BRANCH   8  42
ATOM     42  C   UNL A   1      30.995  30.116  24.894  1.00  0.00     0.002 C 
ATOM     43  H   UNL A   1      31.718  30.897  24.775  1.00  0.00     0.034 H 
ATOM     44  H   UNL A   1      30.507  30.080  25.846  1.00  0.00     0.034 H 
BRANCH  42  45
ATOM     45  C   UNL A   1      29.883  30.377  23.907  1.00  0.00    -0.045 A 
ATOM     46  C   UNL A   1      29.563  29.415  22.937  1.00  0.00    -0.059 A 
ATOM     47  C   UNL A   1      29.154  31.575  23.933  1.00  0.00    -0.059 A 
ATOM     48  C   UNL A   1      28.572  29.667  21.986  1.00  0.00    -0.062 A 
ATOM     49  H   UNL A   1      30.064  28.512  22.926  1.00  0.00     0.063 H 
ATOM     50  C   UNL A   1      28.178  31.833  22.968  1.00  0.00    -0.062 A 
ATOM     51  H   UNL A   1      29.340  32.271  24.672  1.00  0.00     0.063 H 
ATOM     52  C   UNL A   1      27.890  30.881  21.992  1.00  0.00    -0.062 A 
ATOM     53  H   UNL A   1      28.344  28.952  21.277  1.00  0.00     0.062 H 
ATOM     54  H   UNL A   1      27.669  32.731  22.978  1.00  0.00     0.062 H 
ATOM     55  H   UNL A   1      27.173  31.075  21.276  1.00  0.00     0.062 H 
ENDBRANCH  42  45
ENDBRANCH   8  42
ENDBRANCH   5   8
ENDBRANCH   1   4
BRANCH   1  56
ATOM     56  C   UNL A   1      34.381  30.547  27.447  1.00  0.00    -0.036 C 
ATOM     57  H   UNL A   1      33.788  30.775  28.308  1.00  0.00     0.028 H 
ATOM     58  H   UNL A   1      34.196  31.197  26.617  1.00  0.00     0.028 H 
BRANCH  56  59
ATOM     59  C   UNL A   1      35.853  30.742  27.821  1.00  0.00    -0.052 C 
ATOM     60  H   UNL A   1      36.237  31.541  27.222  1.00  0.00     0.027 H 
ATOM     61  H   UNL A   1      36.318  29.795  27.648  1.00  0.00     0.027 H 
BRANCH  59  62
ATOM     62  C   UNL A   1      36.143  31.078  29.289  1.00  0.00    -0.052 C 
ATOM     63  H   UNL A   1      37.115  31.522  29.335  1.00  0.00     0.027 H 
ATOM     64  H   UNL A   1      36.052  30.151  29.815  1.00  0.00     0.027 H 
BRANCH  62  65
ATOM     65  C   UNL A   1      35.162  32.031  29.979  1.00  0.00    -0.036 C 
ATOM     66  H   UNL A   1      34.175  31.775  29.655  1.00  0.00     0.028 H 
ATOM     67  H   UNL A   1      35.471  33.017  29.698  1.00  0.00     0.028 H 
BRANCH  65  68
ATOM     68  C   UNL A   1      35.173  32.012  31.503  1.00  0.00     0.018 C 
ATOM     69  H   UNL A   1      35.887  31.287  31.831  1.00  0.00     0.049 H 
ATOM     70  H   UNL A   1      34.183  31.771  31.830  1.00  0.00     0.049 H 
BRANCH  68  71
ATOM     71  N   UNL A   1      35.521  33.299  32.078  1.00  0.00    -0.352 N 
ATOM     72  C   UNL A   1      36.739  33.913  32.214  1.00  0.00     0.251 C 
ATOM     73  H   UNL A   1      34.757  33.815  32.426  1.00  0.00     0.163 HD
ATOM     74  O   UNL A   1      36.824  34.951  32.867  1.00  0.00    -0.269 OA
BRANCH  72  75
ATOM     75  C   UNL A   1      37.960  33.336  31.607  1.00  0.00     0.039 A 
ATOM     76  C   UNL A   1      38.741  32.471  32.379  1.00  0.00    -0.049 A 
ATOM     77  C   UNL A   1      38.371  33.671  30.314  1.00  0.00    -0.049 A 
ATOM     78  C   UNL A   1      39.898  31.900  31.841  1.00  0.00    -0.053 A 
ATOM     79  H   UNL A   1      38.464  32.253  33.350  1.00  0.00     0.063 H 
ATOM     80  C   UNL A   1      39.486  33.047  29.752  1.00  0.00    -0.053 A 
ATOM     81  H   UNL A   1      37.849  34.378  29.774  1.00  0.00     0.063 H 
ATOM     82  C   UNL A   1      40.265  32.161  30.512  1.00  0.00    -0.014 A 
ATOM     83  H   UNL A   1      40.486  31.284  32.424  1.00  0.00     0.063 H 
ATOM     84  H   UNL A   1      39.740  33.240  28.771  1.00  0.00     0.063 H 
BRANCH  82  85
ATOM     85  C   UNL A   1      41.460  31.520  29.906  1.00  0.00     0.031 A 
ATOM     86  C   UNL A   1      42.716  32.312  29.680  1.00  0.00     0.074 A 
ATOM     87  C   UNL A   1      41.392  30.237  29.497  1.00  0.00     0.049 A 
ATOM     88  N   UNL A   1      43.835  31.946  29.104  1.00  0.00    -0.248 NA
ATOM     89  C   UNL A   1      42.706  33.711  30.133  1.00  0.00    -0.034 C 
ATOM     90  C   UNL A   1      40.214  29.378  29.609  1.00  0.00    -0.036 A 
ATOM     91  N   UNL A   1      42.329  29.440  28.888  1.00  0.00    -0.354 N 
ATOM     92  C   UNL A   1      44.648  33.072  29.106  1.00  0.00     0.074 A 
ATOM     93  C   UNL A   1      43.879  34.146  29.699  1.00  0.00    -0.034 C 
ATOM     94  H   UNL A   1      41.974  34.220  30.653  1.00  0.00     0.065 H 
ATOM     95  C   UNL A   1      40.500  28.170  29.098  1.00  0.00    -0.036 A 
ATOM     96  H   UNL A   1      39.307  29.655  30.017  1.00  0.00     0.065 H 
ATOM     97  C   UNL A   1      41.871  28.180  28.593  1.00  0.00     0.049 A 
ATOM     98  H   UNL A   1      43.243  29.744  28.682  1.00  0.00     0.167 HD
ATOM     99  C   UNL A   1      45.924  33.195  28.669  1.00  0.00     0.037 A 
ATOM    100  H   UNL A   1      44.204  35.122  29.775  1.00  0.00     0.065 H 
ATOM    101  H   UNL A   1      39.857  27.364  29.068  1.00  0.00     0.065 H 
ATOM    102  C   UNL A   1      42.483  27.150  27.979  1.00  0.00     0.037 A 
ATOM    103  C   UNL A   1      46.699  32.116  28.113  1.00  0.00     0.049 A 
ATOM    104  C   UNL A   1      43.909  27.302  27.527  1.00  0.00     0.074 A 
ATOM    105  C   UNL A   1      48.027  32.118  27.726  1.00  0.00    -0.036 A 
ATOM    106  N   UNL A   1      46.211  30.841  27.863  1.00  0.00    -0.354 N 
ATOM    107  N   UNL A   1      44.694  28.347  27.608  1.00  0.00    -0.248 NA
ATOM    108  C   UNL A   1      44.536  26.127  26.906  1.00  0.00    -0.034 C 
ATOM    109  C   UNL A   1      48.332  30.858  27.198  1.00  0.00    -0.036 A 
ATOM    110  H   UNL A   1      48.681  32.911  27.812  1.00  0.00     0.065 H 
ATOM    111  C   UNL A   1      47.206  30.057  27.301  1.00  0.00     0.049 A 
ATOM    112  H   UNL A   1      45.295  30.540  28.055  1.00  0.00     0.167 HD
ATOM    113  C   UNL A   1      45.911  27.954  27.070  1.00  0.00     0.074 A 
ATOM    114  C   UNL A   1      45.766  26.566  26.680  1.00  0.00    -0.034 C 
ATOM    115  H   UNL A   1      44.127  25.201  26.702  1.00  0.00     0.065 H 
ATOM    116  H   UNL A   1      49.240  30.575  26.800  1.00  0.00     0.065 H 
ATOM    117  C   UNL A   1      47.047  28.678  26.915  1.00  0.00     0.037 A 
ATOM    118  H   UNL A   1      46.524  25.994  26.276  1.00  0.00     0.065 H 
BRANCH  99 119
ATOM    119  C   UNL A   1      46.565  34.549  28.772  1.00  0.00     0.064 A 
ATOM    120  C   UNL A   1      47.279  34.944  29.914  1.00  0.00     0.173 A 
ATOM    121  C   UNL A   1      46.487  35.454  27.702  1.00  0.00     0.173 A 
ATOM    122  F   UNL A   1      47.375  34.119  30.968  1.00  0.00    -0.203 F 
ATOM    123  C   UNL A   1      47.861  36.206  29.995  1.00  0.00     0.198 A 
ATOM    124  C   UNL A   1      47.098  36.704  27.775  1.00  0.00     0.198 A 
ATOM    125  F   UNL A   1      45.824  35.125  26.584  1.00  0.00    -0.203 F 
ATOM    126  F   UNL A   1      48.493  36.579  31.117  1.00  0.00    -0.200 F 
ATOM    127  C   UNL A   1      47.776  37.083  28.924  1.00  0.00     0.200 A 
ATOM    128  F   UNL A   1      47.025  37.545  26.735  1.00  0.00    -0.200 F 
ATOM    129  F   UNL A   1      48.340  38.296  29.002  1.00  0.00    -0.200 F 
ENDBRANCH  99 119
BRANCH 102 130
ATOM    130  C   UNL A   1      41.748  25.875  27.778  1.00  0.00     0.064 A 
ATOM    131  C   UNL A   1      42.039  24.745  28.555  1.00  0.00     0.173 A 
ATOM    132  C   UNL A   1      40.727  25.766  26.822  1.00  0.00     0.173 A 
ATOM    133  F   UNL A   1      43.020  24.797  29.468  1.00  0.00    -0.203 F 
ATOM    134  C   UNL A   1      41.346  23.551  28.375  1.00  0.00     0.198 A 
ATOM    135  C   UNL A   1      40.017  24.578  26.661  1.00  0.00     0.198 A 
ATOM    136  F   UNL A   1      40.406  26.821  26.059  1.00  0.00    -0.203 F 
ATOM    137  F   UNL A   1      41.667  22.475  29.107  1.00  0.00    -0.200 F 
ATOM    138  C   UNL A   1      40.331  23.470  27.433  1.00  0.00     0.200 A 
ATOM    139  F   UNL A   1      39.027  24.509  25.760  1.00  0.00    -0.200 F 
ATOM    140  F   UNL A   1      39.657  22.323  27.268  1.00  0.00    -0.200 F 
ENDBRANCH 102 130
BRANCH 117 141
ATOM    141  C   UNL A   1      48.232  27.978  26.315  1.00  0.00     0.064 A 
ATOM    142  C   UNL A   1      49.276  27.488  27.112  1.00  0.00     0.173 A 
ATOM    143  C   UNL A   1      48.301  27.758  24.932  1.00  0.00     0.173 A 
ATOM    144  F   UNL A   1      49.264  27.687  28.439  1.00  0.00    -0.203 F 
ATOM    145  C   UNL A   1      50.358  26.822  26.543  1.00  0.00     0.198 A 
ATOM    146  C   UNL A   1      49.371  27.068  24.369  1.00  0.00     0.198 A 
ATOM    147  F   UNL A   1      47.325  28.203  24.126  1.00  0.00    -0.203 F 
ATOM    148  F   UNL A   1      51.366  26.399  27.319  1.00  0.00    -0.200 F 
ATOM    149  C   UNL A   1      50.401  26.606  25.174  1.00  0.00     0.200 A 
ATOM    150  F   UNL A   1      49.405  26.849  23.047  1.00  0.00    -0.200 F 
ATOM    151  F   UNL A   1      51.440  25.958  24.629  1.00  0.00    -0.200 F 
ENDBRANCH 117 141
ENDBRANCH  82  85
ENDBRANCH  72  75
ENDBRANCH  68  71
ENDBRANCH  65  68
ENDBRANCH  62  65
ENDBRANCH  59  62
ENDBRANCH  56  59
ENDBRANCH   1  56
TORSDOF 23
ENDMDL
MODEL 5
REMARK VINA RESULT:     -10.2      1.677      7.863
REMARK SMILES CC(C)(C)OC(=O)N1CCC[C@H]1C(=O)N[C@@H](Cc1ccccc1)C(=O)NCCCCCCNC(=O)c1ccc(-c2c3nc(c(-c4c(F)c(F)c(F)c(F)c4F)c4ccc([nH]4)c(-c4c(F)c(F)c(F)c(F)c4F)c4nc(c(-c5c(F)c(F)c(F)c(F)c5F)c5ccc2[nH]5)C=C4)C=C3)cc1
REMARK SMILES IDX 27 1 26 4 24 5 25 6 16 8 15 10 13 11 14 12 12 14 8 15 9 16
REMARK SMILES IDX 10 17 11 20 6 26 7 27 5 28 2 29 1 30 3 34 4 38 17 42 18 45
REMARK SMILES IDX 19 46 23 47 20 48 22 50 21 52 28 56 29 59 30 62 31 65 32 68
REMARK SMILES IDX 33 71 34 72 35 74 36 75 37 76 98 77 38 78 97 80 39 82 40 85
REMARK SMILES IDX 41 86 91 87 42 88 96 89 90 90 92 91 43 92 95 93 89 95 88 97
REMARK SMILES IDX 44 99 76 102 56 103 75 104 57 105 60 106 74 107 93 108
REMARK SMILES IDX 58 109 59 111 73 113 94 114 61 117 45 119 46 120 54 121
REMARK SMILES IDX 47 122 48 123 52 124 55 125 49 126 50 127 53 128 51 129
REMARK SMILES IDX 77 130 78 131 86 132 79 133 80 134 84 135 87 136 81 137
REMARK SMILES IDX 82 138 85 139 83 140 62 141 63 142 71 143 64 144 65 145
REMARK SMILES IDX 69 146 72 147 66 148 67 149 70 150 68 151
REMARK H PARENT 27 2 27 3 26 7 16 9 15 13 9 18 9 19 12 21 10 22 10 23 11 24
REMARK H PARENT 11 25 1 31 1 32 1 33 3 35 3 36 3 37 4 39 4 40 4 41 17 43 17 44
REMARK H PARENT 19 49 23 51 20 53 22 54 21 55 28 57 28 58 29 60 29 61 30 63
REMARK H PARENT 30 64 31 66 31 67 32 69 32 70 33 73 37 79 98 81 38 83 97 84
REMARK H PARENT 96 94 90 96 92 98 95 100 89 101 57 110 60 112 93 115 58 116
REMARK H PARENT 94 118
REMARK Flexibility Score: inf
ROOT
ATOM      1  C   UNL A   1      35.237  23.014  25.421  1.00  0.00     0.017 C 
ATOM      2  H   UNL A   1      34.672  23.668  24.793  1.00  0.00     0.049 H 
ATOM      3  H   UNL A   1      35.136  21.985  25.146  1.00  0.00     0.049 H 
ENDROOT
BRANCH   1   4
ATOM      4  N   UNL A   1      34.735  23.135  26.771  1.00  0.00    -0.354 N 
ATOM      5  C   UNL A   1      33.596  22.630  27.321  1.00  0.00     0.242 C 
ATOM      6  O   UNL A   1      33.580  22.508  28.553  1.00  0.00    -0.273 OA
ATOM      7  H   UNL A   1      35.300  23.660  27.382  1.00  0.00     0.163 HD
BRANCH   5   8
ATOM      8  C   UNL A   1      32.399  22.103  26.492  1.00  0.00     0.112 C 
ATOM      9  H   UNL A   1      32.255  21.117  26.881  1.00  0.00     0.064 H 
BRANCH   8  10
ATOM     10  N   UNL A   1      31.115  22.766  26.746  1.00  0.00    -0.342 N 
ATOM     11  C   UNL A   1      30.698  24.021  26.399  1.00  0.00     0.243 C 
ATOM     12  O   UNL A   1      29.576  24.369  26.774  1.00  0.00    -0.273 OA
ATOM     13  H   UNL A   1      30.455  22.227  27.239  1.00  0.00     0.164 HD
BRANCH  11  14
ATOM     14  C   UNL A   1      31.678  24.968  25.683  1.00  0.00     0.114 C 
ATOM     15  N   UNL A   1      31.097  25.620  24.518  1.00  0.00    -0.296 N 
ATOM     16  C   UNL A   1      30.943  27.044  24.716  1.00  0.00     0.025 C 
ATOM     17  C   UNL A   1      32.010  27.371  25.743  1.00  0.00    -0.033 C 
ATOM     18  H   UNL A   1      29.967  27.275  25.090  1.00  0.00     0.050 H 
ATOM     19  H   UNL A   1      31.044  27.607  23.811  1.00  0.00     0.050 H 
ATOM     20  C   UNL A   1      32.057  26.124  26.621  1.00  0.00    -0.022 C 
ATOM     21  H   UNL A   1      32.505  24.355  25.393  1.00  0.00     0.064 H 
ATOM     22  H   UNL A   1      31.739  28.232  26.315  1.00  0.00     0.029 H 
ATOM     23  H   UNL A   1      32.956  27.602  25.299  1.00  0.00     0.029 H 
ATOM     24  H   UNL A   1      31.355  26.203  27.423  1.00  0.00     0.029 H 
ATOM     25  H   UNL A   1      33.018  25.982  27.069  1.00  0.00     0.029 H 
BRANCH  15  26
ATOM     26  C   UNL A   1      30.873  24.923  23.357  1.00  0.00     0.410 C 
ATOM     27  O   UNL A   1      30.397  23.800  23.339  1.00  0.00    -0.224 OA
BRANCH  26  28
ATOM     28  O   UNL A   1      31.306  25.611  22.272  1.00  0.00    -0.444 OA
BRANCH  28  29
ATOM     29  C   UNL A   1      32.681  25.554  21.812  1.00  0.00     0.106 C 
BRANCH  29  30
ATOM     30  C   UNL A   1      32.576  25.529  20.279  1.00  0.00    -0.025 C 
ATOM     31  H   UNL A   1      32.840  26.490  19.888  1.00  0.00     0.027 H 
ATOM     32  H   UNL A   1      31.573  25.291  19.993  1.00  0.00     0.027 H 
ATOM     33  H   UNL A   1      33.244  24.791  19.888  1.00  0.00     0.027 H 
ENDBRANCH  29  30
BRANCH  29  34
ATOM     34  C   UNL A   1      33.302  24.245  22.302  1.00  0.00    -0.025 C 
ATOM     35  H   UNL A   1      34.313  24.179  21.957  1.00  0.00     0.027 H 
ATOM     36  H   UNL A   1      32.739  23.419  21.920  1.00  0.00     0.027 H 
ATOM     37  H   UNL A   1      33.287  24.222  23.371  1.00  0.00     0.027 H 
ENDBRANCH  29  34
BRANCH  29  38
ATOM     38  C   UNL A   1      33.540  26.762  22.207  1.00  0.00    -0.025 C 
ATOM     39  H   UNL A   1      34.358  26.858  21.524  1.00  0.00     0.027 H 
ATOM     40  H   UNL A   1      33.918  26.622  23.198  1.00  0.00     0.027 H 
ATOM     41  H   UNL A   1      32.943  27.650  22.176  1.00  0.00     0.027 H 
ENDBRANCH  29  38
ENDBRANCH  28  29
ENDBRANCH  26  28
ENDBRANCH  15  26
ENDBRANCH  11  14
ENDBRANCH   8  10
BRANCH   8  42
ATOM     42  C   UNL A   1      32.705  21.910  24.990  1.00  0.00     0.002 C 
ATOM     43  H   UNL A   1      33.691  22.288  24.814  1.00  0.00     0.034 H 
ATOM     44  H   UNL A   1      31.916  22.427  24.485  1.00  0.00     0.034 H 
BRANCH  42  45
ATOM     45  C   UNL A   1      32.655  20.507  24.435  1.00  0.00    -0.045 A 
ATOM     46  C   UNL A   1      32.993  19.415  25.250  1.00  0.00    -0.059 A 
ATOM     47  C   UNL A   1      32.277  20.264  23.106  1.00  0.00    -0.059 A 
ATOM     48  C   UNL A   1      33.000  18.118  24.732  1.00  0.00    -0.062 A 
ATOM     49  H   UNL A   1      33.238  19.572  26.240  1.00  0.00     0.063 H 
ATOM     50  C   UNL A   1      32.305  18.968  22.586  1.00  0.00    -0.062 A 
ATOM     51  H   UNL A   1      31.974  21.049  22.508  1.00  0.00     0.063 H 
ATOM     52  C   UNL A   1      32.671  17.896  23.397  1.00  0.00    -0.062 A 
ATOM     53  H   UNL A   1      33.250  17.322  25.340  1.00  0.00     0.062 H 
ATOM     54  H   UNL A   1      32.055  18.804  21.598  1.00  0.00     0.062 H 
ATOM     55  H   UNL A   1      32.699  16.940  23.010  1.00  0.00     0.062 H 
ENDBRANCH  42  45
ENDBRANCH   8  42
ENDBRANCH   5   8
ENDBRANCH   1   4
BRANCH   1  56
ATOM     56  C   UNL A   1      36.711  23.364  25.272  1.00  0.00    -0.036 C 
ATOM     57  H   UNL A   1      37.002  23.943  26.124  1.00  0.00     0.028 H 
ATOM     58  H   UNL A   1      36.799  23.893  24.346  1.00  0.00     0.028 H 
BRANCH  56  59
ATOM     59  C   UNL A   1      37.660  22.166  25.169  1.00  0.00    -0.052 C 
ATOM     60  H   UNL A   1      37.928  22.051  24.139  1.00  0.00     0.027 H 
ATOM     61  H   UNL A   1      37.120  21.340  25.582  1.00  0.00     0.027 H 
BRANCH  59  62
ATOM     62  C   UNL A   1      38.957  22.254  25.982  1.00  0.00    -0.052 C 
ATOM     63  H   UNL A   1      38.776  22.899  26.815  1.00  0.00     0.027 H 
ATOM     64  H   UNL A   1      39.697  22.610  25.296  1.00  0.00     0.027 H 
BRANCH  62  65
ATOM     65  C   UNL A   1      39.513  20.934  26.525  1.00  0.00    -0.036 C 
ATOM     66  H   UNL A   1      38.895  20.631  27.344  1.00  0.00     0.028 H 
ATOM     67  H   UNL A   1      40.528  21.138  26.797  1.00  0.00     0.028 H 
BRANCH  65  68
ATOM     68  C   UNL A   1      39.575  19.777  25.534  1.00  0.00     0.018 C 
ATOM     69  H   UNL A   1      39.726  20.175  24.553  1.00  0.00     0.049 H 
ATOM     70  H   UNL A   1      38.654  19.240  25.608  1.00  0.00     0.049 H 
BRANCH  68  71
ATOM     71  N   UNL A   1      40.649  18.844  25.827  1.00  0.00    -0.352 N 
ATOM     72  C   UNL A   1      41.951  19.072  26.193  1.00  0.00     0.251 C 
ATOM     73  H   UNL A   1      40.402  17.894  25.751  1.00  0.00     0.163 HD
ATOM     74  O   UNL A   1      42.736  18.129  26.253  1.00  0.00    -0.269 OA
BRANCH  72  75
ATOM     75  C   UNL A   1      42.434  20.438  26.496  1.00  0.00     0.039 A 
ATOM     76  C   UNL A   1      42.866  21.241  25.435  1.00  0.00    -0.049 A 
ATOM     77  C   UNL A   1      42.515  20.920  27.805  1.00  0.00    -0.049 A 
ATOM     78  C   UNL A   1      43.324  22.539  25.678  1.00  0.00    -0.053 A 
ATOM     79  H   UNL A   1      42.846  20.874  24.470  1.00  0.00     0.063 H 
ATOM     80  C   UNL A   1      42.904  22.239  28.041  1.00  0.00    -0.053 A 
ATOM     81  H   UNL A   1      42.284  20.301  28.597  1.00  0.00     0.063 H 
ATOM     82  C   UNL A   1      43.319  23.059  26.981  1.00  0.00    -0.014 A 
ATOM     83  H   UNL A   1      43.667  23.117  24.895  1.00  0.00     0.063 H 
ATOM     84  H   UNL A   1      42.888  22.614  29.002  1.00  0.00     0.063 H 
BRANCH  82  85
ATOM     85  C   UNL A   1      43.750  24.456  27.250  1.00  0.00     0.031 A 
ATOM     86  C   UNL A   1      42.752  25.487  27.697  1.00  0.00     0.074 A 
ATOM     87  C   UNL A   1      45.030  24.812  27.028  1.00  0.00     0.049 A 
ATOM     88  N   UNL A   1      42.924  26.767  27.915  1.00  0.00    -0.248 NA
ATOM     89  C   UNL A   1      41.370  25.026  27.896  1.00  0.00    -0.034 C 
ATOM     90  C   UNL A   1      46.082  23.919  26.543  1.00  0.00    -0.036 A 
ATOM     91  N   UNL A   1      45.659  26.024  27.165  1.00  0.00    -0.354 N 
ATOM     92  C   UNL A   1      41.673  27.266  28.252  1.00  0.00     0.074 A 
ATOM     93  C   UNL A   1      40.742  26.160  28.168  1.00  0.00    -0.034 C 
ATOM     94  H   UNL A   1      40.989  24.068  27.838  1.00  0.00     0.065 H 
ATOM     95  C   UNL A   1      47.228  24.609  26.433  1.00  0.00    -0.036 A 
ATOM     96  H   UNL A   1      45.963  22.919  26.320  1.00  0.00     0.065 H 
ATOM     97  C   UNL A   1      46.985  25.999  26.810  1.00  0.00     0.049 A 
ATOM     98  H   UNL A   1      45.202  26.835  27.488  1.00  0.00     0.167 HD
ATOM     99  C   UNL A   1      41.334  28.526  28.617  1.00  0.00     0.037 A 
ATOM    100  H   UNL A   1      39.723  26.245  28.303  1.00  0.00     0.065 H 
ATOM    101  H   UNL A   1      48.136  24.220  26.132  1.00  0.00     0.065 H 
ATOM    102  C   UNL A   1      47.901  26.986  26.782  1.00  0.00     0.037 A 
ATOM    103  C   UNL A   1      42.268  29.615  28.736  1.00  0.00     0.049 A 
ATOM    104  C   UNL A   1      47.508  28.370  27.217  1.00  0.00     0.074 A 
ATOM    105  C   UNL A   1      42.038  30.903  29.185  1.00  0.00    -0.036 A 
ATOM    106  N   UNL A   1      43.612  29.542  28.401  1.00  0.00    -0.354 N 
ATOM    107  N   UNL A   1      46.339  28.811  27.613  1.00  0.00    -0.248 NA
ATOM    108  C   UNL A   1      48.563  29.393  27.211  1.00  0.00    -0.034 C 
ATOM    109  C   UNL A   1      43.233  31.625  29.078  1.00  0.00    -0.036 A 
ATOM    110  H   UNL A   1      41.141  31.270  29.538  1.00  0.00     0.065 H 
ATOM    111  C   UNL A   1      44.219  30.771  28.608  1.00  0.00     0.049 A 
ATOM    112  H   UNL A   1      44.068  28.737  28.066  1.00  0.00     0.167 HD
ATOM    113  C   UNL A   1      46.520  30.152  27.921  1.00  0.00     0.074 A 
ATOM    114  C   UNL A   1      47.917  30.450  27.682  1.00  0.00    -0.034 C 
ATOM    115  H   UNL A   1      49.550  29.309  26.918  1.00  0.00     0.065 H 
ATOM    116  H   UNL A   1      43.358  32.622  29.310  1.00  0.00     0.065 H 
ATOM    117  C   UNL A   1      45.610  31.054  28.364  1.00  0.00     0.037 A 
ATOM    118  H   UNL A   1      48.354  31.369  27.856  1.00  0.00     0.065 H 
BRANCH  99 119
ATOM    119  C   UNL A   1      39.887  28.797  28.912  1.00  0.00     0.064 A 
ATOM    120  C   UNL A   1      39.347  28.613  30.194  1.00  0.00     0.173 A 
ATOM    121  C   UNL A   1      39.034  29.273  27.903  1.00  0.00     0.173 A 
ATOM    122  F   UNL A   1      40.117  28.151  31.190  1.00  0.00    -0.203 F 
ATOM    123  C   UNL A   1      38.000  28.863  30.448  1.00  0.00     0.198 A 
ATOM    124  C   UNL A   1      37.695  29.551  28.169  1.00  0.00     0.198 A 
ATOM    125  F   UNL A   1      39.501  29.473  26.662  1.00  0.00    -0.203 F 
ATOM    126  F   UNL A   1      37.496  28.630  31.667  1.00  0.00    -0.200 F 
ATOM    127  C   UNL A   1      37.177  29.338  29.437  1.00  0.00     0.200 A 
ATOM    128  F   UNL A   1      36.905  30.021  27.195  1.00  0.00    -0.200 F 
ATOM    129  F   UNL A   1      35.883  29.581  29.684  1.00  0.00    -0.200 F 
ENDBRANCH  99 119
BRANCH 102 130
ATOM    130  C   UNL A   1      49.288  26.687  26.346  1.00  0.00     0.064 A 
ATOM    131  C   UNL A   1      49.675  26.851  25.009  1.00  0.00     0.173 A 
ATOM    132  C   UNL A   1      50.261  26.251  27.258  1.00  0.00     0.173 A 
ATOM    133  F   UNL A   1      48.775  27.248  24.097  1.00  0.00    -0.203 F 
ATOM    134  C   UNL A   1      50.978  26.580  24.598  1.00  0.00     0.198 A 
ATOM    135  C   UNL A   1      51.570  26.005  26.850  1.00  0.00     0.198 A 
ATOM    136  F   UNL A   1      49.942  26.085  28.551  1.00  0.00    -0.203 F 
ATOM    137  F   UNL A   1      51.312  26.712  23.307  1.00  0.00    -0.200 F 
ATOM    138  C   UNL A   1      51.926  26.163  25.520  1.00  0.00     0.200 A 
ATOM    139  F   UNL A   1      52.486  25.616  27.749  1.00  0.00    -0.200 F 
ATOM    140  F   UNL A   1      53.182  25.913  25.126  1.00  0.00    -0.200 F 
ENDBRANCH 102 130
BRANCH 117 141
ATOM    141  C   UNL A   1      46.099  32.446  28.639  1.00  0.00     0.064 A 
ATOM    142  C   UNL A   1      46.063  33.445  27.655  1.00  0.00     0.173 A 
ATOM    143  C   UNL A   1      46.570  32.795  29.913  1.00  0.00     0.173 A 
ATOM    144  F   UNL A   1      45.636  33.156  26.416  1.00  0.00    -0.203 F 
ATOM    145  C   UNL A   1      46.501  34.737  27.932  1.00  0.00     0.198 A 
ATOM    146  C   UNL A   1      46.980  34.096  30.194  1.00  0.00     0.198 A 
ATOM    147  F   UNL A   1      46.620  31.878  30.891  1.00  0.00    -0.203 F 
ATOM    148  F   UNL A   1      46.497  35.665  26.964  1.00  0.00    -0.200 F 
ATOM    149  C   UNL A   1      46.951  35.063  29.202  1.00  0.00     0.200 A 
ATOM    150  F   UNL A   1      47.405  34.412  31.426  1.00  0.00    -0.200 F 
ATOM    151  F   UNL A   1      47.364  36.310  29.468  1.00  0.00    -0.200 F 
ENDBRANCH 117 141
ENDBRANCH  82  85
ENDBRANCH  72  75
ENDBRANCH  68  71
ENDBRANCH  65  68
ENDBRANCH  62  65
ENDBRANCH  59  62
ENDBRANCH  56  59
ENDBRANCH   1  56
TORSDOF 23
ENDMDL
MODEL 6
REMARK VINA RESULT:     -10.1      5.546     11.619
REMARK SMILES CC(C)(C)OC(=O)N1CCC[C@H]1C(=O)N[C@@H](Cc1ccccc1)C(=O)NCCCCCCNC(=O)c1ccc(-c2c3nc(c(-c4c(F)c(F)c(F)c(F)c4F)c4ccc([nH]4)c(-c4c(F)c(F)c(F)c(F)c4F)c4nc(c(-c5c(F)c(F)c(F)c(F)c5F)c5ccc2[nH]5)C=C4)C=C3)cc1
REMARK SMILES IDX 27 1 26 4 24 5 25 6 16 8 15 10 13 11 14 12 12 14 8 15 9 16
REMARK SMILES IDX 10 17 11 20 6 26 7 27 5 28 2 29 1 30 3 34 4 38 17 42 18 45
REMARK SMILES IDX 19 46 23 47 20 48 22 50 21 52 28 56 29 59 30 62 31 65 32 68
REMARK SMILES IDX 33 71 34 72 35 74 36 75 37 76 98 77 38 78 97 80 39 82 40 85
REMARK SMILES IDX 41 86 91 87 42 88 96 89 90 90 92 91 43 92 95 93 89 95 88 97
REMARK SMILES IDX 44 99 76 102 56 103 75 104 57 105 60 106 74 107 93 108
REMARK SMILES IDX 58 109 59 111 73 113 94 114 61 117 45 119 46 120 54 121
REMARK SMILES IDX 47 122 48 123 52 124 55 125 49 126 50 127 53 128 51 129
REMARK SMILES IDX 77 130 78 131 86 132 79 133 80 134 84 135 87 136 81 137
REMARK SMILES IDX 82 138 85 139 83 140 62 141 63 142 71 143 64 144 65 145
REMARK SMILES IDX 69 146 72 147 66 148 67 149 70 150 68 151
REMARK H PARENT 27 2 27 3 26 7 16 9 15 13 9 18 9 19 12 21 10 22 10 23 11 24
REMARK H PARENT 11 25 1 31 1 32 1 33 3 35 3 36 3 37 4 39 4 40 4 41 17 43 17 44
REMARK H PARENT 19 49 23 51 20 53 22 54 21 55 28 57 28 58 29 60 29 61 30 63
REMARK H PARENT 30 64 31 66 31 67 32 69 32 70 33 73 37 79 98 81 38 83 97 84
REMARK H PARENT 96 94 90 96 92 98 95 100 89 101 57 110 60 112 93 115 58 116
REMARK H PARENT 94 118
REMARK Flexibility Score: inf
ROOT
ATOM      1  C   UNL A   1      37.597  30.519  32.844  1.00  0.00     0.017 C 
ATOM      2  H   UNL A   1      37.526  29.640  32.240  1.00  0.00     0.049 H 
ATOM      3  H   UNL A   1      38.427  31.139  32.576  1.00  0.00     0.049 H 
ENDROOT
BRANCH   1   4
ATOM      4  N   UNL A   1      37.805  30.113  34.214  1.00  0.00    -0.354 N 
ATOM      5  C   UNL A   1      38.770  30.496  35.096  1.00  0.00     0.242 C 
ATOM      6  O   UNL A   1      38.515  30.348  36.299  1.00  0.00    -0.273 OA
ATOM      7  H   UNL A   1      37.153  29.463  34.562  1.00  0.00     0.163 HD
BRANCH   5   8
ATOM      8  C   UNL A   1      40.085  31.200  34.681  1.00  0.00     0.112 C 
ATOM      9  H   UNL A   1      40.631  31.246  35.600  1.00  0.00     0.064 H 
BRANCH   8  10
ATOM     10  N   UNL A   1      40.963  30.425  33.796  1.00  0.00    -0.342 N 
ATOM     11  C   UNL A   1      41.878  29.457  34.103  1.00  0.00     0.243 C 
ATOM     12  O   UNL A   1      42.536  28.983  33.175  1.00  0.00    -0.273 OA
ATOM     13  H   UNL A   1      40.880  30.634  32.837  1.00  0.00     0.164 HD
BRANCH  11  14
ATOM     14  C   UNL A   1      42.130  29.104  35.581  1.00  0.00     0.114 C 
ATOM     15  N   UNL A   1      42.864  27.858  35.755  1.00  0.00    -0.296 N 
ATOM     16  C   UNL A   1      44.185  28.080  36.297  1.00  0.00     0.025 C 
ATOM     17  C   UNL A   1      44.037  29.386  37.055  1.00  0.00    -0.033 C 
ATOM     18  H   UNL A   1      44.910  28.171  35.514  1.00  0.00     0.050 H 
ATOM     19  H   UNL A   1      44.528  27.274  36.912  1.00  0.00     0.050 H 
ATOM     20  C   UNL A   1      43.030  30.172  36.220  1.00  0.00    -0.022 C 
ATOM     21  H   UNL A   1      41.160  29.030  36.024  1.00  0.00     0.064 H 
ATOM     22  H   UNL A   1      44.971  29.902  37.113  1.00  0.00     0.029 H 
ATOM     23  H   UNL A   1      43.718  29.244  38.066  1.00  0.00     0.029 H 
ATOM     24  H   UNL A   1      43.530  30.743  35.467  1.00  0.00     0.029 H 
ATOM     25  H   UNL A   1      42.473  30.868  36.810  1.00  0.00     0.029 H 
BRANCH  15  26
ATOM     26  C   UNL A   1      42.258  26.646  35.535  1.00  0.00     0.410 C 
ATOM     27  O   UNL A   1      41.207  26.324  36.062  1.00  0.00    -0.224 OA
BRANCH  26  28
ATOM     28  O   UNL A   1      43.007  25.856  34.726  1.00  0.00    -0.444 OA
BRANCH  28  29
ATOM     29  C   UNL A   1      43.661  24.652  35.204  1.00  0.00     0.106 C 
BRANCH  29  30
ATOM     30  C   UNL A   1      45.005  24.619  34.460  1.00  0.00    -0.025 C 
ATOM     31  H   UNL A   1      45.537  25.529  34.644  1.00  0.00     0.027 H 
ATOM     32  H   UNL A   1      44.828  24.515  33.410  1.00  0.00     0.027 H 
ATOM     33  H   UNL A   1      45.585  23.791  34.808  1.00  0.00     0.027 H 
ENDBRANCH  29  30
BRANCH  29  34
ATOM     34  C   UNL A   1      42.818  23.445  34.790  1.00  0.00    -0.025 C 
ATOM     35  H   UNL A   1      42.297  23.667  33.883  1.00  0.00     0.027 H 
ATOM     36  H   UNL A   1      42.111  23.222  35.563  1.00  0.00     0.027 H 
ATOM     37  H   UNL A   1      43.457  22.600  34.637  1.00  0.00     0.027 H 
ENDBRANCH  29  34
BRANCH  29  38
ATOM     38  C   UNL A   1      43.956  24.637  36.710  1.00  0.00    -0.025 C 
ATOM     39  H   UNL A   1      43.934  23.629  37.069  1.00  0.00     0.027 H 
ATOM     40  H   UNL A   1      43.216  25.214  37.224  1.00  0.00     0.027 H 
ATOM     41  H   UNL A   1      44.923  25.058  36.889  1.00  0.00     0.027 H 
ENDBRANCH  29  38
ENDBRANCH  28  29
ENDBRANCH  26  28
ENDBRANCH  15  26
ENDBRANCH  11  14
ENDBRANCH   8  10
BRANCH   8  42
ATOM     42  C   UNL A   1      39.905  32.668  34.237  1.00  0.00     0.002 C 
ATOM     43  H   UNL A   1      38.883  32.790  33.943  1.00  0.00     0.034 H 
ATOM     44  H   UNL A   1      40.628  32.806  33.460  1.00  0.00     0.034 H 
BRANCH  42  45
ATOM     45  C   UNL A   1      40.216  33.752  35.241  1.00  0.00    -0.045 A 
ATOM     46  C   UNL A   1      39.911  35.090  34.950  1.00  0.00    -0.059 A 
ATOM     47  C   UNL A   1      40.813  33.450  36.474  1.00  0.00    -0.059 A 
ATOM     48  C   UNL A   1      40.242  36.107  35.849  1.00  0.00    -0.062 A 
ATOM     49  H   UNL A   1      39.439  35.326  34.063  1.00  0.00     0.063 H 
ATOM     50  C   UNL A   1      41.161  34.470  37.362  1.00  0.00    -0.062 A 
ATOM     51  H   UNL A   1      40.995  32.466  36.727  1.00  0.00     0.063 H 
ATOM     52  C   UNL A   1      40.881  35.798  37.048  1.00  0.00    -0.062 A 
ATOM     53  H   UNL A   1      40.013  37.087  35.625  1.00  0.00     0.062 H 
ATOM     54  H   UNL A   1      41.628  34.240  38.254  1.00  0.00     0.062 H 
ATOM     55  H   UNL A   1      41.144  36.552  37.701  1.00  0.00     0.062 H 
ENDBRANCH  42  45
ENDBRANCH   8  42
ENDBRANCH   5   8
ENDBRANCH   1   4
BRANCH   1  56
ATOM     56  C   UNL A   1      36.341  31.352  32.625  1.00  0.00    -0.036 C 
ATOM     57  H   UNL A   1      35.915  31.564  33.584  1.00  0.00     0.028 H 
ATOM     58  H   UNL A   1      35.704  30.769  31.994  1.00  0.00     0.028 H 
BRANCH  56  59
ATOM     59  C   UNL A   1      36.558  32.682  31.899  1.00  0.00    -0.052 C 
ATOM     60  H   UNL A   1      37.599  32.925  31.968  1.00  0.00     0.027 H 
ATOM     61  H   UNL A   1      35.907  33.379  32.383  1.00  0.00     0.027 H 
BRANCH  59  62
ATOM     62  C   UNL A   1      36.168  32.720  30.416  1.00  0.00    -0.052 C 
ATOM     63  H   UNL A   1      36.698  31.934  29.920  1.00  0.00     0.027 H 
ATOM     64  H   UNL A   1      36.418  33.705  30.082  1.00  0.00     0.027 H 
BRANCH  62  65
ATOM     65  C   UNL A   1      34.679  32.551  30.097  1.00  0.00    -0.036 C 
ATOM     66  H   UNL A   1      34.152  33.357  30.563  1.00  0.00     0.028 H 
ATOM     67  H   UNL A   1      34.412  31.583  30.467  1.00  0.00     0.028 H 
BRANCH  65  68
ATOM     68  C   UNL A   1      34.310  32.545  28.617  1.00  0.00     0.018 C 
ATOM     69  H   UNL A   1      35.191  32.747  28.044  1.00  0.00     0.049 H 
ATOM     70  H   UNL A   1      33.560  33.293  28.470  1.00  0.00     0.049 H 
BRANCH  68  71
ATOM     71  N   UNL A   1      33.755  31.276  28.183  1.00  0.00    -0.352 N 
ATOM     72  C   UNL A   1      34.368  30.079  27.921  1.00  0.00     0.251 C 
ATOM     73  H   UNL A   1      32.778  31.275  28.057  1.00  0.00     0.163 HD
ATOM     74  O   UNL A   1      33.719  29.163  27.421  1.00  0.00    -0.269 OA
BRANCH  72  75
ATOM     75  C   UNL A   1      35.807  29.875  28.208  1.00  0.00     0.039 A 
ATOM     76  C   UNL A   1      36.166  29.294  29.428  1.00  0.00    -0.049 A 
ATOM     77  C   UNL A   1      36.803  30.291  27.319  1.00  0.00    -0.049 A 
ATOM     78  C   UNL A   1      37.513  29.080  29.734  1.00  0.00    -0.053 A 
ATOM     79  H   UNL A   1      35.435  29.023  30.105  1.00  0.00     0.063 H 
ATOM     80  C   UNL A   1      38.142  30.013  27.593  1.00  0.00    -0.053 A 
ATOM     81  H   UNL A   1      36.547  30.801  26.460  1.00  0.00     0.063 H 
ATOM     82  C   UNL A   1      38.512  29.411  28.806  1.00  0.00    -0.014 A 
ATOM     83  H   UNL A   1      37.774  28.676  30.647  1.00  0.00     0.063 H 
ATOM     84  H   UNL A   1      38.867  30.252  26.899  1.00  0.00     0.063 H 
BRANCH  82  85
ATOM     85  C   UNL A   1      39.944  29.139  29.091  1.00  0.00     0.031 A 
ATOM     86  C   UNL A   1      40.794  30.173  29.774  1.00  0.00     0.074 A 
ATOM     87  C   UNL A   1      40.498  27.984  28.673  1.00  0.00     0.049 A 
ATOM     88  N   UNL A   1      42.075  30.145  30.046  1.00  0.00    -0.248 NA
ATOM     89  C   UNL A   1      40.122  31.417  30.180  1.00  0.00    -0.034 C 
ATOM     90  C   UNL A   1      39.795  26.924  27.951  1.00  0.00    -0.036 A 
ATOM     91  N   UNL A   1      41.784  27.516  28.781  1.00  0.00    -0.354 N 
ATOM     92  C   UNL A   1      42.365  31.371  30.631  1.00  0.00     0.074 A 
ATOM     93  C   UNL A   1      41.136  32.137  30.635  1.00  0.00    -0.034 C 
ATOM     94  H   UNL A   1      39.121  31.663  30.124  1.00  0.00     0.065 H 
ATOM     95  C   UNL A   1      40.654  25.925  27.690  1.00  0.00    -0.036 A 
ATOM     96  H   UNL A   1      38.798  26.940  27.685  1.00  0.00     0.065 H 
ATOM     97  C   UNL A   1      41.974  26.288  28.198  1.00  0.00     0.049 A 
ATOM     98  H   UNL A   1      42.503  28.016  29.233  1.00  0.00     0.167 HD
ATOM     99  C   UNL A   1      43.543  31.810  31.134  1.00  0.00     0.037 A 
ATOM    100  H   UNL A   1      41.061  33.116  30.951  1.00  0.00     0.065 H 
ATOM    101  H   UNL A   1      40.419  25.043  27.210  1.00  0.00     0.065 H 
ATOM    102  C   UNL A   1      43.088  25.541  28.079  1.00  0.00     0.037 A 
ATOM    103  C   UNL A   1      44.754  31.033  31.163  1.00  0.00     0.049 A 
ATOM    104  C   UNL A   1      44.377  26.038  28.670  1.00  0.00     0.074 A 
ATOM    105  C   UNL A   1      45.973  31.355  31.733  1.00  0.00    -0.036 A 
ATOM    106  N   UNL A   1      44.899  29.776  30.594  1.00  0.00    -0.354 N 
ATOM    107  N   UNL A   1      44.620  27.164  29.293  1.00  0.00    -0.248 NA
ATOM    108  C   UNL A   1      45.546  25.155  28.549  1.00  0.00    -0.034 C 
ATOM    109  C   UNL A   1      46.870  30.313  31.468  1.00  0.00    -0.036 A 
ATOM    110  H   UNL A   1      46.185  32.215  32.261  1.00  0.00     0.065 H 
ATOM    111  C   UNL A   1      46.195  29.320  30.776  1.00  0.00     0.049 A 
ATOM    112  H   UNL A   1      44.186  29.281  30.130  1.00  0.00     0.167 HD
ATOM    113  C   UNL A   1      45.959  27.120  29.656  1.00  0.00     0.074 A 
ATOM    114  C   UNL A   1      46.473  25.846  29.198  1.00  0.00    -0.034 C 
ATOM    115  H   UNL A   1      45.625  24.237  28.083  1.00  0.00     0.065 H 
ATOM    116  H   UNL A   1      47.864  30.289  31.743  1.00  0.00     0.065 H 
ATOM    117  C   UNL A   1      46.695  28.051  30.312  1.00  0.00     0.037 A 
ATOM    118  H   UNL A   1      47.439  25.518  29.355  1.00  0.00     0.065 H 
BRANCH  99 119
ATOM    119  C   UNL A   1      43.581  33.203  31.696  1.00  0.00     0.064 A 
ATOM    120  C   UNL A   1      43.686  34.331  30.869  1.00  0.00     0.173 A 
ATOM    121  C   UNL A   1      43.483  33.412  33.080  1.00  0.00     0.173 A 
ATOM    122  F   UNL A   1      43.792  34.185  29.539  1.00  0.00    -0.203 F 
ATOM    123  C   UNL A   1      43.726  35.615  31.407  1.00  0.00     0.198 A 
ATOM    124  C   UNL A   1      43.493  34.699  33.614  1.00  0.00     0.198 A 
ATOM    125  F   UNL A   1      43.373  32.369  33.916  1.00  0.00    -0.203 F 
ATOM    126  F   UNL A   1      43.880  36.673  30.600  1.00  0.00    -0.200 F 
ATOM    127  C   UNL A   1      43.623  35.798  32.778  1.00  0.00     0.200 A 
ATOM    128  F   UNL A   1      43.380  34.875  34.937  1.00  0.00    -0.200 F 
ATOM    129  F   UNL A   1      43.659  37.034  33.295  1.00  0.00    -0.200 F 
ENDBRANCH  99 119
BRANCH 102 130
ATOM    130  C   UNL A   1      43.019  24.228  27.387  1.00  0.00     0.064 A 
ATOM    131  C   UNL A   1      42.648  23.067  28.078  1.00  0.00     0.173 A 
ATOM    132  C   UNL A   1      43.302  24.111  26.018  1.00  0.00     0.173 A 
ATOM    133  F   UNL A   1      42.387  23.126  29.392  1.00  0.00    -0.203 F 
ATOM    134  C   UNL A   1      42.573  21.837  27.430  1.00  0.00     0.198 A 
ATOM    135  C   UNL A   1      43.203  22.884  25.365  1.00  0.00     0.198 A 
ATOM    136  F   UNL A   1      43.655  25.195  25.310  1.00  0.00    -0.203 F 
ATOM    137  F   UNL A   1      42.250  20.736  28.122  1.00  0.00    -0.200 F 
ATOM    138  C   UNL A   1      42.845  21.748  26.073  1.00  0.00     0.200 A 
ATOM    139  F   UNL A   1      43.451  22.806  24.050  1.00  0.00    -0.200 F 
ATOM    140  F   UNL A   1      42.763  20.565  25.447  1.00  0.00    -0.200 F 
ENDBRANCH 102 130
BRANCH 117 141
ATOM    141  C   UNL A   1      48.132  27.720  30.592  1.00  0.00     0.064 A 
ATOM    142  C   UNL A   1      49.155  28.087  29.707  1.00  0.00     0.173 A 
ATOM    143  C   UNL A   1      48.491  27.066  31.779  1.00  0.00     0.173 A 
ATOM    144  F   UNL A   1      48.860  28.700  28.550  1.00  0.00    -0.203 F 
ATOM    145  C   UNL A   1      50.486  27.792  29.991  1.00  0.00     0.198 A 
ATOM    146  C   UNL A   1      49.826  26.797  32.073  1.00  0.00     0.198 A 
ATOM    147  F   UNL A   1      47.550  26.698  32.662  1.00  0.00    -0.203 F 
ATOM    148  F   UNL A   1      51.444  28.114  29.110  1.00  0.00    -0.200 F 
ATOM    149  C   UNL A   1      50.820  27.155  31.176  1.00  0.00     0.200 A 
ATOM    150  F   UNL A   1      50.148  26.191  33.225  1.00  0.00    -0.200 F 
ATOM    151  F   UNL A   1      52.103  26.879  31.451  1.00  0.00    -0.200 F 
ENDBRANCH 117 141
ENDBRANCH  82  85
ENDBRANCH  72  75
ENDBRANCH  68  71
ENDBRANCH  65  68
ENDBRANCH  62  65
ENDBRANCH  59  62
ENDBRANCH  56  59
ENDBRANCH   1  56
TORSDOF 23
ENDMDL
MODEL 7
REMARK VINA RESULT:     -10.1      5.530      9.610
REMARK SMILES CC(C)(C)OC(=O)N1CCC[C@H]1C(=O)N[C@@H](Cc1ccccc1)C(=O)NCCCCCCNC(=O)c1ccc(-c2c3nc(c(-c4c(F)c(F)c(F)c(F)c4F)c4ccc([nH]4)c(-c4c(F)c(F)c(F)c(F)c4F)c4nc(c(-c5c(F)c(F)c(F)c(F)c5F)c5ccc2[nH]5)C=C4)C=C3)cc1
REMARK SMILES IDX 27 1 26 4 24 5 25 6 16 8 15 10 13 11 14 12 12 14 8 15 9 16
REMARK SMILES IDX 10 17 11 20 6 26 7 27 5 28 2 29 1 30 3 34 4 38 17 42 18 45
REMARK SMILES IDX 19 46 23 47 20 48 22 50 21 52 28 56 29 59 30 62 31 65 32 68
REMARK SMILES IDX 33 71 34 72 35 74 36 75 37 76 98 77 38 78 97 80 39 82 40 85
REMARK SMILES IDX 41 86 91 87 42 88 96 89 90 90 92 91 43 92 95 93 89 95 88 97
REMARK SMILES IDX 44 99 76 102 56 103 75 104 57 105 60 106 74 107 93 108
REMARK SMILES IDX 58 109 59 111 73 113 94 114 61 117 45 119 46 120 54 121
REMARK SMILES IDX 47 122 48 123 52 124 55 125 49 126 50 127 53 128 51 129
REMARK SMILES IDX 77 130 78 131 86 132 79 133 80 134 84 135 87 136 81 137
REMARK SMILES IDX 82 138 85 139 83 140 62 141 63 142 71 143 64 144 65 145
REMARK SMILES IDX 69 146 72 147 66 148 67 149 70 150 68 151
REMARK H PARENT 27 2 27 3 26 7 16 9 15 13 9 18 9 19 12 21 10 22 10 23 11 24
REMARK H PARENT 11 25 1 31 1 32 1 33 3 35 3 36 3 37 4 39 4 40 4 41 17 43 17 44
REMARK H PARENT 19 49 23 51 20 53 22 54 21 55 28 57 28 58 29 60 29 61 30 63
REMARK H PARENT 30 64 31 66 31 67 32 69 32 70 33 73 37 79 98 81 38 83 97 84
REMARK H PARENT 96 94 90 96 92 98 95 100 89 101 57 110 60 112 93 115 58 116
REMARK H PARENT 94 118
REMARK Flexibility Score: inf
ROOT
ATOM      1  C   UNL A   1      46.563  27.770  25.306  1.00  0.00     0.017 C 
ATOM      2  H   UNL A   1      46.513  27.305  26.268  1.00  0.00     0.049 H 
ATOM      3  H   UNL A   1      46.770  28.818  25.362  1.00  0.00     0.049 H 
ENDROOT
BRANCH   1   4
ATOM      4  N   UNL A   1      45.273  27.634  24.670  1.00  0.00    -0.354 N 
ATOM      5  C   UNL A   1      44.068  27.301  25.212  1.00  0.00     0.242 C 
ATOM      6  O   UNL A   1      43.060  27.645  24.581  1.00  0.00    -0.273 OA
ATOM      7  H   UNL A   1      45.264  27.807  23.701  1.00  0.00     0.163 HD
BRANCH   5   8
ATOM      8  C   UNL A   1      43.903  26.639  26.602  1.00  0.00     0.112 C 
ATOM      9  H   UNL A   1      42.957  26.147  26.520  1.00  0.00     0.064 H 
BRANCH   8  10
ATOM     10  N   UNL A   1      44.838  25.545  26.895  1.00  0.00    -0.342 N 
ATOM     11  C   UNL A   1      44.602  24.204  27.011  1.00  0.00     0.243 C 
ATOM     12  O   UNL A   1      45.556  23.485  27.315  1.00  0.00    -0.273 OA
ATOM     13  H   UNL A   1      45.774  25.819  27.026  1.00  0.00     0.164 HD
BRANCH  11  14
ATOM     14  C   UNL A   1      43.158  23.681  26.888  1.00  0.00     0.114 C 
ATOM     15  N   UNL A   1      43.087  22.294  26.450  1.00  0.00    -0.296 N 
ATOM     16  C   UNL A   1      42.582  21.425  27.489  1.00  0.00     0.025 C 
ATOM     17  C   UNL A   1      41.742  22.354  28.344  1.00  0.00    -0.033 C 
ATOM     18  H   UNL A   1      43.384  21.001  28.057  1.00  0.00     0.050 H 
ATOM     19  H   UNL A   1      42.029  20.592  27.107  1.00  0.00     0.050 H 
ATOM     20  C   UNL A   1      42.490  23.682  28.271  1.00  0.00    -0.022 C 
ATOM     21  H   UNL A   1      42.685  24.322  26.175  1.00  0.00     0.064 H 
ATOM     22  H   UNL A   1      41.687  22.001  29.352  1.00  0.00     0.029 H 
ATOM     23  H   UNL A   1      40.729  22.428  28.006  1.00  0.00     0.029 H 
ATOM     24  H   UNL A   1      43.225  23.743  29.045  1.00  0.00     0.029 H 
ATOM     25  H   UNL A   1      41.838  24.520  28.403  1.00  0.00     0.029 H 
BRANCH  15  26
ATOM     26  C   UNL A   1      43.356  21.950  25.149  1.00  0.00     0.410 C 
ATOM     27  O   UNL A   1      43.476  22.772  24.256  1.00  0.00    -0.224 OA
BRANCH  26  28
ATOM     28  O   UNL A   1      43.404  20.604  24.990  1.00  0.00    -0.444 OA
BRANCH  28  29
ATOM     29  C   UNL A   1      44.655  19.874  24.913  1.00  0.00     0.106 C 
BRANCH  29  30
ATOM     30  C   UNL A   1      44.789  19.487  23.432  1.00  0.00    -0.025 C 
ATOM     31  H   UNL A   1      45.825  19.442  23.168  1.00  0.00     0.027 H 
ATOM     32  H   UNL A   1      44.297  20.219  22.827  1.00  0.00     0.027 H 
ATOM     33  H   UNL A   1      44.339  18.530  23.271  1.00  0.00     0.027 H 
ENDBRANCH  29  30
BRANCH  29  34
ATOM     34  C   UNL A   1      44.530  18.608  25.762  1.00  0.00    -0.025 C 
ATOM     35  H   UNL A   1      45.308  18.591  26.496  1.00  0.00     0.027 H 
ATOM     36  H   UNL A   1      44.615  17.746  25.132  1.00  0.00     0.027 H 
ATOM     37  H   UNL A   1      43.578  18.598  26.250  1.00  0.00     0.027 H 
ENDBRANCH  29  34
BRANCH  29  38
ATOM     38  C   UNL A   1      45.897  20.686  25.304  1.00  0.00    -0.025 C 
ATOM     39  H   UNL A   1      45.678  21.730  25.234  1.00  0.00     0.027 H 
ATOM     40  H   UNL A   1      46.703  20.446  24.641  1.00  0.00     0.027 H 
ATOM     41  H   UNL A   1      46.179  20.447  26.308  1.00  0.00     0.027 H 
ENDBRANCH  29  38
ENDBRANCH  28  29
ENDBRANCH  26  28
ENDBRANCH  15  26
ENDBRANCH  11  14
ENDBRANCH   8  10
BRANCH   8  42
ATOM     42  C   UNL A   1      43.746  27.641  27.767  1.00  0.00     0.002 C 
ATOM     43  H   UNL A   1      44.221  28.553  27.470  1.00  0.00     0.034 H 
ATOM     44  H   UNL A   1      44.182  27.146  28.609  1.00  0.00     0.034 H 
BRANCH  42  45
ATOM     45  C   UNL A   1      42.346  27.988  28.213  1.00  0.00    -0.045 A 
ATOM     46  C   UNL A   1      41.610  28.966  27.527  1.00  0.00    -0.059 A 
ATOM     47  C   UNL A   1      41.755  27.350  29.314  1.00  0.00    -0.059 A 
ATOM     48  C   UNL A   1      40.335  29.333  27.963  1.00  0.00    -0.062 A 
ATOM     49  H   UNL A   1      42.015  29.420  26.693  1.00  0.00     0.063 H 
ATOM     50  C   UNL A   1      40.488  27.733  29.760  1.00  0.00    -0.062 A 
ATOM     51  H   UNL A   1      42.260  26.591  29.798  1.00  0.00     0.063 H 
ATOM     52  C   UNL A   1      39.780  28.727  29.088  1.00  0.00    -0.062 A 
ATOM     53  H   UNL A   1      39.802  30.053  27.451  1.00  0.00     0.062 H 
ATOM     54  H   UNL A   1      40.075  27.278  30.590  1.00  0.00     0.062 H 
ATOM     55  H   UNL A   1      38.847  29.013  29.422  1.00  0.00     0.062 H 
ENDBRANCH  42  45
ENDBRANCH   8  42
ENDBRANCH   5   8
ENDBRANCH   1   4
BRANCH   1  56
ATOM     56  C   UNL A   1      47.710  27.139  24.529  1.00  0.00    -0.036 C 
ATOM     57  H   UNL A   1      47.678  27.517  23.528  1.00  0.00     0.028 H 
ATOM     58  H   UNL A   1      47.564  26.080  24.591  1.00  0.00     0.028 H 
BRANCH  56  59
ATOM     59  C   UNL A   1      49.107  27.409  25.093  1.00  0.00    -0.052 C 
ATOM     60  H   UNL A   1      49.264  26.737  25.911  1.00  0.00     0.027 H 
ATOM     61  H   UNL A   1      49.109  28.444  25.363  1.00  0.00     0.027 H 
BRANCH  59  62
ATOM     62  C   UNL A   1      50.279  27.239  24.118  1.00  0.00    -0.052 C 
ATOM     63  H   UNL A   1      50.344  28.129  23.529  1.00  0.00     0.027 H 
ATOM     64  H   UNL A   1      50.056  26.353  23.560  1.00  0.00     0.027 H 
BRANCH  62  65
ATOM     65  C   UNL A   1      51.655  26.989  24.741  1.00  0.00    -0.036 C 
ATOM     66  H   UNL A   1      51.775  27.672  25.555  1.00  0.00     0.028 H 
ATOM     67  H   UNL A   1      52.361  27.127  23.948  1.00  0.00     0.028 H 
BRANCH  65  68
ATOM     68  C   UNL A   1      51.902  25.581  25.273  1.00  0.00     0.018 C 
ATOM     69  H   UNL A   1      52.221  24.960  24.463  1.00  0.00     0.049 H 
ATOM     70  H   UNL A   1      50.986  25.235  25.703  1.00  0.00     0.049 H 
BRANCH  68  71
ATOM     71  N   UNL A   1      52.914  25.544  26.313  1.00  0.00    -0.352 N 
ATOM     72  C   UNL A   1      52.854  25.928  27.628  1.00  0.00     0.251 C 
ATOM     73  H   UNL A   1      53.785  25.184  26.028  1.00  0.00     0.163 HD
ATOM     74  O   UNL A   1      53.882  25.943  28.301  1.00  0.00    -0.269 OA
BRANCH  72  75
ATOM     75  C   UNL A   1      51.576  26.347  28.247  1.00  0.00     0.039 A 
ATOM     76  C   UNL A   1      51.574  27.481  29.066  1.00  0.00    -0.049 A 
ATOM     77  C   UNL A   1      50.397  25.616  28.074  1.00  0.00    -0.049 A 
ATOM     78  C   UNL A   1      50.386  27.913  29.663  1.00  0.00    -0.053 A 
ATOM     79  H   UNL A   1      52.451  28.000  29.230  1.00  0.00     0.063 H 
ATOM     80  C   UNL A   1      49.199  26.087  28.611  1.00  0.00    -0.053 A 
ATOM     81  H   UNL A   1      50.413  24.730  27.546  1.00  0.00     0.063 H 
ATOM     82  C   UNL A   1      49.182  27.236  29.417  1.00  0.00    -0.014 A 
ATOM     83  H   UNL A   1      50.395  28.734  30.288  1.00  0.00     0.063 H 
ATOM     84  H   UNL A   1      48.318  25.586  28.416  1.00  0.00     0.063 H 
BRANCH  82  85
ATOM     85  C   UNL A   1      47.901  27.713  29.999  1.00  0.00     0.031 A 
ATOM     86  C   UNL A   1      47.258  26.971  31.136  1.00  0.00     0.074 A 
ATOM     87  C   UNL A   1      47.281  28.780  29.457  1.00  0.00     0.049 A 
ATOM     88  N   UNL A   1      46.111  27.194  31.729  1.00  0.00    -0.248 NA
ATOM     89  C   UNL A   1      47.985  25.803  31.658  1.00  0.00    -0.034 C 
ATOM     90  C   UNL A   1      47.774  29.553  28.318  1.00  0.00    -0.036 A 
ATOM     91  N   UNL A   1      46.094  29.388  29.784  1.00  0.00    -0.354 N 
ATOM     92  C   UNL A   1      45.970  26.186  32.673  1.00  0.00     0.074 A 
ATOM     93  C   UNL A   1      47.126  25.324  32.545  1.00  0.00    -0.034 C 
ATOM     94  H   UNL A   1      48.920  25.451  31.399  1.00  0.00     0.065 H 
ATOM     95  C   UNL A   1      46.903  30.539  28.046  1.00  0.00    -0.036 A 
ATOM     96  H   UNL A   1      48.650  29.371  27.804  1.00  0.00     0.065 H 
ATOM     97  C   UNL A   1      45.777  30.448  28.971  1.00  0.00     0.049 A 
ATOM     98  H   UNL A   1      45.524  29.090  30.530  1.00  0.00     0.167 HD
ATOM     99  C   UNL A   1      44.976  26.006  33.576  1.00  0.00     0.037 A 
ATOM    100  H   UNL A   1      47.263  24.450  33.077  1.00  0.00     0.065 H 
ATOM    101  H   UNL A   1      47.013  31.247  27.303  1.00  0.00     0.065 H 
ATOM    102  C   UNL A   1      44.697  31.252  28.966  1.00  0.00     0.037 A 
ATOM    103  C   UNL A   1      43.847  26.885  33.727  1.00  0.00     0.049 A 
ATOM    104  C   UNL A   1      43.620  31.048  29.995  1.00  0.00     0.074 A 
ATOM    105  C   UNL A   1      42.836  26.838  34.671  1.00  0.00    -0.036 A 
ATOM    106  N   UNL A   1      43.578  27.971  32.906  1.00  0.00    -0.354 N 
ATOM    107  N   UNL A   1      43.538  30.140  30.936  1.00  0.00    -0.248 NA
ATOM    108  C   UNL A   1      42.491  31.988  29.968  1.00  0.00    -0.034 C 
ATOM    109  C   UNL A   1      41.930  27.868  34.394  1.00  0.00    -0.036 A 
ATOM    110  H   UNL A   1      42.763  26.161  35.445  1.00  0.00     0.065 H 
ATOM    111  C   UNL A   1      42.402  28.586  33.307  1.00  0.00     0.049 A 
ATOM    112  H   UNL A   1      44.139  28.262  32.152  1.00  0.00     0.167 HD
ATOM    113  C   UNL A   1      42.363  30.408  31.624  1.00  0.00     0.074 A 
ATOM    114  C   UNL A   1      41.773  31.576  31.003  1.00  0.00    -0.034 C 
ATOM    115  H   UNL A   1      42.305  32.766  29.315  1.00  0.00     0.065 H 
ATOM    116  H   UNL A   1      41.059  28.060  34.912  1.00  0.00     0.065 H 
ATOM    117  C   UNL A   1      41.824  29.747  32.678  1.00  0.00     0.037 A 
ATOM    118  H   UNL A   1      40.903  32.028  31.325  1.00  0.00     0.065 H 
BRANCH  99 119
ATOM    119  C   UNL A   1      45.065  24.805  34.474  1.00  0.00     0.064 A 
ATOM    120  C   UNL A   1      44.613  23.541  34.066  1.00  0.00     0.173 A 
ATOM    121  C   UNL A   1      45.636  24.916  35.752  1.00  0.00     0.173 A 
ATOM    122  F   UNL A   1      44.051  23.384  32.858  1.00  0.00    -0.203 F 
ATOM    123  C   UNL A   1      44.697  22.441  34.915  1.00  0.00     0.198 A 
ATOM    124  C   UNL A   1      45.747  23.806  36.587  1.00  0.00     0.198 A 
ATOM    125  F   UNL A   1      46.091  26.099  36.189  1.00  0.00    -0.203 F 
ATOM    126  F   UNL A   1      44.211  21.255  34.523  1.00  0.00    -0.200 F 
ATOM    127  C   UNL A   1      45.270  22.572  36.172  1.00  0.00     0.200 A 
ATOM    128  F   UNL A   1      46.311  23.933  37.795  1.00  0.00    -0.200 F 
ATOM    129  F   UNL A   1      45.353  21.512  36.987  1.00  0.00    -0.200 F 
ENDBRANCH  99 119
BRANCH 102 130
ATOM    130  C   UNL A   1      44.598  32.339  27.959  1.00  0.00     0.064 A 
ATOM    131  C   UNL A   1      44.160  32.077  26.655  1.00  0.00     0.173 A 
ATOM    132  C   UNL A   1      44.918  33.666  28.287  1.00  0.00     0.173 A 
ATOM    133  F   UNL A   1      43.861  30.821  26.290  1.00  0.00    -0.203 F 
ATOM    134  C   UNL A   1      44.057  33.096  25.711  1.00  0.00     0.198 A 
ATOM    135  C   UNL A   1      44.790  34.688  27.349  1.00  0.00     0.198 A 
ATOM    136  F   UNL A   1      45.335  33.969  29.525  1.00  0.00    -0.203 F 
ATOM    137  F   UNL A   1      43.668  32.812  24.460  1.00  0.00    -0.200 F 
ATOM    138  C   UNL A   1      44.366  34.402  26.061  1.00  0.00     0.200 A 
ATOM    139  F   UNL A   1      45.076  35.951  27.697  1.00  0.00    -0.200 F 
ATOM    140  F   UNL A   1      44.257  35.384  25.156  1.00  0.00    -0.200 F 
ENDBRANCH 102 130
BRANCH 117 141
ATOM    141  C   UNL A   1      40.539  30.280  33.240  1.00  0.00     0.064 A 
ATOM    142  C   UNL A   1      40.506  31.450  34.013  1.00  0.00     0.173 A 
ATOM    143  C   UNL A   1      39.323  29.638  32.966  1.00  0.00     0.173 A 
ATOM    144  F   UNL A   1      41.644  32.092  34.316  1.00  0.00    -0.203 F 
ATOM    145  C   UNL A   1      39.302  31.944  34.510  1.00  0.00     0.198 A 
ATOM    146  C   UNL A   1      38.119  30.151  33.442  1.00  0.00     0.198 A 
ATOM    147  F   UNL A   1      39.300  28.518  32.228  1.00  0.00    -0.203 F 
ATOM    148  F   UNL A   1      39.299  33.041  35.282  1.00  0.00    -0.200 F 
ATOM    149  C   UNL A   1      38.111  31.299  34.218  1.00  0.00     0.200 A 
ATOM    150  F   UNL A   1      36.966  29.532  33.148  1.00  0.00    -0.200 F 
ATOM    151  F   UNL A   1      36.953  31.782  34.690  1.00  0.00    -0.200 F 
ENDBRANCH 117 141
ENDBRANCH  82  85
ENDBRANCH  72  75
ENDBRANCH  68  71
ENDBRANCH  65  68
ENDBRANCH  62  65
ENDBRANCH  59  62
ENDBRANCH  56  59
ENDBRANCH   1  56
TORSDOF 23
ENDMDL
MODEL 8
REMARK VINA RESULT:     -10.0      6.061     11.166
REMARK SMILES CC(C)(C)OC(=O)N1CCC[C@H]1C(=O)N[C@@H](Cc1ccccc1)C(=O)NCCCCCCNC(=O)c1ccc(-c2c3nc(c(-c4c(F)c(F)c(F)c(F)c4F)c4ccc([nH]4)c(-c4c(F)c(F)c(F)c(F)c4F)c4nc(c(-c5c(F)c(F)c(F)c(F)c5F)c5ccc2[nH]5)C=C4)C=C3)cc1
REMARK SMILES IDX 27 1 26 4 24 5 25 6 16 8 15 10 13 11 14 12 12 14 8 15 9 16
REMARK SMILES IDX 10 17 11 20 6 26 7 27 5 28 2 29 1 30 3 34 4 38 17 42 18 45
REMARK SMILES IDX 19 46 23 47 20 48 22 50 21 52 28 56 29 59 30 62 31 65 32 68
REMARK SMILES IDX 33 71 34 72 35 74 36 75 37 76 98 77 38 78 97 80 39 82 40 85
REMARK SMILES IDX 41 86 91 87 42 88 96 89 90 90 92 91 43 92 95 93 89 95 88 97
REMARK SMILES IDX 44 99 76 102 56 103 75 104 57 105 60 106 74 107 93 108
REMARK SMILES IDX 58 109 59 111 73 113 94 114 61 117 45 119 46 120 54 121
REMARK SMILES IDX 47 122 48 123 52 124 55 125 49 126 50 127 53 128 51 129
REMARK SMILES IDX 77 130 78 131 86 132 79 133 80 134 84 135 87 136 81 137
REMARK SMILES IDX 82 138 85 139 83 140 62 141 63 142 71 143 64 144 65 145
REMARK SMILES IDX 69 146 72 147 66 148 67 149 70 150 68 151
REMARK H PARENT 27 2 27 3 26 7 16 9 15 13 9 18 9 19 12 21 10 22 10 23 11 24
REMARK H PARENT 11 25 1 31 1 32 1 33 3 35 3 36 3 37 4 39 4 40 4 41 17 43 17 44
REMARK H PARENT 19 49 23 51 20 53 22 54 21 55 28 57 28 58 29 60 29 61 30 63
REMARK H PARENT 30 64 31 66 31 67 32 69 32 70 33 73 37 79 98 81 38 83 97 84
REMARK H PARENT 96 94 90 96 92 98 95 100 89 101 57 110 60 112 93 115 58 116
REMARK H PARENT 94 118
REMARK Flexibility Score: inf
ROOT
ATOM      1  C   UNL A   1      34.274  29.271  27.148  1.00  0.00     0.017 C 
ATOM      2  H   UNL A   1      34.381  29.867  26.267  1.00  0.00     0.049 H 
ATOM      3  H   UNL A   1      34.657  28.280  27.027  1.00  0.00     0.049 H 
ENDROOT
BRANCH   1   4
ATOM      4  N   UNL A   1      32.865  29.141  27.439  1.00  0.00    -0.354 N 
ATOM      5  C   UNL A   1      32.044  28.064  27.289  1.00  0.00     0.242 C 
ATOM      6  O   UNL A   1      31.011  28.053  27.972  1.00  0.00    -0.273 OA
ATOM      7  H   UNL A   1      32.435  29.950  27.799  1.00  0.00     0.163 HD
BRANCH   5   8
ATOM      8  C   UNL A   1      32.391  26.831  26.419  1.00  0.00     0.112 C 
ATOM      9  H   UNL A   1      33.421  26.659  26.650  1.00  0.00     0.064 H 
BRANCH   8  10
ATOM     10  N   UNL A   1      31.735  25.578  26.810  1.00  0.00    -0.342 N 
ATOM     11  C   UNL A   1      31.680  24.380  26.154  1.00  0.00     0.243 C 
ATOM     12  O   UNL A   1      31.017  23.480  26.672  1.00  0.00    -0.273 OA
ATOM     13  H   UNL A   1      31.265  25.604  27.675  1.00  0.00     0.164 HD
BRANCH  11  14
ATOM     14  C   UNL A   1      32.329  24.255  24.763  1.00  0.00     0.114 C 
ATOM     15  N   UNL A   1      33.458  23.336  24.738  1.00  0.00    -0.296 N 
ATOM     16  C   UNL A   1      33.177  22.154  23.954  1.00  0.00     0.025 C 
ATOM     17  C   UNL A   1      32.122  22.629  22.973  1.00  0.00    -0.033 C 
ATOM     18  H   UNL A   1      32.799  21.366  24.573  1.00  0.00     0.050 H 
ATOM     19  H   UNL A   1      34.045  21.752  23.475  1.00  0.00     0.050 H 
ATOM     20  C   UNL A   1      31.320  23.650  23.776  1.00  0.00    -0.022 C 
ATOM     21  H   UNL A   1      32.647  25.244  24.508  1.00  0.00     0.064 H 
ATOM     22  H   UNL A   1      31.501  21.819  22.657  1.00  0.00     0.029 H 
ATOM     23  H   UNL A   1      32.543  23.041  22.080  1.00  0.00     0.029 H 
ATOM     24  H   UNL A   1      30.521  23.171  24.300  1.00  0.00     0.029 H 
ATOM     25  H   UNL A   1      30.872  24.393  23.150  1.00  0.00     0.029 H 
BRANCH  15  26
ATOM     26  C   UNL A   1      34.661  23.680  25.304  1.00  0.00     0.410 C 
ATOM     27  O   UNL A   1      35.028  24.836  25.431  1.00  0.00    -0.224 OA
BRANCH  26  28
ATOM     28  O   UNL A   1      35.389  22.584  25.629  1.00  0.00    -0.444 OA
BRANCH  28  29
ATOM     29  C   UNL A   1      36.627  22.244  24.953  1.00  0.00     0.106 C 
BRANCH  29  30
ATOM     30  C   UNL A   1      36.674  20.708  24.979  1.00  0.00    -0.025 C 
ATOM     31  H   UNL A   1      36.432  20.328  24.008  1.00  0.00     0.027 H 
ATOM     32  H   UNL A   1      35.966  20.342  25.692  1.00  0.00     0.027 H 
ATOM     33  H   UNL A   1      37.656  20.386  25.253  1.00  0.00     0.027 H 
ENDBRANCH  29  30
BRANCH  29  34
ATOM     34  C   UNL A   1      37.794  22.803  25.767  1.00  0.00    -0.025 C 
ATOM     35  H   UNL A   1      38.242  23.618  25.238  1.00  0.00     0.027 H 
ATOM     36  H   UNL A   1      38.523  22.034  25.921  1.00  0.00     0.027 H 
ATOM     37  H   UNL A   1      37.436  23.147  26.715  1.00  0.00     0.027 H 
ENDBRANCH  29  34
BRANCH  29  38
ATOM     38  C   UNL A   1      36.702  22.694  23.488  1.00  0.00    -0.025 C 
ATOM     39  H   UNL A   1      35.943  22.197  22.922  1.00  0.00     0.027 H 
ATOM     40  H   UNL A   1      37.664  22.447  23.088  1.00  0.00     0.027 H 
ATOM     41  H   UNL A   1      36.555  23.752  23.432  1.00  0.00     0.027 H 
ENDBRANCH  29  38
ENDBRANCH  28  29
ENDBRANCH  26  28
ENDBRANCH  15  26
ENDBRANCH  11  14
ENDBRANCH   8  10
BRANCH   8  42
ATOM     42  C   UNL A   1      32.351  27.098  24.898  1.00  0.00     0.002 C 
ATOM     43  H   UNL A   1      32.466  26.154  24.405  1.00  0.00     0.034 H 
ATOM     44  H   UNL A   1      33.135  27.806  24.728  1.00  0.00     0.034 H 
BRANCH  42  45
ATOM     45  C   UNL A   1      31.116  27.755  24.330  1.00  0.00    -0.045 A 
ATOM     46  C   UNL A   1      29.983  26.983  24.030  1.00  0.00    -0.059 A 
ATOM     47  C   UNL A   1      31.073  29.136  24.089  1.00  0.00    -0.059 A 
ATOM     48  C   UNL A   1      28.854  27.571  23.456  1.00  0.00    -0.062 A 
ATOM     49  H   UNL A   1      29.984  25.971  24.235  1.00  0.00     0.063 H 
ATOM     50  C   UNL A   1      29.950  29.718  23.495  1.00  0.00    -0.062 A 
ATOM     51  H   UNL A   1      31.877  29.727  24.353  1.00  0.00     0.063 H 
ATOM     52  C   UNL A   1      28.843  28.935  23.175  1.00  0.00    -0.062 A 
ATOM     53  H   UNL A   1      28.026  26.994  23.240  1.00  0.00     0.062 H 
ATOM     54  H   UNL A   1      29.941  30.730  23.294  1.00  0.00     0.062 H 
ATOM     55  H   UNL A   1      28.017  29.365  22.731  1.00  0.00     0.062 H 
ENDBRANCH  42  45
ENDBRANCH   8  42
ENDBRANCH   5   8
ENDBRANCH   1   4
BRANCH   1  56
ATOM     56  C   UNL A   1      35.083  29.918  28.264  1.00  0.00    -0.036 C 
ATOM     57  H   UNL A   1      35.951  29.316  28.435  1.00  0.00     0.028 H 
ATOM     58  H   UNL A   1      34.430  29.975  29.110  1.00  0.00     0.028 H 
BRANCH  56  59
ATOM     59  C   UNL A   1      35.547  31.351  27.989  1.00  0.00    -0.052 C 
ATOM     60  H   UNL A   1      36.207  31.322  27.147  1.00  0.00     0.027 H 
ATOM     61  H   UNL A   1      36.002  31.681  28.899  1.00  0.00     0.027 H 
BRANCH  59  62
ATOM     62  C   UNL A   1      34.448  32.376  27.685  1.00  0.00    -0.052 C 
ATOM     63  H   UNL A   1      33.682  31.877  27.130  1.00  0.00     0.027 H 
ATOM     64  H   UNL A   1      34.937  33.167  27.155  1.00  0.00     0.027 H 
BRANCH  62  65
ATOM     65  C   UNL A   1      33.787  33.047  28.893  1.00  0.00    -0.036 C 
ATOM     66  H   UNL A   1      34.452  32.949  29.726  1.00  0.00     0.028 H 
ATOM     67  H   UNL A   1      32.848  32.550  29.023  1.00  0.00     0.028 H 
BRANCH  65  68
ATOM     68  C   UNL A   1      33.453  34.527  28.735  1.00  0.00     0.018 C 
ATOM     69  H   UNL A   1      32.759  34.637  27.928  1.00  0.00     0.049 H 
ATOM     70  H   UNL A   1      34.369  35.045  28.544  1.00  0.00     0.049 H 
BRANCH  68  71
ATOM     71  N   UNL A   1      32.868  35.101  29.933  1.00  0.00    -0.352 N 
ATOM     72  C   UNL A   1      33.234  34.981  31.249  1.00  0.00     0.251 C 
ATOM     73  H   UNL A   1      32.080  35.670  29.775  1.00  0.00     0.163 HD
ATOM     74  O   UNL A   1      32.505  35.441  32.124  1.00  0.00    -0.269 OA
BRANCH  72  75
ATOM     75  C   UNL A   1      34.483  34.286  31.636  1.00  0.00     0.039 A 
ATOM     76  C   UNL A   1      34.382  33.076  32.330  1.00  0.00    -0.049 A 
ATOM     77  C   UNL A   1      35.743  34.828  31.370  1.00  0.00    -0.049 A 
ATOM     78  C   UNL A   1      35.537  32.385  32.709  1.00  0.00    -0.053 A 
ATOM     79  H   UNL A   1      33.453  32.692  32.565  1.00  0.00     0.063 H 
ATOM     80  C   UNL A   1      36.894  34.106  31.684  1.00  0.00    -0.053 A 
ATOM     81  H   UNL A   1      35.822  35.762  30.940  1.00  0.00     0.063 H 
ATOM     82  C   UNL A   1      36.804  32.880  32.363  1.00  0.00    -0.014 A 
ATOM     83  H   UNL A   1      35.458  31.507  33.245  1.00  0.00     0.063 H 
ATOM     84  H   UNL A   1      37.820  34.475  31.417  1.00  0.00     0.063 H 
BRANCH  82  85
ATOM     85  C   UNL A   1      38.040  32.131  32.707  1.00  0.00     0.031 A 
ATOM     86  C   UNL A   1      38.814  32.471  33.950  1.00  0.00     0.074 A 
ATOM     87  C   UNL A   1      38.503  31.188  31.864  1.00  0.00     0.049 A 
ATOM     88  N   UNL A   1      39.948  31.977  34.381  1.00  0.00    -0.248 NA
ATOM     89  C   UNL A   1      38.256  33.528  34.807  1.00  0.00    -0.034 C 
ATOM     90  C   UNL A   1      37.875  30.804  30.601  1.00  0.00    -0.036 A 
ATOM     91  N   UNL A   1      39.620  30.393  31.936  1.00  0.00    -0.354 N 
ATOM     92  C   UNL A   1      40.249  32.677  35.542  1.00  0.00     0.074 A 
ATOM     93  C   UNL A   1      39.201  33.659  35.726  1.00  0.00    -0.034 C 
ATOM     94  H   UNL A   1      37.361  34.034  34.716  1.00  0.00     0.065 H 
ATOM     95  C   UNL A   1      38.608  29.840  30.021  1.00  0.00    -0.036 A 
ATOM     96  H   UNL A   1      37.007  31.208  30.216  1.00  0.00     0.065 H 
ATOM     97  C   UNL A   1      39.773  29.561  30.855  1.00  0.00     0.049 A 
ATOM     98  H   UNL A   1      40.252  30.418  32.691  1.00  0.00     0.167 HD
ATOM     99  C   UNL A   1      41.293  32.503  36.388  1.00  0.00     0.037 A 
ATOM    100  H   UNL A   1      39.193  34.369  36.474  1.00  0.00     0.065 H 
ATOM    101  H   UNL A   1      38.383  29.371  29.129  1.00  0.00     0.065 H 
ATOM    102  C   UNL A   1      40.747  28.677  30.564  1.00  0.00     0.037 A 
ATOM    103  C   UNL A   1      42.313  31.501  36.224  1.00  0.00     0.049 A 
ATOM    104  C   UNL A   1      41.881  28.483  31.532  1.00  0.00     0.074 A 
ATOM    105  C   UNL A   1      43.359  31.187  37.073  1.00  0.00    -0.036 A 
ATOM    106  N   UNL A   1      42.414  30.650  35.132  1.00  0.00    -0.354 N 
ATOM    107  N   UNL A   1      42.111  29.094  32.668  1.00  0.00    -0.248 NA
ATOM    108  C   UNL A   1      42.886  27.470  31.181  1.00  0.00    -0.034 C 
ATOM    109  C   UNL A   1      44.122  30.177  36.474  1.00  0.00    -0.036 A 
ATOM    110  H   UNL A   1      43.545  31.621  37.990  1.00  0.00     0.065 H 
ATOM    111  C   UNL A   1      43.522  29.829  35.274  1.00  0.00     0.049 A 
ATOM    112  H   UNL A   1      41.792  30.632  34.370  1.00  0.00     0.167 HD
ATOM    113  C   UNL A   1      43.272  28.528  33.177  1.00  0.00     0.074 A 
ATOM    114  C   UNL A   1      43.690  27.513  32.233  1.00  0.00    -0.034 C 
ATOM    115  H   UNL A   1      42.949  26.879  30.336  1.00  0.00     0.065 H 
ATOM    116  H   UNL A   1      44.984  29.763  36.861  1.00  0.00     0.065 H 
ATOM    117  C   UNL A   1      43.929  28.824  34.326  1.00  0.00     0.037 A 
ATOM    118  H   UNL A   1      44.511  26.901  32.364  1.00  0.00     0.065 H 
BRANCH  99 119
ATOM    119  C   UNL A   1      41.387  33.423  37.571  1.00  0.00     0.064 A 
ATOM    120  C   UNL A   1      40.574  33.257  38.703  1.00  0.00     0.173 A 
ATOM    121  C   UNL A   1      42.322  34.469  37.584  1.00  0.00     0.173 A 
ATOM    122  F   UNL A   1      39.657  32.278  38.737  1.00  0.00    -0.203 F 
ATOM    123  C   UNL A   1      40.670  34.124  39.789  1.00  0.00     0.198 A 
ATOM    124  C   UNL A   1      42.436  35.316  38.685  1.00  0.00     0.198 A 
ATOM    125  F   UNL A   1      43.129  34.669  36.532  1.00  0.00    -0.203 F 
ATOM    126  F   UNL A   1      39.846  33.976  40.836  1.00  0.00    -0.200 F 
ATOM    127  C   UNL A   1      41.605  35.148  39.782  1.00  0.00     0.200 A 
ATOM    128  F   UNL A   1      43.348  36.297  38.682  1.00  0.00    -0.200 F 
ATOM    129  F   UNL A   1      41.698  35.979  40.829  1.00  0.00    -0.200 F 
ENDBRANCH  99 119
BRANCH 102 130
ATOM    130  C   UNL A   1      40.672  27.892  29.305  1.00  0.00     0.064 A 
ATOM    131  C   UNL A   1      39.829  26.779  29.198  1.00  0.00     0.173 A 
ATOM    132  C   UNL A   1      41.426  28.252  28.178  1.00  0.00     0.173 A 
ATOM    133  F   UNL A   1      39.103  26.386  30.256  1.00  0.00    -0.203 F 
ATOM    134  C   UNL A   1      39.750  26.047  28.016  1.00  0.00     0.198 A 
ATOM    135  C   UNL A   1      41.327  27.534  26.988  1.00  0.00     0.198 A 
ATOM    136  F   UNL A   1      42.243  29.315  28.227  1.00  0.00    -0.203 F 
ATOM    137  F   UNL A   1      38.961  24.965  27.952  1.00  0.00    -0.200 F 
ATOM    138  C   UNL A   1      40.494  26.429  26.910  1.00  0.00     0.200 A 
ATOM    139  F   UNL A   1      42.037  27.916  25.917  1.00  0.00    -0.200 F 
ATOM    140  F   UNL A   1      40.410  25.730  25.769  1.00  0.00    -0.200 F 
ENDBRANCH 102 130
BRANCH 117 141
ATOM    141  C   UNL A   1      45.162  28.026  34.637  1.00  0.00     0.064 A 
ATOM    142  C   UNL A   1      46.437  28.465  34.251  1.00  0.00     0.173 A 
ATOM    143  C   UNL A   1      45.070  26.832  35.366  1.00  0.00     0.173 A 
ATOM    144  F   UNL A   1      46.576  29.593  33.538  1.00  0.00    -0.203 F 
ATOM    145  C   UNL A   1      47.573  27.724  34.566  1.00  0.00     0.198 A 
ATOM    146  C   UNL A   1      46.211  26.109  35.703  1.00  0.00     0.198 A 
ATOM    147  F   UNL A   1      43.874  26.371  35.763  1.00  0.00    -0.203 F 
ATOM    148  F   UNL A   1      48.778  28.141  34.151  1.00  0.00    -0.200 F 
ATOM    149  C   UNL A   1      47.460  26.552  35.298  1.00  0.00     0.200 A 
ATOM    150  F   UNL A   1      46.100  24.981  36.421  1.00  0.00    -0.200 F 
ATOM    151  F   UNL A   1      48.556  25.846  35.606  1.00  0.00    -0.200 F 
ENDBRANCH 117 141
ENDBRANCH  82  85
ENDBRANCH  72  75
ENDBRANCH  68  71
ENDBRANCH  65  68
ENDBRANCH  62  65
ENDBRANCH  59  62
ENDBRANCH  56  59
ENDBRANCH   1  56
TORSDOF 23
ENDMDL
MODEL 9
REMARK VINA RESULT:     -10.0      4.901      9.305
REMARK SMILES CC(C)(C)OC(=O)N1CCC[C@H]1C(=O)N[C@@H](Cc1ccccc1)C(=O)NCCCCCCNC(=O)c1ccc(-c2c3nc(c(-c4c(F)c(F)c(F)c(F)c4F)c4ccc([nH]4)c(-c4c(F)c(F)c(F)c(F)c4F)c4nc(c(-c5c(F)c(F)c(F)c(F)c5F)c5ccc2[nH]5)C=C4)C=C3)cc1
REMARK SMILES IDX 27 1 26 4 24 5 25 6 16 8 15 10 13 11 14 12 12 14 8 15 9 16
REMARK SMILES IDX 10 17 11 20 6 26 7 27 5 28 2 29 1 30 3 34 4 38 17 42 18 45
REMARK SMILES IDX 19 46 23 47 20 48 22 50 21 52 28 56 29 59 30 62 31 65 32 68
REMARK SMILES IDX 33 71 34 72 35 74 36 75 37 76 98 77 38 78 97 80 39 82 40 85
REMARK SMILES IDX 41 86 91 87 42 88 96 89 90 90 92 91 43 92 95 93 89 95 88 97
REMARK SMILES IDX 44 99 76 102 56 103 75 104 57 105 60 106 74 107 93 108
REMARK SMILES IDX 58 109 59 111 73 113 94 114 61 117 45 119 46 120 54 121
REMARK SMILES IDX 47 122 48 123 52 124 55 125 49 126 50 127 53 128 51 129
REMARK SMILES IDX 77 130 78 131 86 132 79 133 80 134 84 135 87 136 81 137
REMARK SMILES IDX 82 138 85 139 83 140 62 141 63 142 71 143 64 144 65 145
REMARK SMILES IDX 69 146 72 147 66 148 67 149 70 150 68 151
REMARK H PARENT 27 2 27 3 26 7 16 9 15 13 9 18 9 19 12 21 10 22 10 23 11 24
REMARK H PARENT 11 25 1 31 1 32 1 33 3 35 3 36 3 37 4 39 4 40 4 41 17 43 17 44
REMARK H PARENT 19 49 23 51 20 53 22 54 21 55 28 57 28 58 29 60 29 61 30 63
REMARK H PARENT 30 64 31 66 31 67 32 69 32 70 33 73 37 79 98 81 38 83 97 84
REMARK H PARENT 96 94 90 96 92 98 95 100 89 101 57 110 60 112 93 115 58 116
REMARK H PARENT 94 118
REMARK Flexibility Score: inf
ROOT
ATOM      1  C   UNL A   1      38.435  23.758  26.505  1.00  0.00     0.017 C 
ATOM      2  H   UNL A   1      37.833  23.497  27.349  1.00  0.00     0.049 H 
ATOM      3  H   UNL A   1      38.237  24.747  26.146  1.00  0.00     0.049 H 
ENDROOT
BRANCH   1   4
ATOM      4  N   UNL A   1      38.120  22.852  25.425  1.00  0.00    -0.354 N 
ATOM      5  C   UNL A   1      36.957  22.698  24.733  1.00  0.00     0.242 C 
ATOM      6  O   UNL A   1      37.041  22.176  23.613  1.00  0.00    -0.273 OA
ATOM      7  H   UNL A   1      38.855  22.258  25.150  1.00  0.00     0.163 HD
BRANCH   5   8
ATOM      8  C   UNL A   1      35.589  23.238  25.216  1.00  0.00     0.112 C 
ATOM      9  H   UNL A   1      34.914  22.882  24.467  1.00  0.00     0.064 H 
BRANCH   8  10
ATOM     10  N   UNL A   1      35.077  22.642  26.455  1.00  0.00    -0.342 N 
ATOM     11  C   UNL A   1      33.787  22.495  26.885  1.00  0.00     0.243 C 
ATOM     12  O   UNL A   1      33.614  21.999  28.000  1.00  0.00    -0.273 OA
ATOM     13  H   UNL A   1      35.764  22.295  27.069  1.00  0.00     0.164 HD
BRANCH  11  14
ATOM     14  C   UNL A   1      32.640  23.064  26.028  1.00  0.00     0.114 C 
ATOM     15  N   UNL A   1      31.700  22.046  25.582  1.00  0.00    -0.296 N 
ATOM     16  C   UNL A   1      30.400  22.204  26.195  1.00  0.00     0.025 C 
ATOM     17  C   UNL A   1      30.347  23.684  26.523  1.00  0.00    -0.033 C 
ATOM     18  H   UNL A   1      30.321  21.611  27.083  1.00  0.00     0.050 H 
ATOM     19  H   UNL A   1      29.597  21.885  25.564  1.00  0.00     0.050 H 
ATOM     20  C   UNL A   1      31.792  24.025  26.875  1.00  0.00    -0.022 C 
ATOM     21  H   UNL A   1      33.115  23.526  25.190  1.00  0.00     0.064 H 
ATOM     22  H   UNL A   1      29.698  23.869  27.353  1.00  0.00     0.029 H 
ATOM     23  H   UNL A   1      29.965  24.274  25.717  1.00  0.00     0.029 H 
ATOM     24  H   UNL A   1      31.972  23.868  27.917  1.00  0.00     0.029 H 
ATOM     25  H   UNL A   1      32.025  25.050  26.676  1.00  0.00     0.029 H 
BRANCH  15  26
ATOM     26  C   UNL A   1      32.040  21.156  24.594  1.00  0.00     0.410 C 
ATOM     27  O   UNL A   1      32.390  21.504  23.479  1.00  0.00    -0.224 OA
BRANCH  26  28
ATOM     28  O   UNL A   1      31.871  19.873  25.000  1.00  0.00    -0.444 OA
BRANCH  28  29
ATOM     29  C   UNL A   1      32.831  18.828  24.696  1.00  0.00     0.106 C 
BRANCH  29  30
ATOM     30  C   UNL A   1      32.513  17.707  25.697  1.00  0.00    -0.025 C 
ATOM     31  H   UNL A   1      31.860  16.993  25.237  1.00  0.00     0.027 H 
ATOM     32  H   UNL A   1      32.036  18.122  26.560  1.00  0.00     0.027 H 
ATOM     33  H   UNL A   1      33.420  17.222  25.990  1.00  0.00     0.027 H 
ENDBRANCH  29  30
BRANCH  29  34
ATOM     34  C   UNL A   1      34.236  19.369  24.965  1.00  0.00    -0.025 C 
ATOM     35  H   UNL A   1      34.379  19.483  26.019  1.00  0.00     0.027 H 
ATOM     36  H   UNL A   1      34.351  20.318  24.484  1.00  0.00     0.027 H 
ATOM     37  H   UNL A   1      34.961  18.684  24.578  1.00  0.00     0.027 H 
ENDBRANCH  29  34
BRANCH  29  38
ATOM     38  C   UNL A   1      32.718  18.245  23.281  1.00  0.00    -0.025 C 
ATOM     39  H   UNL A   1      33.446  18.704  22.646  1.00  0.00     0.027 H 
ATOM     40  H   UNL A   1      31.738  18.432  22.895  1.00  0.00     0.027 H 
ATOM     41  H   UNL A   1      32.891  17.189  23.316  1.00  0.00     0.027 H 
ENDBRANCH  29  38
ENDBRANCH  28  29
ENDBRANCH  26  28
ENDBRANCH  15  26
ENDBRANCH  11  14
ENDBRANCH   8  10
BRANCH   8  42
ATOM     42  C   UNL A   1      35.468  24.778  25.179  1.00  0.00     0.002 C 
ATOM     43  H   UNL A   1      36.391  25.162  24.797  1.00  0.00     0.034 H 
ATOM     44  H   UNL A   1      35.234  25.054  26.186  1.00  0.00     0.034 H 
BRANCH  42  45
ATOM     45  C   UNL A   1      34.355  25.378  24.353  1.00  0.00    -0.045 A 
ATOM     46  C   UNL A   1      33.991  24.791  23.132  1.00  0.00    -0.059 A 
ATOM     47  C   UNL A   1      33.669  26.524  24.781  1.00  0.00    -0.059 A 
ATOM     48  C   UNL A   1      32.999  25.367  22.334  1.00  0.00    -0.062 A 
ATOM     49  H   UNL A   1      34.460  23.926  22.819  1.00  0.00     0.063 H 
ATOM     50  C   UNL A   1      32.692  27.110  23.973  1.00  0.00    -0.062 A 
ATOM     51  H   UNL A   1      33.887  26.938  25.701  1.00  0.00     0.063 H 
ATOM     52  C   UNL A   1      32.361  26.534  22.748  1.00  0.00    -0.062 A 
ATOM     53  H   UNL A   1      32.739  24.927  21.438  1.00  0.00     0.062 H 
ATOM     54  H   UNL A   1      32.215  27.971  24.283  1.00  0.00     0.062 H 
ATOM     55  H   UNL A   1      31.644  26.971  22.148  1.00  0.00     0.062 H 
ENDBRANCH  42  45
ENDBRANCH   8  42
ENDBRANCH   5   8
ENDBRANCH   1   4
BRANCH   1  56
ATOM     56  C   UNL A   1      39.895  23.733  26.933  1.00  0.00    -0.036 C 
ATOM     57  H   UNL A   1      39.966  24.198  27.895  1.00  0.00     0.028 H 
ATOM     58  H   UNL A   1      40.438  24.249  26.169  1.00  0.00     0.028 H 
BRANCH  56  59
ATOM     59  C   UNL A   1      40.523  22.340  27.034  1.00  0.00    -0.052 C 
ATOM     60  H   UNL A   1      40.113  21.741  26.247  1.00  0.00     0.027 H 
ATOM     61  H   UNL A   1      40.292  21.996  28.020  1.00  0.00     0.027 H 
BRANCH  59  62
ATOM     62  C   UNL A   1      42.051  22.272  26.925  1.00  0.00    -0.052 C 
ATOM     63  H   UNL A   1      42.368  21.353  27.370  1.00  0.00     0.027 H 
ATOM     64  H   UNL A   1      42.409  23.152  27.419  1.00  0.00     0.027 H 
BRANCH  62  65
ATOM     65  C   UNL A   1      42.638  22.335  25.512  1.00  0.00    -0.036 C 
ATOM     66  H   UNL A   1      41.920  21.913  24.840  1.00  0.00     0.028 H 
ATOM     67  H   UNL A   1      43.562  21.795  25.558  1.00  0.00     0.028 H 
BRANCH  65  68
ATOM     68  C   UNL A   1      42.997  23.725  24.999  1.00  0.00     0.018 C 
ATOM     69  H   UNL A   1      42.484  24.452  25.593  1.00  0.00     0.049 H 
ATOM     70  H   UNL A   1      42.706  23.775  23.971  1.00  0.00     0.049 H 
BRANCH  68  71
ATOM     71  N   UNL A   1      44.422  23.996  25.062  1.00  0.00    -0.352 N 
ATOM     72  C   UNL A   1      45.127  24.879  25.840  1.00  0.00     0.251 C 
ATOM     73  H   UNL A   1      44.972  23.458  24.447  1.00  0.00     0.163 HD
ATOM     74  O   UNL A   1      46.325  25.049  25.627  1.00  0.00    -0.269 OA
BRANCH  72  75
ATOM     75  C   UNL A   1      44.465  25.649  26.917  1.00  0.00     0.039 A 
ATOM     76  C   UNL A   1      43.857  24.945  27.961  1.00  0.00    -0.049 A 
ATOM     77  C   UNL A   1      44.392  27.044  26.890  1.00  0.00    -0.049 A 
ATOM     78  C   UNL A   1      43.226  25.635  29.000  1.00  0.00    -0.053 A 
ATOM     79  H   UNL A   1      43.872  23.912  27.964  1.00  0.00     0.063 H 
ATOM     80  C   UNL A   1      43.826  27.735  27.961  1.00  0.00    -0.053 A 
ATOM     81  H   UNL A   1      44.759  27.564  26.078  1.00  0.00     0.063 H 
ATOM     82  C   UNL A   1      43.232  27.038  29.024  1.00  0.00    -0.014 A 
ATOM     83  H   UNL A   1      42.755  25.110  29.754  1.00  0.00     0.063 H 
ATOM     84  H   UNL A   1      43.844  28.767  27.973  1.00  0.00     0.063 H 
BRANCH  82  85
ATOM     85  C   UNL A   1      42.616  27.788  30.149  1.00  0.00     0.031 A 
ATOM     86  C   UNL A   1      41.292  28.475  29.972  1.00  0.00     0.074 A 
ATOM     87  C   UNL A   1      43.283  27.906  31.315  1.00  0.00     0.049 A 
ATOM     88  N   UNL A   1      40.630  29.231  30.812  1.00  0.00    -0.248 NA
ATOM     89  C   UNL A   1      40.636  28.318  28.664  1.00  0.00    -0.034 C 
ATOM     90  C   UNL A   1      44.599  27.333  31.595  1.00  0.00    -0.036 A 
ATOM     91  N   UNL A   1      42.951  28.563  32.474  1.00  0.00    -0.354 N 
ATOM     92  C   UNL A   1      39.498  29.656  30.130  1.00  0.00     0.074 A 
ATOM     93  C   UNL A   1      39.583  29.110  28.791  1.00  0.00    -0.034 C 
ATOM     94  H   UNL A   1      40.924  27.741  27.858  1.00  0.00     0.065 H 
ATOM     95  C   UNL A   1      44.959  27.652  32.848  1.00  0.00    -0.036 A 
ATOM     96  H   UNL A   1      45.161  26.772  30.936  1.00  0.00     0.065 H 
ATOM     97  C   UNL A   1      43.915  28.479  33.448  1.00  0.00     0.049 A 
ATOM     98  H   UNL A   1      42.103  29.049  32.594  1.00  0.00     0.167 HD
ATOM     99  C   UNL A   1      38.472  30.416  30.583  1.00  0.00     0.037 A 
ATOM    100  H   UNL A   1      38.910  29.313  28.036  1.00  0.00     0.065 H 
ATOM    101  H   UNL A   1      45.833  27.360  33.313  1.00  0.00     0.065 H 
ATOM    102  C   UNL A   1      43.957  29.013  34.683  1.00  0.00     0.037 A 
ATOM    103  C   UNL A   1      38.372  30.926  31.926  1.00  0.00     0.049 A 
ATOM    104  C   UNL A   1      42.795  29.831  35.174  1.00  0.00     0.074 A 
ATOM    105  C   UNL A   1      37.330  31.629  32.506  1.00  0.00    -0.036 A 
ATOM    106  N   UNL A   1      39.353  30.790  32.897  1.00  0.00    -0.354 N 
ATOM    107  N   UNL A   1      41.692  30.157  34.546  1.00  0.00    -0.248 NA
ATOM    108  C   UNL A   1      42.879  30.346  36.547  1.00  0.00    -0.034 C 
ATOM    109  C   UNL A   1      37.700  31.959  33.815  1.00  0.00    -0.036 A 
ATOM    110  H   UNL A   1      36.436  31.869  32.053  1.00  0.00     0.065 H 
ATOM    111  C   UNL A   1      38.952  31.419  34.065  1.00  0.00     0.049 A 
ATOM    112  H   UNL A   1      40.207  30.317  32.775  1.00  0.00     0.167 HD
ATOM    113  C   UNL A   1      40.943  30.898  35.451  1.00  0.00     0.074 A 
ATOM    114  C   UNL A   1      41.710  30.958  36.677  1.00  0.00    -0.034 C 
ATOM    115  H   UNL A   1      43.646  30.255  37.232  1.00  0.00     0.065 H 
ATOM    116  H   UNL A   1      37.136  32.509  34.481  1.00  0.00     0.065 H 
ATOM    117  C   UNL A   1      39.727  31.473  35.279  1.00  0.00     0.037 A 
ATOM    118  H   UNL A   1      41.388  31.419  37.542  1.00  0.00     0.065 H 
BRANCH  99 119
ATOM    119  C   UNL A   1      37.373  30.746  29.615  1.00  0.00     0.064 A 
ATOM    120  C   UNL A   1      36.379  29.815  29.280  1.00  0.00     0.173 A 
ATOM    121  C   UNL A   1      37.298  32.022  29.035  1.00  0.00     0.173 A 
ATOM    122  F   UNL A   1      36.410  28.578  29.799  1.00  0.00    -0.203 F 
ATOM    123  C   UNL A   1      35.371  30.136  28.374  1.00  0.00     0.198 A 
ATOM    124  C   UNL A   1      36.270  32.350  28.153  1.00  0.00     0.198 A 
ATOM    125  F   UNL A   1      38.218  32.953  29.327  1.00  0.00    -0.203 F 
ATOM    126  F   UNL A   1      34.463  29.212  28.030  1.00  0.00    -0.200 F 
ATOM    127  C   UNL A   1      35.313  31.405  27.817  1.00  0.00     0.200 A 
ATOM    128  F   UNL A   1      36.209  33.580  27.626  1.00  0.00    -0.200 F 
ATOM    129  F   UNL A   1      34.340  31.713  26.949  1.00  0.00    -0.200 F 
ENDBRANCH  99 119
BRANCH 102 130
ATOM    130  C   UNL A   1      45.138  28.767  35.549  1.00  0.00     0.064 A 
ATOM    131  C   UNL A   1      46.193  29.688  35.607  1.00  0.00     0.173 A 
ATOM    132  C   UNL A   1      45.228  27.619  36.350  1.00  0.00     0.173 A 
ATOM    133  F   UNL A   1      46.161  30.791  34.845  1.00  0.00    -0.203 F 
ATOM    134  C   UNL A   1      47.298  29.464  36.425  1.00  0.00     0.198 A 
ATOM    135  C   UNL A   1      46.322  27.409  37.186  1.00  0.00     0.198 A 
ATOM    136  F   UNL A   1      44.240  26.711  36.334  1.00  0.00    -0.203 F 
ATOM    137  F   UNL A   1      48.310  30.344  36.436  1.00  0.00    -0.200 F 
ATOM    138  C   UNL A   1      47.359  28.328  37.218  1.00  0.00     0.200 A 
ATOM    139  F   UNL A   1      46.369  26.317  37.963  1.00  0.00    -0.200 F 
ATOM    140  F   UNL A   1      48.418  28.119  38.013  1.00  0.00    -0.200 F 
ENDBRANCH 102 130
BRANCH 117 141
ATOM    141  C   UNL A   1      39.140  32.204  36.452  1.00  0.00     0.064 A 
ATOM    142  C   UNL A   1      39.508  33.523  36.754  1.00  0.00     0.173 A 
ATOM    143  C   UNL A   1      38.169  31.591  37.256  1.00  0.00     0.173 A 
ATOM    144  F   UNL A   1      40.445  34.146  36.023  1.00  0.00    -0.203 F 
ATOM    145  C   UNL A   1      38.939  34.194  37.833  1.00  0.00     0.198 A 
ATOM    146  C   UNL A   1      37.582  32.275  38.317  1.00  0.00     0.198 A 
ATOM    147  F   UNL A   1      37.779  30.331  37.007  1.00  0.00    -0.203 F 
ATOM    148  F   UNL A   1      39.336  35.440  38.129  1.00  0.00    -0.200 F 
ATOM    149  C   UNL A   1      37.972  33.573  38.608  1.00  0.00     0.200 A 
ATOM    150  F   UNL A   1      36.638  31.677  39.059  1.00  0.00    -0.200 F 
ATOM    151  F   UNL A   1      37.420  34.225  39.641  1.00  0.00    -0.200 F 
ENDBRANCH 117 141
ENDBRANCH  82  85
ENDBRANCH  72  75
ENDBRANCH  68  71
ENDBRANCH  65  68
ENDBRANCH  62  65
ENDBRANCH  59  62
ENDBRANCH  56  59
ENDBRANCH   1  56
TORSDOF 23
ENDMDL
MODEL 10
REMARK VINA RESULT:      -9.9      4.916      9.415
REMARK SMILES CC(C)(C)OC(=O)N1CCC[C@H]1C(=O)N[C@@H](Cc1ccccc1)C(=O)NCCCCCCNC(=O)c1ccc(-c2c3nc(c(-c4c(F)c(F)c(F)c(F)c4F)c4ccc([nH]4)c(-c4c(F)c(F)c(F)c(F)c4F)c4nc(c(-c5c(F)c(F)c(F)c(F)c5F)c5ccc2[nH]5)C=C4)C=C3)cc1
REMARK SMILES IDX 27 1 26 4 24 5 25 6 16 8 15 10 13 11 14 12 12 14 8 15 9 16
REMARK SMILES IDX 10 17 11 20 6 26 7 27 5 28 2 29 1 30 3 34 4 38 17 42 18 45
REMARK SMILES IDX 19 46 23 47 20 48 22 50 21 52 28 56 29 59 30 62 31 65 32 68
REMARK SMILES IDX 33 71 34 72 35 74 36 75 37 76 98 77 38 78 97 80 39 82 40 85
REMARK SMILES IDX 41 86 91 87 42 88 96 89 90 90 92 91 43 92 95 93 89 95 88 97
REMARK SMILES IDX 44 99 76 102 56 103 75 104 57 105 60 106 74 107 93 108
REMARK SMILES IDX 58 109 59 111 73 113 94 114 61 117 45 119 46 120 54 121
REMARK SMILES IDX 47 122 48 123 52 124 55 125 49 126 50 127 53 128 51 129
REMARK SMILES IDX 77 130 78 131 86 132 79 133 80 134 84 135 87 136 81 137
REMARK SMILES IDX 82 138 85 139 83 140 62 141 63 142 71 143 64 144 65 145
REMARK SMILES IDX 69 146 72 147 66 148 67 149 70 150 68 151
REMARK H PARENT 27 2 27 3 26 7 16 9 15 13 9 18 9 19 12 21 10 22 10 23 11 24
REMARK H PARENT 11 25 1 31 1 32 1 33 3 35 3 36 3 37 4 39 4 40 4 41 17 43 17 44
REMARK H PARENT 19 49 23 51 20 53 22 54 21 55 28 57 28 58 29 60 29 61 30 63
REMARK H PARENT 30 64 31 66 31 67 32 69 32 70 33 73 37 79 98 81 38 83 97 84
REMARK H PARENT 96 94 90 96 92 98 95 100 89 101 57 110 60 112 93 115 58 116
REMARK H PARENT 94 118
REMARK Flexibility Score: inf
ROOT
ATOM      1  C   UNL A   1      46.766  26.438  24.787  1.00  0.00     0.017 C 
ATOM      2  H   UNL A   1      45.907  26.957  25.155  1.00  0.00     0.049 H 
ATOM      3  H   UNL A   1      46.583  25.941  23.857  1.00  0.00     0.049 H 
ENDROOT
BRANCH   1   4
ATOM      4  N   UNL A   1      47.121  25.414  25.743  1.00  0.00    -0.354 N 
ATOM      5  C   UNL A   1      46.352  24.806  26.689  1.00  0.00     0.242 C 
ATOM      6  O   UNL A   1      46.740  23.703  27.095  1.00  0.00    -0.273 OA
ATOM      7  H   UNL A   1      48.057  25.113  25.704  1.00  0.00     0.163 HD
BRANCH   5   8
ATOM      8  C   UNL A   1      44.991  25.359  27.178  1.00  0.00     0.112 C 
ATOM      9  H   UNL A   1      44.337  25.134  26.362  1.00  0.00     0.064 H 
BRANCH   8  10
ATOM     10  N   UNL A   1      44.391  24.645  28.311  1.00  0.00    -0.342 N 
ATOM     11  C   UNL A   1      43.159  24.061  28.421  1.00  0.00     0.243 C 
ATOM     12  O   UNL A   1      42.865  23.559  29.507  1.00  0.00    -0.273 OA
ATOM     13  H   UNL A   1      44.960  24.575  29.111  1.00  0.00     0.164 HD
BRANCH  11  14
ATOM     14  C   UNL A   1      42.168  24.171  27.247  1.00  0.00     0.114 C 
ATOM     15  N   UNL A   1      41.592  22.891  26.862  1.00  0.00    -0.296 N 
ATOM     16  C   UNL A   1      40.177  22.827  27.152  1.00  0.00     0.025 C 
ATOM     17  C   UNL A   1      39.747  24.281  27.122  1.00  0.00    -0.033 C 
ATOM     18  H   UNL A   1      40.002  22.395  28.116  1.00  0.00     0.050 H 
ATOM     19  H   UNL A   1      39.634  22.214  26.461  1.00  0.00     0.050 H 
ATOM     20  C   UNL A   1      40.963  25.025  27.669  1.00  0.00    -0.022 C 
ATOM     21  H   UNL A   1      42.732  24.585  26.438  1.00  0.00     0.064 H 
ATOM     22  H   UNL A   1      38.891  24.440  27.742  1.00  0.00     0.029 H 
ATOM     23  H   UNL A   1      39.465  24.610  26.143  1.00  0.00     0.029 H 
ATOM     24  H   UNL A   1      40.909  25.100  28.734  1.00  0.00     0.029 H 
ATOM     25  H   UNL A   1      41.026  26.025  27.295  1.00  0.00     0.029 H 
BRANCH  15  26
ATOM     26  C   UNL A   1      42.336  21.956  26.188  1.00  0.00     0.410 C 
ATOM     27  O   UNL A   1      42.667  22.087  25.021  1.00  0.00    -0.224 OA
BRANCH  26  28
ATOM     28  O   UNL A   1      42.586  20.868  26.958  1.00  0.00    -0.444 OA
BRANCH  28  29
ATOM     29  C   UNL A   1      42.438  19.513  26.462  1.00  0.00     0.106 C 
BRANCH  29  30
ATOM     30  C   UNL A   1      40.978  19.430  25.989  1.00  0.00    -0.025 C 
ATOM     31  H   UNL A   1      40.900  19.832  25.000  1.00  0.00     0.027 H 
ATOM     32  H   UNL A   1      40.356  19.993  26.653  1.00  0.00     0.027 H 
ATOM     33  H   UNL A   1      40.662  18.408  25.983  1.00  0.00     0.027 H 
ENDBRANCH  29  30
BRANCH  29  34
ATOM     34  C   UNL A   1      42.652  18.544  27.626  1.00  0.00    -0.025 C 
ATOM     35  H   UNL A   1      43.312  18.988  28.342  1.00  0.00     0.027 H 
ATOM     36  H   UNL A   1      43.083  17.636  27.258  1.00  0.00     0.027 H 
ATOM     37  H   UNL A   1      41.713  18.330  28.090  1.00  0.00     0.027 H 
ENDBRANCH  29  34
BRANCH  29  38
ATOM     38  C   UNL A   1      43.340  19.164  25.271  1.00  0.00    -0.025 C 
ATOM     39  H   UNL A   1      42.782  18.605  24.550  1.00  0.00     0.027 H 
ATOM     40  H   UNL A   1      44.169  18.578  25.611  1.00  0.00     0.027 H 
ATOM     41  H   UNL A   1      43.702  20.065  24.821  1.00  0.00     0.027 H 
ENDBRANCH  29  38
ENDBRANCH  28  29
ENDBRANCH  26  28
ENDBRANCH  15  26
ENDBRANCH  11  14
ENDBRANCH   8  10
BRANCH   8  42
ATOM     42  C   UNL A   1      44.949  26.896  27.327  1.00  0.00     0.002 C 
ATOM     43  H   UNL A   1      45.691  27.301  26.671  1.00  0.00     0.034 H 
ATOM     44  H   UNL A   1      45.111  27.070  28.370  1.00  0.00     0.034 H 
BRANCH  42  45
ATOM     45  C   UNL A   1      43.647  27.598  27.023  1.00  0.00    -0.045 A 
ATOM     46  C   UNL A   1      42.906  28.187  28.059  1.00  0.00    -0.059 A 
ATOM     47  C   UNL A   1      43.151  27.673  25.713  1.00  0.00    -0.059 A 
ATOM     48  C   UNL A   1      41.675  28.793  27.796  1.00  0.00    -0.062 A 
ATOM     49  H   UNL A   1      43.274  28.173  29.023  1.00  0.00     0.063 H 
ATOM     50  C   UNL A   1      41.910  28.261  25.457  1.00  0.00    -0.062 A 
ATOM     51  H   UNL A   1      43.708  27.292  24.932  1.00  0.00     0.063 H 
ATOM     52  C   UNL A   1      41.171  28.817  26.498  1.00  0.00    -0.062 A 
ATOM     53  H   UNL A   1      41.139  29.224  28.566  1.00  0.00     0.062 H 
ATOM     54  H   UNL A   1      41.540  28.284  24.493  1.00  0.00     0.062 H 
ATOM     55  H   UNL A   1      40.252  29.246  26.310  1.00  0.00     0.062 H 
ENDBRANCH  42  45
ENDBRANCH   8  42
ENDBRANCH   5   8
ENDBRANCH   1   4
BRANCH   1  56
ATOM     56  C   UNL A   1      47.867  27.457  24.528  1.00  0.00    -0.036 C 
ATOM     57  H   UNL A   1      47.735  28.268  25.215  1.00  0.00     0.028 H 
ATOM     58  H   UNL A   1      47.769  27.746  23.502  1.00  0.00     0.028 H 
BRANCH  56  59
ATOM     59  C   UNL A   1      49.296  26.930  24.687  1.00  0.00    -0.052 C 
ATOM     60  H   UNL A   1      49.560  26.429  23.779  1.00  0.00     0.027 H 
ATOM     61  H   UNL A   1      49.271  26.300  25.551  1.00  0.00     0.027 H 
BRANCH  59  62
ATOM     62  C   UNL A   1      50.379  27.977  24.975  1.00  0.00    -0.052 C 
ATOM     63  H   UNL A   1      50.225  28.340  25.969  1.00  0.00     0.027 H 
ATOM     64  H   UNL A   1      50.267  28.718  24.210  1.00  0.00     0.027 H 
BRANCH  62  65
ATOM     65  C   UNL A   1      51.832  27.504  24.870  1.00  0.00    -0.036 C 
ATOM     66  H   UNL A   1      52.412  28.072  25.567  1.00  0.00     0.028 H 
ATOM     67  H   UNL A   1      52.111  27.652  23.847  1.00  0.00     0.028 H 
BRANCH  65  68
ATOM     68  C   UNL A   1      52.075  26.026  25.155  1.00  0.00     0.018 C 
ATOM     69  H   UNL A   1      52.439  25.561  24.263  1.00  0.00     0.049 H 
ATOM     70  H   UNL A   1      51.146  25.602  25.473  1.00  0.00     0.049 H 
BRANCH  68  71
ATOM     71  N   UNL A   1      53.040  25.811  26.218  1.00  0.00    -0.352 N 
ATOM     72  C   UNL A   1      52.945  26.037  27.566  1.00  0.00     0.251 C 
ATOM     73  H   UNL A   1      53.904  25.442  25.921  1.00  0.00     0.163 HD
ATOM     74  O   UNL A   1      53.943  25.918  28.272  1.00  0.00    -0.269 OA
BRANCH  72  75
ATOM     75  C   UNL A   1      51.663  26.446  28.186  1.00  0.00     0.039 A 
ATOM     76  C   UNL A   1      51.663  27.549  29.046  1.00  0.00    -0.049 A 
ATOM     77  C   UNL A   1      50.480  25.735  27.972  1.00  0.00    -0.049 A 
ATOM     78  C   UNL A   1      50.473  27.970  29.647  1.00  0.00    -0.053 A 
ATOM     79  H   UNL A   1      52.544  28.053  29.240  1.00  0.00     0.063 H 
ATOM     80  C   UNL A   1      49.280  26.197  28.514  1.00  0.00    -0.053 A 
ATOM     81  H   UNL A   1      50.492  24.869  27.412  1.00  0.00     0.063 H 
ATOM     82  C   UNL A   1      49.265  27.315  29.362  1.00  0.00    -0.014 A 
ATOM     83  H   UNL A   1      50.483  28.767  30.302  1.00  0.00     0.063 H 
ATOM     84  H   UNL A   1      48.397  25.713  28.291  1.00  0.00     0.063 H 
BRANCH  82  85
ATOM     85  C   UNL A   1      47.983  27.784  29.947  1.00  0.00     0.031 A 
ATOM     86  C   UNL A   1      47.340  27.029  31.076  1.00  0.00     0.074 A 
ATOM     87  C   UNL A   1      47.360  28.855  29.415  1.00  0.00     0.049 A 
ATOM     88  N   UNL A   1      46.192  27.244  31.670  1.00  0.00    -0.248 NA
ATOM     89  C   UNL A   1      48.069  25.859  31.588  1.00  0.00    -0.034 C 
ATOM     90  C   UNL A   1      47.852  29.640  28.283  1.00  0.00    -0.036 A 
ATOM     91  N   UNL A   1      46.172  29.456  29.746  1.00  0.00    -0.354 N 
ATOM     92  C   UNL A   1      46.053  26.226  32.604  1.00  0.00     0.074 A 
ATOM     93  C   UNL A   1      47.211  25.368  32.470  1.00  0.00    -0.034 C 
ATOM     94  H   UNL A   1      49.005  25.511  31.326  1.00  0.00     0.065 H 
ATOM     95  C   UNL A   1      46.980  30.625  28.020  1.00  0.00    -0.036 A 
ATOM     96  H   UNL A   1      48.730  29.465  27.769  1.00  0.00     0.065 H 
ATOM     97  C   UNL A   1      45.853  30.523  28.943  1.00  0.00     0.049 A 
ATOM     98  H   UNL A   1      45.601  29.150  30.489  1.00  0.00     0.167 HD
ATOM     99  C   UNL A   1      45.059  26.035  33.505  1.00  0.00     0.037 A 
ATOM    100  H   UNL A   1      47.350  24.490  32.993  1.00  0.00     0.065 H 
ATOM    101  H   UNL A   1      47.088  31.341  27.284  1.00  0.00     0.065 H 
ATOM    102  C   UNL A   1      44.770  31.324  28.944  1.00  0.00     0.037 A 
ATOM    103  C   UNL A   1      43.927  26.910  33.662  1.00  0.00     0.049 A 
ATOM    104  C   UNL A   1      43.693  31.108  29.971  1.00  0.00     0.074 A 
ATOM    105  C   UNL A   1      42.915  26.851  34.605  1.00  0.00    -0.036 A 
ATOM    106  N   UNL A   1      43.656  28.004  32.852  1.00  0.00    -0.354 N 
ATOM    107  N   UNL A   1      43.613  30.191  30.902  1.00  0.00    -0.248 NA
ATOM    108  C   UNL A   1      42.561  32.045  29.951  1.00  0.00    -0.034 C 
ATOM    109  C   UNL A   1      42.006  27.882  34.337  1.00  0.00    -0.036 A 
ATOM    110  H   UNL A   1      42.843  26.166  35.373  1.00  0.00     0.065 H 
ATOM    111  C   UNL A   1      42.478  28.612  33.257  1.00  0.00     0.049 A 
ATOM    112  H   UNL A   1      44.217  28.303  32.102  1.00  0.00     0.167 HD
ATOM    113  C   UNL A   1      42.436  30.449  31.592  1.00  0.00     0.074 A 
ATOM    114  C   UNL A   1      41.843  31.621  30.981  1.00  0.00    -0.034 C 
ATOM    115  H   UNL A   1      42.375  32.829  29.306  1.00  0.00     0.065 H 
ATOM    116  H   UNL A   1      41.134  28.066  34.856  1.00  0.00     0.065 H 
ATOM    117  C   UNL A   1      41.898  29.776  32.639  1.00  0.00     0.037 A 
ATOM    118  H   UNL A   1      40.972  32.068  31.307  1.00  0.00     0.065 H 
BRANCH  99 119
ATOM    119  C   UNL A   1      45.150  24.826  34.392  1.00  0.00     0.064 A 
ATOM    120  C   UNL A   1      45.730  24.888  35.668  1.00  0.00     0.173 A 
ATOM    121  C   UNL A   1      44.624  23.595  33.969  1.00  0.00     0.173 A 
ATOM    122  F   UNL A   1      46.256  26.038  36.115  1.00  0.00    -0.203 F 
ATOM    123  C   UNL A   1      45.812  23.755  36.474  1.00  0.00     0.198 A 
ATOM    124  C   UNL A   1      44.681  22.472  34.791  1.00  0.00     0.198 A 
ATOM    125  F   UNL A   1      44.052  23.483  32.762  1.00  0.00    -0.203 F 
ATOM    126  F   UNL A   1      46.418  23.827  37.667  1.00  0.00    -0.200 F 
ATOM    127  C   UNL A   1      45.282  22.550  36.038  1.00  0.00     0.200 A 
ATOM    128  F   UNL A   1      44.157  21.312  34.373  1.00  0.00    -0.200 F 
ATOM    129  F   UNL A   1      45.359  21.462  36.816  1.00  0.00    -0.200 F 
ENDBRANCH  99 119
BRANCH 102 130
ATOM    130  C   UNL A   1      44.669  32.421  27.948  1.00  0.00     0.064 A 
ATOM    131  C   UNL A   1      45.100  33.718  28.258  1.00  0.00     0.173 A 
ATOM    132  C   UNL A   1      44.161  32.191  26.661  1.00  0.00     0.173 A 
ATOM    133  F   UNL A   1      45.575  33.990  29.483  1.00  0.00    -0.203 F 
ATOM    134  C   UNL A   1      45.015  34.747  27.324  1.00  0.00     0.198 A 
ATOM    135  C   UNL A   1      44.101  33.216  25.719  1.00  0.00     0.198 A 
ATOM    136  F   UNL A   1      43.743  30.965  26.313  1.00  0.00    -0.203 F 
ATOM    137  F   UNL A   1      45.402  35.986  27.657  1.00  0.00    -0.200 F 
ATOM    138  C   UNL A   1      44.522  34.493  26.053  1.00  0.00     0.200 A 
ATOM    139  F   UNL A   1      43.637  32.962  24.487  1.00  0.00    -0.200 F 
ATOM    140  F   UNL A   1      44.450  35.482  25.150  1.00  0.00    -0.200 F 
ENDBRANCH 102 130
BRANCH 117 141
ATOM    141  C   UNL A   1      40.610  30.301  33.205  1.00  0.00     0.064 A 
ATOM    142  C   UNL A   1      40.593  31.336  34.151  1.00  0.00     0.173 A 
ATOM    143  C   UNL A   1      39.381  29.792  32.764  1.00  0.00     0.173 A 
ATOM    144  F   UNL A   1      41.744  31.846  34.616  1.00  0.00    -0.203 F 
ATOM    145  C   UNL A   1      39.390  31.827  34.651  1.00  0.00     0.198 A 
ATOM    146  C   UNL A   1      38.179  30.305  33.245  1.00  0.00     0.198 A 
ATOM    147  F   UNL A   1      39.343  28.805  31.856  1.00  0.00    -0.203 F 
ATOM    148  F   UNL A   1      39.397  32.788  35.586  1.00  0.00    -0.200 F 
ATOM    149  C   UNL A   1      38.185  31.317  34.193  1.00  0.00     0.200 A 
ATOM    150  F   UNL A   1      37.015  29.818  32.792  1.00  0.00    -0.200 F 
ATOM    151  F   UNL A   1      37.028  31.797  34.669  1.00  0.00    -0.200 F 
ENDBRANCH 117 141
ENDBRANCH  82  85
ENDBRANCH  72  75
ENDBRANCH  68  71
ENDBRANCH  65  68
ENDBRANCH  62  65
ENDBRANCH  59  62
ENDBRANCH  56  59
ENDBRANCH   1  56
TORSDOF 23
ENDMDL
