MODEL 1
REMARK VINA RESULT:     -12.5      0.000      0.000
REMARK SMILES Nc1c(CC(=O)NCCCCCCNC(=O)c2ccc(-c3c4nc(c(-c5c(F)c(F)c(F)c(F)c5F)c5ccc([nH]5)c(-c5c(F)c(F)c(F)c(F)c5F)c5nc(c(-c6c(F)c(F)c(F)c(F)c6F)c6ccc3[nH]6)C=C5)C=C4)cc2)cccc1C(=O)c1ccc(Br)cc1
REMARK SMILES IDX 10 1 9 4 8 7 7 10 5 11 6 12 4 14 3 17 2 18 83 19 80 20 82 21
REMARK SMILES IDX 81 22 1 26 84 29 85 30 86 31 87 32 92 33 88 34 91 36 89 38
REMARK SMILES IDX 90 41 11 42 12 45 13 48 14 51 15 52 16 54 17 55 18 56 79 57
REMARK SMILES IDX 19 58 78 60 20 62 21 65 22 66 72 67 23 68 77 69 71 70 73 71
REMARK SMILES IDX 24 72 76 73 70 75 69 77 25 79 57 82 37 83 56 84 38 85 41 86
REMARK SMILES IDX 55 87 74 88 39 89 40 91 54 93 75 94 42 97 26 99 27 100
REMARK SMILES IDX 35 101 28 102 29 103 33 104 36 105 30 106 31 107 34 108
REMARK SMILES IDX 32 109 58 110 59 111 67 112 60 113 61 114 65 115 68 116
REMARK SMILES IDX 62 117 63 118 66 119 64 120 43 121 44 122 52 123 45 124
REMARK SMILES IDX 46 125 50 126 53 127 47 128 48 129 51 130 49 131
REMARK H PARENT 10 2 10 3 9 5 9 6 8 8 8 9 7 13 4 15 4 16 80 23 82 24 81 25
REMARK H PARENT 1 27 1 28 87 35 92 37 88 39 91 40 11 43 11 44 12 46 12 47
REMARK H PARENT 13 49 13 50 14 53 18 59 79 61 19 63 78 64 77 74 71 76 73 78
REMARK H PARENT 76 80 70 81 38 90 41 92 74 95 39 96 75 98
REMARK Flexibility Score: inf
ROOT
ATOM      1  C   UNL A   1      32.437  30.075  27.084  1.00  0.00    -0.052 C 
ATOM      2  H   UNL A   1      33.296  29.870  26.480  1.00  0.00     0.027 H 
ATOM      3  H   UNL A   1      32.652  30.698  27.926  1.00  0.00     0.027 H 
ENDROOT
BRANCH   1   4
ATOM      4  C   UNL A   1      31.923  28.745  27.650  1.00  0.00    -0.036 C 
ATOM      5  H   UNL A   1      32.306  28.628  28.642  1.00  0.00     0.028 H 
ATOM      6  H   UNL A   1      30.853  28.784  27.635  1.00  0.00     0.028 H 
BRANCH   4   7
ATOM      7  C   UNL A   1      32.345  27.534  26.819  1.00  0.00     0.017 C 
ATOM      8  H   UNL A   1      32.564  27.853  25.822  1.00  0.00     0.049 H 
ATOM      9  H   UNL A   1      33.211  27.097  27.272  1.00  0.00     0.049 H 
BRANCH   7  10
ATOM     10  N   UNL A   1      31.296  26.537  26.777  1.00  0.00    -0.356 N 
ATOM     11  C   UNL A   1      30.780  25.877  25.700  1.00  0.00     0.224 C 
ATOM     12  O   UNL A   1      29.795  25.157  25.877  1.00  0.00    -0.275 OA
ATOM     13  H   UNL A   1      30.899  26.304  27.646  1.00  0.00     0.163 HD
BRANCH  11  14
ATOM     14  C   UNL A   1      31.456  25.963  24.341  1.00  0.00     0.054 C 
ATOM     15  H   UNL A   1      30.694  26.076  23.598  1.00  0.00     0.042 H 
ATOM     16  H   UNL A   1      32.126  26.795  24.394  1.00  0.00     0.042 H 
BRANCH  14  17
ATOM     17  C   UNL A   1      32.305  24.761  23.963  1.00  0.00    -0.015 A 
ATOM     18  C   UNL A   1      31.760  23.588  23.367  1.00  0.00     0.046 A 
ATOM     19  C   UNL A   1      32.617  22.482  23.125  1.00  0.00     0.046 A 
ATOM     20  C   UNL A   1      33.678  24.824  24.265  1.00  0.00    -0.056 A 
ATOM     21  C   UNL A   1      33.983  22.584  23.455  1.00  0.00    -0.049 A 
ATOM     22  C   UNL A   1      34.511  23.744  24.014  1.00  0.00    -0.061 A 
ATOM     23  H   UNL A   1      34.070  25.685  24.677  1.00  0.00     0.063 H 
ATOM     24  H   UNL A   1      34.605  21.780  23.279  1.00  0.00     0.063 H 
ATOM     25  H   UNL A   1      35.516  23.799  24.241  1.00  0.00     0.062 H 
BRANCH  18  26
ATOM     26  N   UNL A   1      30.397  23.562  23.092  1.00  0.00    -0.398 N 
ATOM     27  H   UNL A   1      29.752  23.876  23.767  1.00  0.00     0.156 HD
ATOM     28  H   UNL A   1      30.077  23.228  22.223  1.00  0.00     0.156 HD
ENDBRANCH  18  26
BRANCH  19  29
ATOM     29  C   UNL A   1      32.205  21.143  22.580  1.00  0.00     0.195 C 
ATOM     30  O   UNL A   1      31.775  21.050  21.429  1.00  0.00    -0.289 OA
BRANCH  29  31
ATOM     31  C   UNL A   1      32.359  19.877  23.319  1.00  0.00     0.023 A 
ATOM     32  C   UNL A   1      32.483  18.698  22.572  1.00  0.00    -0.050 A 
ATOM     33  C   UNL A   1      32.426  19.842  24.715  1.00  0.00    -0.050 A 
ATOM     34  C   UNL A   1      32.753  17.492  23.219  1.00  0.00    -0.047 A 
ATOM     35  H   UNL A   1      32.376  18.721  21.546  1.00  0.00     0.063 H 
ATOM     36  C   UNL A   1      32.709  18.634  25.359  1.00  0.00    -0.047 A 
ATOM     37  H   UNL A   1      32.267  20.700  25.266  1.00  0.00     0.063 H 
ATOM     38  C   UNL A   1      32.884  17.469  24.607  1.00  0.00     0.018 A 
ATOM     39  H   UNL A   1      32.854  16.621  22.673  1.00  0.00     0.063 H 
ATOM     40  H   UNL A   1      32.789  18.602  26.387  1.00  0.00     0.063 H 
ATOM     41  Br  UNL A   1      33.327  15.850  25.476  1.00  0.00    -0.051 Br
ENDBRANCH  29  31
ENDBRANCH  19  29
ENDBRANCH  14  17
ENDBRANCH  11  14
ENDBRANCH   7  10
ENDBRANCH   4   7
ENDBRANCH   1   4
BRANCH   1  42
ATOM     42  C   UNL A   1      31.423  30.843  26.226  1.00  0.00    -0.052 C 
ATOM     43  H   UNL A   1      30.446  30.469  26.453  1.00  0.00     0.027 H 
ATOM     44  H   UNL A   1      31.710  30.685  25.208  1.00  0.00     0.027 H 
BRANCH  42  45
ATOM     45  C   UNL A   1      31.414  32.359  26.440  1.00  0.00    -0.036 C 
ATOM     46  H   UNL A   1      30.507  32.620  26.944  1.00  0.00     0.028 H 
ATOM     47  H   UNL A   1      31.496  32.805  25.472  1.00  0.00     0.028 H 
BRANCH  45  48
ATOM     48  C   UNL A   1      32.585  32.882  27.264  1.00  0.00     0.018 C 
ATOM     49  H   UNL A   1      33.481  32.801  26.685  1.00  0.00     0.049 H 
ATOM     50  H   UNL A   1      32.650  32.298  28.158  1.00  0.00     0.049 H 
BRANCH  48  51
ATOM     51  N   UNL A   1      32.397  34.274  27.648  1.00  0.00    -0.352 N 
ATOM     52  C   UNL A   1      33.000  34.991  28.647  1.00  0.00     0.251 C 
ATOM     53  H   UNL A   1      31.740  34.773  27.111  1.00  0.00     0.163 HD
ATOM     54  O   UNL A   1      32.562  36.097  28.966  1.00  0.00    -0.269 OA
BRANCH  52  55
ATOM     55  C   UNL A   1      34.169  34.435  29.356  1.00  0.00     0.039 A 
ATOM     56  C   UNL A   1      33.971  33.753  30.559  1.00  0.00    -0.049 A 
ATOM     57  C   UNL A   1      35.460  34.600  28.845  1.00  0.00    -0.049 A 
ATOM     58  C   UNL A   1      35.062  33.190  31.223  1.00  0.00    -0.053 A 
ATOM     59  H   UNL A   1      33.023  33.667  30.955  1.00  0.00     0.063 H 
ATOM     60  C   UNL A   1      36.537  33.977  29.469  1.00  0.00    -0.053 A 
ATOM     61  H   UNL A   1      35.614  35.183  28.007  1.00  0.00     0.063 H 
ATOM     62  C   UNL A   1      36.349  33.271  30.667  1.00  0.00    -0.014 A 
ATOM     63  H   UNL A   1      34.922  32.711  32.126  1.00  0.00     0.063 H 
ATOM     64  H   UNL A   1      37.478  34.035  29.048  1.00  0.00     0.063 H 
BRANCH  62  65
ATOM     65  C   UNL A   1      37.514  32.630  31.327  1.00  0.00     0.031 A 
ATOM     66  C   UNL A   1      38.242  31.506  30.647  1.00  0.00     0.074 A 
ATOM     67  C   UNL A   1      37.875  33.021  32.565  1.00  0.00     0.049 A 
ATOM     68  N   UNL A   1      39.234  30.773  31.089  1.00  0.00    -0.248 NA
ATOM     69  C   UNL A   1      37.778  31.136  29.300  1.00  0.00    -0.034 C 
ATOM     70  C   UNL A   1      37.220  34.072  33.344  1.00  0.00    -0.036 A 
ATOM     71  N   UNL A   1      38.876  32.570  33.389  1.00  0.00    -0.354 N 
ATOM     72  C   UNL A   1      39.500  29.852  30.084  1.00  0.00     0.074 A 
ATOM     73  C   UNL A   1      38.532  30.081  29.034  1.00  0.00    -0.034 C 
ATOM     74  H   UNL A   1      37.053  31.583  28.718  1.00  0.00     0.065 H 
ATOM     75  C   UNL A   1      37.848  34.200  34.524  1.00  0.00    -0.036 A 
ATOM     76  H   UNL A   1      36.406  34.625  33.036  1.00  0.00     0.065 H 
ATOM     77  C   UNL A   1      38.923  33.215  34.600  1.00  0.00     0.049 A 
ATOM     78  H   UNL A   1      39.500  31.852  33.136  1.00  0.00     0.167 HD
ATOM     79  C   UNL A   1      40.478  28.917  30.033  1.00  0.00     0.037 A 
ATOM     80  H   UNL A   1      38.441  29.497  28.187  1.00  0.00     0.065 H 
ATOM     81  H   UNL A   1      37.609  34.885  35.258  1.00  0.00     0.065 H 
ATOM     82  C   UNL A   1      39.736  33.026  35.656  1.00  0.00     0.037 A 
ATOM     83  C   UNL A   1      41.452  28.708  31.071  1.00  0.00     0.049 A 
ATOM     84  C   UNL A   1      40.806  31.970  35.579  1.00  0.00     0.074 A 
ATOM     85  C   UNL A   1      42.518  27.825  31.091  1.00  0.00    -0.036 A 
ATOM     86  N   UNL A   1      41.476  29.390  32.280  1.00  0.00    -0.354 N 
ATOM     87  N   UNL A   1      41.092  31.151  34.597  1.00  0.00    -0.248 NA
ATOM     88  C   UNL A   1      41.671  31.818  36.758  1.00  0.00    -0.034 C 
ATOM     89  C   UNL A   1      43.157  27.937  32.331  1.00  0.00    -0.036 A 
ATOM     90  H   UNL A   1      42.794  27.193  30.323  1.00  0.00     0.065 H 
ATOM     91  C   UNL A   1      42.524  28.929  33.062  1.00  0.00     0.049 A 
ATOM     92  H   UNL A   1      40.842  30.095  32.543  1.00  0.00     0.167 HD
ATOM     93  C   UNL A   1      42.183  30.409  35.024  1.00  0.00     0.074 A 
ATOM     94  C   UNL A   1      42.519  30.885  36.350  1.00  0.00    -0.034 C 
ATOM     95  H   UNL A   1      41.628  32.308  37.665  1.00  0.00     0.065 H 
ATOM     96  H   UNL A   1      43.964  27.376  32.647  1.00  0.00     0.065 H 
ATOM     97  C   UNL A   1      42.849  29.420  34.377  1.00  0.00     0.037 A 
ATOM     98  H   UNL A   1      43.318  30.543  36.907  1.00  0.00     0.065 H 
BRANCH  79  99
ATOM     99  C   UNL A   1      40.544  28.049  28.809  1.00  0.00     0.064 A 
ATOM    100  C   UNL A   1      39.842  26.836  28.728  1.00  0.00     0.173 A 
ATOM    101  C   UNL A   1      41.290  28.449  27.690  1.00  0.00     0.173 A 
ATOM    102  F   UNL A   1      39.121  26.401  29.774  1.00  0.00    -0.203 F 
ATOM    103  C   UNL A   1      39.910  26.042  27.587  1.00  0.00     0.198 A 
ATOM    104  C   UNL A   1      41.330  27.668  26.537  1.00  0.00     0.198 A 
ATOM    105  F   UNL A   1      41.974  29.602  27.710  1.00  0.00    -0.203 F 
ATOM    106  F   UNL A   1      39.274  24.863  27.553  1.00  0.00    -0.200 F 
ATOM    107  C   UNL A   1      40.648  26.461  26.490  1.00  0.00     0.200 A 
ATOM    108  F   UNL A   1      42.031  28.082  25.473  1.00  0.00    -0.200 F 
ATOM    109  F   UNL A   1      40.707  25.700  25.390  1.00  0.00    -0.200 F 
ENDBRANCH  79  99
BRANCH  82 110
ATOM    110  C   UNL A   1      39.586  33.871  36.871  1.00  0.00     0.064 A 
ATOM    111  C   UNL A   1      38.806  33.440  37.954  1.00  0.00     0.173 A 
ATOM    112  C   UNL A   1      40.210  35.123  36.973  1.00  0.00     0.173 A 
ATOM    113  F   UNL A   1      38.174  32.259  37.896  1.00  0.00    -0.203 F 
ATOM    114  C   UNL A   1      38.639  34.239  39.082  1.00  0.00     0.198 A 
ATOM    115  C   UNL A   1      40.065  35.908  38.115  1.00  0.00     0.198 A 
ATOM    116  F   UNL A   1      40.972  35.578  35.968  1.00  0.00    -0.203 F 
ATOM    117  F   UNL A   1      37.849  33.824  40.082  1.00  0.00    -0.200 F 
ATOM    118  C   UNL A   1      39.272  35.470  39.165  1.00  0.00     0.200 A 
ATOM    119  F   UNL A   1      40.693  37.089  38.197  1.00  0.00    -0.200 F 
ATOM    120  F   UNL A   1      39.114  36.236  40.252  1.00  0.00    -0.200 F 
ENDBRANCH  82 110
BRANCH  97 121
ATOM    121  C   UNL A   1      44.031  28.813  35.077  1.00  0.00     0.064 A 
ATOM    122  C   UNL A   1      43.901  27.683  35.897  1.00  0.00     0.173 A 
ATOM    123  C   UNL A   1      45.315  29.347  34.891  1.00  0.00     0.173 A 
ATOM    124  F   UNL A   1      42.693  27.145  36.120  1.00  0.00    -0.203 F 
ATOM    125  C   UNL A   1      45.010  27.125  36.528  1.00  0.00     0.198 A 
ATOM    126  C   UNL A   1      46.427  28.768  35.498  1.00  0.00     0.198 A 
ATOM    127  F   UNL A   1      45.495  30.423  34.111  1.00  0.00    -0.203 F 
ATOM    128  F   UNL A   1      44.856  26.076  37.347  1.00  0.00    -0.200 F 
ATOM    129  C   UNL A   1      46.273  27.662  36.322  1.00  0.00     0.200 A 
ATOM    130  F   UNL A   1      47.647  29.280  35.285  1.00  0.00    -0.200 F 
ATOM    131  F   UNL A   1      47.340  27.120  36.923  1.00  0.00    -0.200 F 
ENDBRANCH  97 121
ENDBRANCH  62  65
ENDBRANCH  52  55
ENDBRANCH  48  51
ENDBRANCH  45  48
ENDBRANCH  42  45
ENDBRANCH   1  42
TORSDOF 17
ENDMDL
MODEL 2
REMARK VINA RESULT:     -12.5      2.307      7.737
REMARK SMILES Nc1c(CC(=O)NCCCCCCNC(=O)c2ccc(-c3c4nc(c(-c5c(F)c(F)c(F)c(F)c5F)c5ccc([nH]5)c(-c5c(F)c(F)c(F)c(F)c5F)c5nc(c(-c6c(F)c(F)c(F)c(F)c6F)c6ccc3[nH]6)C=C5)C=C4)cc2)cccc1C(=O)c1ccc(Br)cc1
REMARK SMILES IDX 10 1 9 4 8 7 7 10 5 11 6 12 4 14 3 17 2 18 83 19 80 20 82 21
REMARK SMILES IDX 81 22 1 26 84 29 85 30 86 31 87 32 92 33 88 34 91 36 89 38
REMARK SMILES IDX 90 41 11 42 12 45 13 48 14 51 15 52 16 54 17 55 18 56 79 57
REMARK SMILES IDX 19 58 78 60 20 62 21 65 22 66 72 67 23 68 77 69 71 70 73 71
REMARK SMILES IDX 24 72 76 73 70 75 69 77 25 79 57 82 37 83 56 84 38 85 41 86
REMARK SMILES IDX 55 87 74 88 39 89 40 91 54 93 75 94 42 97 26 99 27 100
REMARK SMILES IDX 35 101 28 102 29 103 33 104 36 105 30 106 31 107 34 108
REMARK SMILES IDX 32 109 58 110 59 111 67 112 60 113 61 114 65 115 68 116
REMARK SMILES IDX 62 117 63 118 66 119 64 120 43 121 44 122 52 123 45 124
REMARK SMILES IDX 46 125 50 126 53 127 47 128 48 129 51 130 49 131
REMARK H PARENT 10 2 10 3 9 5 9 6 8 8 8 9 7 13 4 15 4 16 80 23 82 24 81 25
REMARK H PARENT 1 27 1 28 87 35 92 37 88 39 91 40 11 43 11 44 12 46 12 47
REMARK H PARENT 13 49 13 50 14 53 18 59 79 61 19 63 78 64 77 74 71 76 73 78
REMARK H PARENT 76 80 70 81 38 90 41 92 74 95 39 96 75 98
REMARK Flexibility Score: inf
ROOT
ATOM      1  C   UNL A   1      34.408  32.299  29.089  1.00  0.00    -0.052 C 
ATOM      2  H   UNL A   1      35.031  32.085  29.932  1.00  0.00     0.027 H 
ATOM      3  H   UNL A   1      33.369  32.121  29.276  1.00  0.00     0.027 H 
ENDROOT
BRANCH   1   4
ATOM      4  C   UNL A   1      34.809  31.359  27.946  1.00  0.00    -0.036 C 
ATOM      5  H   UNL A   1      35.465  31.887  27.285  1.00  0.00     0.028 H 
ATOM      6  H   UNL A   1      35.285  30.507  28.387  1.00  0.00     0.028 H 
BRANCH   4   7
ATOM      7  C   UNL A   1      33.615  30.847  27.141  1.00  0.00     0.017 C 
ATOM      8  H   UNL A   1      32.851  31.595  27.134  1.00  0.00     0.049 H 
ATOM      9  H   UNL A   1      33.943  30.636  26.144  1.00  0.00     0.049 H 
BRANCH   7  10
ATOM     10  N   UNL A   1      33.081  29.629  27.715  1.00  0.00    -0.356 N 
ATOM     11  C   UNL A   1      32.091  28.818  27.242  1.00  0.00     0.224 C 
ATOM     12  O   UNL A   1      31.705  27.894  27.961  1.00  0.00    -0.275 OA
ATOM     13  H   UNL A   1      33.489  29.348  28.565  1.00  0.00     0.163 HD
BRANCH  11  14
ATOM     14  C   UNL A   1      31.545  29.000  25.834  1.00  0.00     0.054 C 
ATOM     15  H   UNL A   1      30.555  28.594  25.808  1.00  0.00     0.042 H 
ATOM     16  H   UNL A   1      31.580  30.051  25.636  1.00  0.00     0.042 H 
BRANCH  14  17
ATOM     17  C   UNL A   1      32.355  28.335  24.734  1.00  0.00    -0.015 A 
ATOM     18  C   UNL A   1      32.443  26.921  24.589  1.00  0.00     0.046 A 
ATOM     19  C   UNL A   1      33.290  26.389  23.582  1.00  0.00     0.046 A 
ATOM     20  C   UNL A   1      33.069  29.178  23.864  1.00  0.00    -0.056 A 
ATOM     21  C   UNL A   1      33.999  27.270  22.740  1.00  0.00    -0.049 A 
ATOM     22  C   UNL A   1      33.886  28.650  22.874  1.00  0.00    -0.061 A 
ATOM     23  H   UNL A   1      32.985  30.202  23.961  1.00  0.00     0.063 H 
ATOM     24  H   UNL A   1      34.614  26.882  22.009  1.00  0.00     0.063 H 
ATOM     25  H   UNL A   1      34.408  29.276  22.242  1.00  0.00     0.062 H 
BRANCH  18  26
ATOM     26  N   UNL A   1      31.729  26.123  25.475  1.00  0.00    -0.398 N 
ATOM     27  H   UNL A   1      31.976  26.100  26.428  1.00  0.00     0.156 HD
ATOM     28  H   UNL A   1      30.975  25.578  25.149  1.00  0.00     0.156 HD
ENDBRANCH  18  26
BRANCH  19  29
ATOM     29  C   UNL A   1      33.567  24.932  23.334  1.00  0.00     0.195 C 
ATOM     30  O   UNL A   1      32.914  24.312  22.494  1.00  0.00    -0.289 OA
BRANCH  29  31
ATOM     31  C   UNL A   1      34.655  24.184  23.989  1.00  0.00     0.023 A 
ATOM     32  C   UNL A   1      35.343  23.231  23.225  1.00  0.00    -0.050 A 
ATOM     33  C   UNL A   1      35.033  24.436  25.312  1.00  0.00    -0.050 A 
ATOM     34  C   UNL A   1      36.458  22.585  23.759  1.00  0.00    -0.047 A 
ATOM     35  H   UNL A   1      35.024  23.007  22.269  1.00  0.00     0.063 H 
ATOM     36  C   UNL A   1      36.158  23.797  25.840  1.00  0.00    -0.047 A 
ATOM     37  H   UNL A   1      34.485  25.089  25.894  1.00  0.00     0.063 H 
ATOM     38  C   UNL A   1      36.872  22.886  25.056  1.00  0.00     0.018 A 
ATOM     39  H   UNL A   1      36.973  21.888  23.198  1.00  0.00     0.063 H 
ATOM     40  H   UNL A   1      36.462  23.997  26.805  1.00  0.00     0.063 H 
ATOM     41  Br  UNL A   1      38.428  22.069  25.752  1.00  0.00    -0.051 Br
ENDBRANCH  29  31
ENDBRANCH  19  29
ENDBRANCH  14  17
ENDBRANCH  11  14
ENDBRANCH   7  10
ENDBRANCH   4   7
ENDBRANCH   1   4
BRANCH   1  42
ATOM     42  C   UNL A   1      34.539  33.793  28.768  1.00  0.00    -0.052 C 
ATOM     43  H   UNL A   1      34.879  33.887  27.757  1.00  0.00     0.027 H 
ATOM     44  H   UNL A   1      35.223  34.196  29.484  1.00  0.00     0.027 H 
BRANCH  42  45
ATOM     45  C   UNL A   1      33.244  34.599  28.910  1.00  0.00    -0.036 C 
ATOM     46  H   UNL A   1      32.578  34.052  29.542  1.00  0.00     0.028 H 
ATOM     47  H   UNL A   1      32.860  34.737  27.921  1.00  0.00     0.028 H 
BRANCH  45  48
ATOM     48  C   UNL A   1      33.434  35.990  29.504  1.00  0.00     0.018 C 
ATOM     49  H   UNL A   1      33.219  36.721  28.753  1.00  0.00     0.049 H 
ATOM     50  H   UNL A   1      34.446  36.071  29.843  1.00  0.00     0.049 H 
BRANCH  48  51
ATOM     51  N   UNL A   1      32.557  36.215  30.644  1.00  0.00    -0.352 N 
ATOM     52  C   UNL A   1      32.630  35.707  31.913  1.00  0.00     0.251 C 
ATOM     53  H   UNL A   1      31.800  36.823  30.479  1.00  0.00     0.163 HD
ATOM     54  O   UNL A   1      31.681  35.835  32.688  1.00  0.00    -0.269 OA
BRANCH  52  55
ATOM     55  C   UNL A   1      33.842  34.988  32.355  1.00  0.00     0.039 A 
ATOM     56  C   UNL A   1      33.717  33.686  32.845  1.00  0.00    -0.049 A 
ATOM     57  C   UNL A   1      35.096  35.604  32.302  1.00  0.00    -0.049 A 
ATOM     58  C   UNL A   1      34.857  32.980  33.232  1.00  0.00    -0.053 A 
ATOM     59  H   UNL A   1      32.786  33.249  32.921  1.00  0.00     0.063 H 
ATOM     60  C   UNL A   1      36.239  34.874  32.619  1.00  0.00    -0.053 A 
ATOM     61  H   UNL A   1      35.175  36.596  32.028  1.00  0.00     0.063 H 
ATOM     62  C   UNL A   1      36.130  33.558  33.093  1.00  0.00    -0.014 A 
ATOM     63  H   UNL A   1      34.765  32.030  33.621  1.00  0.00     0.063 H 
ATOM     64  H   UNL A   1      37.170  35.304  32.505  1.00  0.00     0.063 H 
BRANCH  62  65
ATOM     65  C   UNL A   1      37.359  32.805  33.445  1.00  0.00     0.031 A 
ATOM     66  C   UNL A   1      38.093  33.111  34.720  1.00  0.00     0.074 A 
ATOM     67  C   UNL A   1      37.848  31.889  32.586  1.00  0.00     0.049 A 
ATOM     68  N   UNL A   1      39.219  32.614  35.169  1.00  0.00    -0.248 NA
ATOM     69  C   UNL A   1      37.495  34.130  35.598  1.00  0.00    -0.034 C 
ATOM     70  C   UNL A   1      37.249  31.535  31.299  1.00  0.00    -0.036 A 
ATOM     71  N   UNL A   1      38.967  31.099  32.662  1.00  0.00    -0.354 N 
ATOM     72  C   UNL A   1      39.469  33.269  36.368  1.00  0.00     0.074 A 
ATOM     73  C   UNL A   1      38.409  34.236  36.551  1.00  0.00    -0.034 C 
ATOM     74  H   UNL A   1      36.599  34.631  35.496  1.00  0.00     0.065 H 
ATOM     75  C   UNL A   1      37.994  30.582  30.715  1.00  0.00    -0.036 A 
ATOM     76  H   UNL A   1      36.391  31.950  30.903  1.00  0.00     0.065 H 
ATOM     77  C   UNL A   1      39.143  30.289  31.567  1.00  0.00     0.049 A 
ATOM     78  H   UNL A   1      39.585  31.111  33.428  1.00  0.00     0.167 HD
ATOM     79  C   UNL A   1      40.479  33.065  37.247  1.00  0.00     0.037 A 
ATOM     80  H   UNL A   1      38.370  34.920  37.323  1.00  0.00     0.065 H 
ATOM     81  H   UNL A   1      37.788  30.131  29.810  1.00  0.00     0.065 H 
ATOM     82  C   UNL A   1      40.126  29.415  31.279  1.00  0.00     0.037 A 
ATOM     83  C   UNL A   1      41.520  32.087  37.070  1.00  0.00     0.049 A 
ATOM     84  C   UNL A   1      41.245  29.218  32.266  1.00  0.00     0.074 A 
ATOM     85  C   UNL A   1      42.555  31.762  37.929  1.00  0.00    -0.036 A 
ATOM     86  N   UNL A   1      41.658  31.275  35.952  1.00  0.00    -0.354 N 
ATOM     87  N   UNL A   1      41.435  29.793  33.428  1.00  0.00    -0.248 NA
ATOM     88  C   UNL A   1      42.283  28.242  31.903  1.00  0.00    -0.034 C 
ATOM     89  C   UNL A   1      43.349  30.791  37.310  1.00  0.00    -0.036 A 
ATOM     90  H   UNL A   1      42.715  32.168  38.864  1.00  0.00     0.065 H 
ATOM     91  C   UNL A   1      42.777  30.468  36.090  1.00  0.00     0.049 A 
ATOM     92  H   UNL A   1      41.052  31.274  35.177  1.00  0.00     0.167 HD
ATOM     93  C   UNL A   1      42.593  29.231  33.948  1.00  0.00     0.074 A 
ATOM     94  C   UNL A   1      43.055  28.257  32.980  1.00  0.00    -0.034 C 
ATOM     95  H   UNL A   1      42.384  27.691  31.037  1.00  0.00     0.065 H 
ATOM     96  H   UNL A   1      44.215  30.383  37.697  1.00  0.00     0.065 H 
ATOM     97  C   UNL A   1      43.219  29.498  35.121  1.00  0.00     0.037 A 
ATOM     98  H   UNL A   1      43.879  27.652  33.113  1.00  0.00     0.065 H 
BRANCH  79  99
ATOM     99  C   UNL A   1      40.505  33.917  38.483  1.00  0.00     0.064 A 
ATOM    100  C   UNL A   1      39.826  33.540  39.652  1.00  0.00     0.173 A 
ATOM    101  C   UNL A   1      41.247  35.109  38.512  1.00  0.00     0.173 A 
ATOM    102  F   UNL A   1      39.094  32.416  39.675  1.00  0.00    -0.203 F 
ATOM    103  C   UNL A   1      39.861  34.339  40.792  1.00  0.00     0.198 A 
ATOM    104  C   UNL A   1      41.306  35.889  39.665  1.00  0.00     0.198 A 
ATOM    105  F   UNL A   1      41.921  35.513  37.426  1.00  0.00    -0.203 F 
ATOM    106  F   UNL A   1      39.162  33.984  41.878  1.00  0.00    -0.200 F 
ATOM    107  C   UNL A   1      40.607  35.508  40.800  1.00  0.00     0.200 A 
ATOM    108  F   UNL A   1      42.039  37.011  39.676  1.00  0.00    -0.200 F 
ATOM    109  F   UNL A   1      40.645  36.272  41.900  1.00  0.00    -0.200 F 
ENDBRANCH  79  99
BRANCH  82 110
ATOM    110  C   UNL A   1      40.086  28.643  30.009  1.00  0.00     0.064 A 
ATOM    111  C   UNL A   1      39.470  27.384  29.952  1.00  0.00     0.173 A 
ATOM    112  C   UNL A   1      40.662  29.140  28.832  1.00  0.00     0.173 A 
ATOM    113  F   UNL A   1      38.921  26.857  31.057  1.00  0.00    -0.203 F 
ATOM    114  C   UNL A   1      39.454  26.643  28.773  1.00  0.00     0.198 A 
ATOM    115  C   UNL A   1      40.619  28.410  27.645  1.00  0.00     0.198 A 
ATOM    116  F   UNL A   1      41.257  30.342  28.830  1.00  0.00    -0.203 F 
ATOM    117  F   UNL A   1      38.902  25.422  28.760  1.00  0.00    -0.200 F 
ATOM    118  C   UNL A   1      40.023  27.159  27.619  1.00  0.00     0.200 A 
ATOM    119  F   UNL A   1      41.156  28.921  26.528  1.00  0.00    -0.200 F 
ATOM    120  F   UNL A   1      40.004  26.448  26.484  1.00  0.00    -0.200 F 
ENDBRANCH  82 110
BRANCH  97 121
ATOM    121  C   UNL A   1      44.449  28.700  35.441  1.00  0.00     0.064 A 
ATOM    122  C   UNL A   1      45.729  29.139  35.073  1.00  0.00     0.173 A 
ATOM    123  C   UNL A   1      44.347  27.500  36.162  1.00  0.00     0.173 A 
ATOM    124  F   UNL A   1      45.879  30.271  34.370  1.00  0.00    -0.203 F 
ATOM    125  C   UNL A   1      46.861  28.391  35.391  1.00  0.00     0.198 A 
ATOM    126  C   UNL A   1      45.483  26.771  36.506  1.00  0.00     0.198 A 
ATOM    127  F   UNL A   1      43.147  27.039  36.544  1.00  0.00    -0.203 F 
ATOM    128  F   UNL A   1      48.069  28.804  34.986  1.00  0.00    -0.200 F 
ATOM    129  C   UNL A   1      46.738  27.213  36.114  1.00  0.00     0.200 A 
ATOM    130  F   UNL A   1      45.362  25.641  37.216  1.00  0.00    -0.200 F 
ATOM    131  F   UNL A   1      47.828  26.500  36.426  1.00  0.00    -0.200 F 
ENDBRANCH  97 121
ENDBRANCH  62  65
ENDBRANCH  52  55
ENDBRANCH  48  51
ENDBRANCH  45  48
ENDBRANCH  42  45
ENDBRANCH   1  42
TORSDOF 17
ENDMDL
MODEL 3
REMARK VINA RESULT:     -12.4      0.527      2.059
REMARK SMILES Nc1c(CC(=O)NCCCCCCNC(=O)c2ccc(-c3c4nc(c(-c5c(F)c(F)c(F)c(F)c5F)c5ccc([nH]5)c(-c5c(F)c(F)c(F)c(F)c5F)c5nc(c(-c6c(F)c(F)c(F)c(F)c6F)c6ccc3[nH]6)C=C5)C=C4)cc2)cccc1C(=O)c1ccc(Br)cc1
REMARK SMILES IDX 10 1 9 4 8 7 7 10 5 11 6 12 4 14 3 17 2 18 83 19 80 20 82 21
REMARK SMILES IDX 81 22 1 26 84 29 85 30 86 31 87 32 92 33 88 34 91 36 89 38
REMARK SMILES IDX 90 41 11 42 12 45 13 48 14 51 15 52 16 54 17 55 18 56 79 57
REMARK SMILES IDX 19 58 78 60 20 62 21 65 22 66 72 67 23 68 77 69 71 70 73 71
REMARK SMILES IDX 24 72 76 73 70 75 69 77 25 79 57 82 37 83 56 84 38 85 41 86
REMARK SMILES IDX 55 87 74 88 39 89 40 91 54 93 75 94 42 97 26 99 27 100
REMARK SMILES IDX 35 101 28 102 29 103 33 104 36 105 30 106 31 107 34 108
REMARK SMILES IDX 32 109 58 110 59 111 67 112 60 113 61 114 65 115 68 116
REMARK SMILES IDX 62 117 63 118 66 119 64 120 43 121 44 122 52 123 45 124
REMARK SMILES IDX 46 125 50 126 53 127 47 128 48 129 51 130 49 131
REMARK H PARENT 10 2 10 3 9 5 9 6 8 8 8 9 7 13 4 15 4 16 80 23 82 24 81 25
REMARK H PARENT 1 27 1 28 87 35 92 37 88 39 91 40 11 43 11 44 12 46 12 47
REMARK H PARENT 13 49 13 50 14 53 18 59 79 61 19 63 78 64 77 74 71 76 73 78
REMARK H PARENT 76 80 70 81 38 90 41 92 74 95 39 96 75 98
REMARK Flexibility Score: inf
ROOT
ATOM      1  C   UNL A   1      32.840  30.228  26.567  1.00  0.00    -0.052 C 
ATOM      2  H   UNL A   1      33.471  30.422  25.726  1.00  0.00     0.027 H 
ATOM      3  H   UNL A   1      33.202  30.661  27.476  1.00  0.00     0.027 H 
ENDROOT
BRANCH   1   4
ATOM      4  C   UNL A   1      32.804  28.711  26.797  1.00  0.00    -0.036 C 
ATOM      5  H   UNL A   1      33.763  28.399  27.153  1.00  0.00     0.028 H 
ATOM      6  H   UNL A   1      32.028  28.515  27.508  1.00  0.00     0.028 H 
BRANCH   4   7
ATOM      7  C   UNL A   1      32.473  27.919  25.532  1.00  0.00     0.017 C 
ATOM      8  H   UNL A   1      32.483  28.581  24.692  1.00  0.00     0.049 H 
ATOM      9  H   UNL A   1      33.206  27.149  25.413  1.00  0.00     0.049 H 
BRANCH   7  10
ATOM     10  N   UNL A   1      31.168  27.299  25.630  1.00  0.00    -0.356 N 
ATOM     11  C   UNL A   1      30.850  26.014  25.961  1.00  0.00     0.224 C 
ATOM     12  O   UNL A   1      29.672  25.663  25.859  1.00  0.00    -0.275 OA
ATOM     13  H   UNL A   1      30.405  27.886  25.431  1.00  0.00     0.163 HD
BRANCH  11  14
ATOM     14  C   UNL A   1      31.904  25.073  26.521  1.00  0.00     0.054 C 
ATOM     15  H   UNL A   1      32.638  25.662  27.029  1.00  0.00     0.042 H 
ATOM     16  H   UNL A   1      31.384  24.393  27.163  1.00  0.00     0.042 H 
BRANCH  14  17
ATOM     17  C   UNL A   1      32.620  24.216  25.490  1.00  0.00    -0.015 A 
ATOM     18  C   UNL A   1      31.998  23.115  24.836  1.00  0.00     0.046 A 
ATOM     19  C   UNL A   1      32.770  22.321  23.948  1.00  0.00     0.046 A 
ATOM     20  C   UNL A   1      33.967  24.524  25.222  1.00  0.00    -0.056 A 
ATOM     21  C   UNL A   1      34.120  22.657  23.720  1.00  0.00    -0.049 A 
ATOM     22  C   UNL A   1      34.712  23.750  24.344  1.00  0.00    -0.061 A 
ATOM     23  H   UNL A   1      34.406  25.336  25.684  1.00  0.00     0.063 H 
ATOM     24  H   UNL A   1      34.681  22.080  23.075  1.00  0.00     0.063 H 
ATOM     25  H   UNL A   1      35.699  23.983  24.156  1.00  0.00     0.062 H 
BRANCH  18  26
ATOM     26  N   UNL A   1      30.668  22.838  25.134  1.00  0.00    -0.398 N 
ATOM     27  H   UNL A   1      30.059  23.568  25.392  1.00  0.00     0.156 HD
ATOM     28  H   UNL A   1      30.336  21.912  25.088  1.00  0.00     0.156 HD
ENDBRANCH  18  26
BRANCH  19  29
ATOM     29  C   UNL A   1      32.307  21.082  23.234  1.00  0.00     0.195 C 
ATOM     30  O   UNL A   1      31.755  21.170  22.137  1.00  0.00    -0.289 OA
BRANCH  29  31
ATOM     31  C   UNL A   1      32.545  19.715  23.731  1.00  0.00     0.023 A 
ATOM     32  C   UNL A   1      32.625  19.530  25.118  1.00  0.00    -0.050 A 
ATOM     33  C   UNL A   1      32.644  18.621  22.865  1.00  0.00    -0.050 A 
ATOM     34  C   UNL A   1      32.726  18.242  25.643  1.00  0.00    -0.047 A 
ATOM     35  H   UNL A   1      32.608  20.346  25.750  1.00  0.00     0.063 H 
ATOM     36  C   UNL A   1      32.733  17.331  23.395  1.00  0.00    -0.047 A 
ATOM     37  H   UNL A   1      32.653  18.766  21.844  1.00  0.00     0.063 H 
ATOM     38  C   UNL A   1      32.760  17.148  24.780  1.00  0.00     0.018 A 
ATOM     39  H   UNL A   1      32.777  18.100  26.665  1.00  0.00     0.063 H 
ATOM     40  H   UNL A   1      32.778  16.515  22.765  1.00  0.00     0.063 H 
ATOM     41  Br  UNL A   1      32.818  15.398  25.494  1.00  0.00    -0.051 Br
ENDBRANCH  29  31
ENDBRANCH  19  29
ENDBRANCH  14  17
ENDBRANCH  11  14
ENDBRANCH   7  10
ENDBRANCH   4   7
ENDBRANCH   1   4
BRANCH   1  42
ATOM     42  C   UNL A   1      31.473  30.869  26.297  1.00  0.00    -0.052 C 
ATOM     43  H   UNL A   1      30.749  30.381  26.916  1.00  0.00     0.027 H 
ATOM     44  H   UNL A   1      31.286  30.747  25.251  1.00  0.00     0.027 H 
BRANCH  42  45
ATOM     45  C   UNL A   1      31.400  32.373  26.573  1.00  0.00    -0.036 C 
ATOM     46  H   UNL A   1      30.551  32.558  27.197  1.00  0.00     0.028 H 
ATOM     47  H   UNL A   1      31.329  32.856  25.621  1.00  0.00     0.028 H 
BRANCH  45  48
ATOM     48  C   UNL A   1      32.634  32.944  27.263  1.00  0.00     0.018 C 
ATOM     49  H   UNL A   1      33.464  32.888  26.592  1.00  0.00     0.049 H 
ATOM     50  H   UNL A   1      32.814  32.371  28.148  1.00  0.00     0.049 H 
BRANCH  48  51
ATOM     51  N   UNL A   1      32.440  34.332  27.656  1.00  0.00    -0.352 N 
ATOM     52  C   UNL A   1      33.028  35.041  28.670  1.00  0.00     0.251 C 
ATOM     53  H   UNL A   1      31.790  34.836  27.114  1.00  0.00     0.163 HD
ATOM     54  O   UNL A   1      32.585  36.144  28.993  1.00  0.00    -0.269 OA
BRANCH  52  55
ATOM     55  C   UNL A   1      34.187  34.479  29.390  1.00  0.00     0.039 A 
ATOM     56  C   UNL A   1      33.976  33.821  30.605  1.00  0.00    -0.049 A 
ATOM     57  C   UNL A   1      35.481  34.615  28.879  1.00  0.00    -0.049 A 
ATOM     58  C   UNL A   1      35.058  33.253  31.281  1.00  0.00    -0.053 A 
ATOM     59  H   UNL A   1      33.026  33.756  31.000  1.00  0.00     0.063 H 
ATOM     60  C   UNL A   1      36.548  33.986  29.516  1.00  0.00    -0.053 A 
ATOM     61  H   UNL A   1      35.646  35.181  28.032  1.00  0.00     0.063 H 
ATOM     62  C   UNL A   1      36.346  33.304  30.726  1.00  0.00    -0.014 A 
ATOM     63  H   UNL A   1      34.909  32.792  32.191  1.00  0.00     0.063 H 
ATOM     64  H   UNL A   1      37.489  34.022  29.096  1.00  0.00     0.063 H 
BRANCH  62  65
ATOM     65  C   UNL A   1      37.500  32.657  31.399  1.00  0.00     0.031 A 
ATOM     66  C   UNL A   1      38.219  31.517  30.735  1.00  0.00     0.074 A 
ATOM     67  C   UNL A   1      37.860  33.056  32.635  1.00  0.00     0.049 A 
ATOM     68  N   UNL A   1      39.200  30.778  31.190  1.00  0.00    -0.248 NA
ATOM     69  C   UNL A   1      37.757  31.138  29.390  1.00  0.00    -0.034 C 
ATOM     70  C   UNL A   1      37.213  34.123  33.399  1.00  0.00    -0.036 A 
ATOM     71  N   UNL A   1      38.850  32.602  33.469  1.00  0.00    -0.354 N 
ATOM     72  C   UNL A   1      39.460  29.842  30.197  1.00  0.00     0.074 A 
ATOM     73  C   UNL A   1      38.500  30.071  29.139  1.00  0.00    -0.034 C 
ATOM     74  H   UNL A   1      37.041  31.588  28.799  1.00  0.00     0.065 H 
ATOM     75  C   UNL A   1      37.836  34.257  34.581  1.00  0.00    -0.036 A 
ATOM     76  H   UNL A   1      36.406  34.683  33.081  1.00  0.00     0.065 H 
ATOM     77  C   UNL A   1      38.899  33.261  34.673  1.00  0.00     0.049 A 
ATOM     78  H   UNL A   1      39.467  31.875  33.227  1.00  0.00     0.167 HD
ATOM     79  C   UNL A   1      40.427  28.895  30.161  1.00  0.00     0.037 A 
ATOM     80  H   UNL A   1      38.407  29.480  28.298  1.00  0.00     0.065 H 
ATOM     81  H   UNL A   1      37.601  34.952  35.306  1.00  0.00     0.065 H 
ATOM     82  C   UNL A   1      39.704  33.073  35.736  1.00  0.00     0.037 A 
ATOM     83  C   UNL A   1      41.393  28.686  31.207  1.00  0.00     0.049 A 
ATOM     84  C   UNL A   1      40.761  32.004  35.676  1.00  0.00     0.074 A 
ATOM     85  C   UNL A   1      42.449  27.791  31.242  1.00  0.00    -0.036 A 
ATOM     86  N   UNL A   1      41.419  29.381  32.409  1.00  0.00    -0.354 N 
ATOM     87  N   UNL A   1      41.043  31.171  34.704  1.00  0.00    -0.248 NA
ATOM     88  C   UNL A   1      41.618  31.854  36.861  1.00  0.00    -0.034 C 
ATOM     89  C   UNL A   1      43.082  27.909  32.484  1.00  0.00    -0.036 A 
ATOM     90  H   UNL A   1      42.721  27.147  30.483  1.00  0.00     0.065 H 
ATOM     91  C   UNL A   1      42.457  28.916  33.201  1.00  0.00     0.049 A 
ATOM     92  H   UNL A   1      40.792  30.096  32.660  1.00  0.00     0.167 HD
ATOM     93  C   UNL A   1      42.123  30.420  35.145  1.00  0.00     0.074 A 
ATOM     94  C   UNL A   1      42.457  30.907  36.468  1.00  0.00    -0.034 C 
ATOM     95  H   UNL A   1      41.576  32.355  37.763  1.00  0.00     0.065 H 
ATOM     96  H   UNL A   1      43.880  27.342  32.810  1.00  0.00     0.065 H 
ATOM     97  C   UNL A   1      42.781  29.417  34.513  1.00  0.00     0.037 A 
ATOM     98  H   UNL A   1      43.249  30.561  37.033  1.00  0.00     0.065 H 
BRANCH  79  99
ATOM     99  C   UNL A   1      40.489  28.013  28.947  1.00  0.00     0.064 A 
ATOM    100  C   UNL A   1      41.279  28.345  27.835  1.00  0.00     0.173 A 
ATOM    101  C   UNL A   1      39.779  26.803  28.907  1.00  0.00     0.173 A 
ATOM    102  F   UNL A   1      41.970  29.495  27.817  1.00  0.00    -0.203 F 
ATOM    103  C   UNL A   1      41.329  27.517  26.717  1.00  0.00     0.198 A 
ATOM    104  C   UNL A   1      39.858  25.961  27.801  1.00  0.00     0.198 A 
ATOM    105  F   UNL A   1      39.015  26.432  29.946  1.00  0.00    -0.203 F 
ATOM    106  F   UNL A   1      42.049  27.881  25.647  1.00  0.00    -0.200 F 
ATOM    107  C   UNL A   1      40.625  26.322  26.703  1.00  0.00     0.200 A 
ATOM    108  F   UNL A   1      39.188  24.800  27.795  1.00  0.00    -0.200 F 
ATOM    109  F   UNL A   1      40.680  25.523  25.630  1.00  0.00    -0.200 F 
ENDBRANCH  79  99
BRANCH  82 110
ATOM    110  C   UNL A   1      39.557  33.933  36.940  1.00  0.00     0.064 A 
ATOM    111  C   UNL A   1      40.194  35.180  37.015  1.00  0.00     0.173 A 
ATOM    112  C   UNL A   1      38.786  33.527  38.039  1.00  0.00     0.173 A 
ATOM    113  F   UNL A   1      40.959  35.603  35.997  1.00  0.00    -0.203 F 
ATOM    114  C   UNL A   1      40.084  35.978  38.152  1.00  0.00     0.198 A 
ATOM    115  C   UNL A   1      38.652  34.340  39.164  1.00  0.00     0.198 A 
ATOM    116  F   UNL A   1      38.150  32.347  38.015  1.00  0.00    -0.203 F 
ATOM    117  F   UNL A   1      40.742  37.143  38.215  1.00  0.00    -0.200 F 
ATOM    118  C   UNL A   1      39.309  35.560  39.223  1.00  0.00     0.200 A 
ATOM    119  F   UNL A   1      37.888  33.939  40.189  1.00  0.00    -0.200 F 
ATOM    120  F   UNL A   1      39.199  36.329  40.314  1.00  0.00    -0.200 F 
ENDBRANCH  82 110
BRANCH  97 121
ATOM    121  C   UNL A   1      43.951  28.804  35.226  1.00  0.00     0.064 A 
ATOM    122  C   UNL A   1      45.258  29.277  35.037  1.00  0.00     0.173 A 
ATOM    123  C   UNL A   1      43.756  27.758  36.140  1.00  0.00     0.173 A 
ATOM    124  F   UNL A   1      45.500  30.265  34.163  1.00  0.00    -0.203 F 
ATOM    125  C   UNL A   1      46.331  28.705  35.718  1.00  0.00     0.198 A 
ATOM    126  C   UNL A   1      44.825  27.210  36.842  1.00  0.00     0.198 A 
ATOM    127  F   UNL A   1      42.524  27.274  36.362  1.00  0.00    -0.203 F 
ATOM    128  F   UNL A   1      47.577  29.138  35.485  1.00  0.00    -0.200 F 
ATOM    129  C   UNL A   1      46.113  27.678  36.625  1.00  0.00     0.200 A 
ATOM    130  F   UNL A   1      44.611  26.228  37.729  1.00  0.00    -0.200 F 
ATOM    131  F   UNL A   1      47.145  27.135  37.285  1.00  0.00    -0.200 F 
ENDBRANCH  97 121
ENDBRANCH  62  65
ENDBRANCH  52  55
ENDBRANCH  48  51
ENDBRANCH  45  48
ENDBRANCH  42  45
ENDBRANCH   1  42
TORSDOF 17
ENDMDL
MODEL 4
REMARK VINA RESULT:     -12.4      5.280     11.468
REMARK SMILES Nc1c(CC(=O)NCCCCCCNC(=O)c2ccc(-c3c4nc(c(-c5c(F)c(F)c(F)c(F)c5F)c5ccc([nH]5)c(-c5c(F)c(F)c(F)c(F)c5F)c5nc(c(-c6c(F)c(F)c(F)c(F)c6F)c6ccc3[nH]6)C=C5)C=C4)cc2)cccc1C(=O)c1ccc(Br)cc1
REMARK SMILES IDX 10 1 9 4 8 7 7 10 5 11 6 12 4 14 3 17 2 18 83 19 80 20 82 21
REMARK SMILES IDX 81 22 1 26 84 29 85 30 86 31 87 32 92 33 88 34 91 36 89 38
REMARK SMILES IDX 90 41 11 42 12 45 13 48 14 51 15 52 16 54 17 55 18 56 79 57
REMARK SMILES IDX 19 58 78 60 20 62 21 65 22 66 72 67 23 68 77 69 71 70 73 71
REMARK SMILES IDX 24 72 76 73 70 75 69 77 25 79 57 82 37 83 56 84 38 85 41 86
REMARK SMILES IDX 55 87 74 88 39 89 40 91 54 93 75 94 42 97 26 99 27 100
REMARK SMILES IDX 35 101 28 102 29 103 33 104 36 105 30 106 31 107 34 108
REMARK SMILES IDX 32 109 58 110 59 111 67 112 60 113 61 114 65 115 68 116
REMARK SMILES IDX 62 117 63 118 66 119 64 120 43 121 44 122 52 123 45 124
REMARK SMILES IDX 46 125 50 126 53 127 47 128 48 129 51 130 49 131
REMARK H PARENT 10 2 10 3 9 5 9 6 8 8 8 9 7 13 4 15 4 16 80 23 82 24 81 25
REMARK H PARENT 1 27 1 28 87 35 92 37 88 39 91 40 11 43 11 44 12 46 12 47
REMARK H PARENT 13 49 13 50 14 53 18 59 79 61 19 63 78 64 77 74 71 76 73 78
REMARK H PARENT 76 80 70 81 38 90 41 92 74 95 39 96 75 98
REMARK Flexibility Score: inf
ROOT
ATOM      1  C   UNL A   1      37.321  32.809  30.878  1.00  0.00    -0.052 C 
ATOM      2  H   UNL A   1      38.019  31.999  30.917  1.00  0.00     0.027 H 
ATOM      3  H   UNL A   1      37.010  33.051  29.884  1.00  0.00     0.027 H 
ENDROOT
BRANCH   1   4
ATOM      4  C   UNL A   1      38.013  34.062  31.431  1.00  0.00    -0.036 C 
ATOM      5  H   UNL A   1      39.066  33.878  31.474  1.00  0.00     0.028 H 
ATOM      6  H   UNL A   1      37.775  34.873  30.775  1.00  0.00     0.028 H 
BRANCH   4   7
ATOM      7  C   UNL A   1      37.529  34.450  32.828  1.00  0.00     0.017 C 
ATOM      8  H   UNL A   1      36.986  35.369  32.767  1.00  0.00     0.049 H 
ATOM      9  H   UNL A   1      36.901  33.667  33.199  1.00  0.00     0.049 H 
BRANCH   7  10
ATOM     10  N   UNL A   1      38.643  34.617  33.739  1.00  0.00    -0.356 N 
ATOM     11  C   UNL A   1      38.948  33.905  34.862  1.00  0.00     0.224 C 
ATOM     12  O   UNL A   1      39.881  34.302  35.565  1.00  0.00    -0.275 OA
ATOM     13  H   UNL A   1      39.265  35.346  33.517  1.00  0.00     0.163 HD
BRANCH  11  14
ATOM     14  C   UNL A   1      38.215  32.613  35.186  1.00  0.00     0.054 C 
ATOM     15  H   UNL A   1      38.043  32.586  36.241  1.00  0.00     0.042 H 
ATOM     16  H   UNL A   1      37.314  32.631  34.607  1.00  0.00     0.042 H 
BRANCH  14  17
ATOM     17  C   UNL A   1      38.943  31.339  34.794  1.00  0.00    -0.015 A 
ATOM     18  C   UNL A   1      40.026  30.807  35.550  1.00  0.00     0.046 A 
ATOM     19  C   UNL A   1      40.701  29.656  35.064  1.00  0.00     0.046 A 
ATOM     20  C   UNL A   1      38.534  30.703  33.608  1.00  0.00    -0.056 A 
ATOM     21  C   UNL A   1      40.266  29.059  33.863  1.00  0.00    -0.049 A 
ATOM     22  C   UNL A   1      39.190  29.572  33.145  1.00  0.00    -0.061 A 
ATOM     23  H   UNL A   1      37.735  31.082  33.076  1.00  0.00     0.063 H 
ATOM     24  H   UNL A   1      40.756  28.224  33.510  1.00  0.00     0.063 H 
ATOM     25  H   UNL A   1      38.884  29.115  32.272  1.00  0.00     0.062 H 
BRANCH  18  26
ATOM     26  N   UNL A   1      40.406  31.469  36.713  1.00  0.00    -0.398 N 
ATOM     27  H   UNL A   1      40.157  32.412  36.846  1.00  0.00     0.156 HD
ATOM     28  H   UNL A   1      40.925  30.995  37.403  1.00  0.00     0.156 HD
ENDBRANCH  18  26
BRANCH  19  29
ATOM     29  C   UNL A   1      41.907  29.006  35.682  1.00  0.00     0.195 C 
ATOM     30  O   UNL A   1      42.281  29.342  36.807  1.00  0.00    -0.289 OA
BRANCH  29  31
ATOM     31  C   UNL A   1      42.652  27.901  35.054  1.00  0.00     0.023 A 
ATOM     32  C   UNL A   1      42.298  26.592  35.407  1.00  0.00    -0.050 A 
ATOM     33  C   UNL A   1      43.651  28.132  34.102  1.00  0.00    -0.050 A 
ATOM     34  C   UNL A   1      42.888  25.512  34.752  1.00  0.00    -0.047 A 
ATOM     35  H   UNL A   1      41.602  26.428  36.151  1.00  0.00     0.063 H 
ATOM     36  C   UNL A   1      44.231  27.047  33.438  1.00  0.00    -0.047 A 
ATOM     37  H   UNL A   1      43.957  29.094  33.892  1.00  0.00     0.063 H 
ATOM     38  C   UNL A   1      43.837  25.745  33.757  1.00  0.00     0.018 A 
ATOM     39  H   UNL A   1      42.625  24.545  35.002  1.00  0.00     0.063 H 
ATOM     40  H   UNL A   1      44.947  27.207  32.714  1.00  0.00     0.063 H 
ATOM     41  Br  UNL A   1      44.578  24.283  32.814  1.00  0.00    -0.051 Br
ENDBRANCH  29  31
ENDBRANCH  19  29
ENDBRANCH  14  17
ENDBRANCH  11  14
ENDBRANCH   7  10
ENDBRANCH   4   7
ENDBRANCH   1   4
BRANCH   1  42
ATOM     42  C   UNL A   1      36.057  32.387  31.637  1.00  0.00    -0.052 C 
ATOM     43  H   UNL A   1      36.004  32.959  32.539  1.00  0.00     0.027 H 
ATOM     44  H   UNL A   1      36.146  31.335  31.807  1.00  0.00     0.027 H 
BRANCH  42  45
ATOM     45  C   UNL A   1      34.747  32.587  30.869  1.00  0.00    -0.036 C 
ATOM     46  H   UNL A   1      34.295  33.494  31.211  1.00  0.00     0.028 H 
ATOM     47  H   UNL A   1      34.145  31.724  31.060  1.00  0.00     0.028 H 
BRANCH  45  48
ATOM     48  C   UNL A   1      34.915  32.678  29.356  1.00  0.00     0.018 C 
ATOM     49  H   UNL A   1      35.954  32.597  29.117  1.00  0.00     0.049 H 
ATOM     50  H   UNL A   1      34.517  33.617  29.034  1.00  0.00     0.049 H 
BRANCH  48  51
ATOM     51  N   UNL A   1      34.189  31.621  28.667  1.00  0.00    -0.352 N 
ATOM     52  C   UNL A   1      34.659  30.459  28.114  1.00  0.00     0.251 C 
ATOM     53  H   UNL A   1      33.218  31.761  28.587  1.00  0.00     0.163 HD
ATOM     54  O   UNL A   1      33.934  29.784  27.382  1.00  0.00    -0.269 OA
BRANCH  52  55
ATOM     55  C   UNL A   1      36.042  30.018  28.382  1.00  0.00     0.039 A 
ATOM     56  C   UNL A   1      37.017  30.212  27.399  1.00  0.00    -0.049 A 
ATOM     57  C   UNL A   1      36.374  29.399  29.591  1.00  0.00    -0.049 A 
ATOM     58  C   UNL A   1      38.337  29.833  27.651  1.00  0.00    -0.053 A 
ATOM     59  H   UNL A   1      36.762  30.632  26.493  1.00  0.00     0.063 H 
ATOM     60  C   UNL A   1      37.702  29.089  29.868  1.00  0.00    -0.053 A 
ATOM     61  H   UNL A   1      35.635  29.172  30.275  1.00  0.00     0.063 H 
ATOM     62  C   UNL A   1      38.695  29.297  28.899  1.00  0.00    -0.014 A 
ATOM     63  H   UNL A   1      39.053  29.948  26.917  1.00  0.00     0.063 H 
ATOM     64  H   UNL A   1      37.957  28.704  30.791  1.00  0.00     0.063 H 
BRANCH  62  65
ATOM     65  C   UNL A   1      40.103  28.941  29.207  1.00  0.00     0.031 A 
ATOM     66  C   UNL A   1      40.975  29.902  29.964  1.00  0.00     0.074 A 
ATOM     67  C   UNL A   1      40.611  27.780  28.752  1.00  0.00     0.049 A 
ATOM     68  N   UNL A   1      42.246  29.805  30.268  1.00  0.00    -0.248 NA
ATOM     69  C   UNL A   1      40.344  31.151  30.418  1.00  0.00    -0.034 C 
ATOM     70  C   UNL A   1      39.875  26.785  27.970  1.00  0.00    -0.036 A 
ATOM     71  N   UNL A   1      41.869  27.246  28.870  1.00  0.00    -0.354 N 
ATOM     72  C   UNL A   1      42.566  30.982  30.933  1.00  0.00     0.074 A 
ATOM     73  C   UNL A   1      41.373  31.801  30.941  1.00  0.00    -0.034 C 
ATOM     74  H   UNL A   1      39.357  31.444  30.347  1.00  0.00     0.065 H 
ATOM     75  C   UNL A   1      40.688  25.751  27.698  1.00  0.00    -0.036 A 
ATOM     76  H   UNL A   1      38.889  26.865  27.676  1.00  0.00     0.065 H 
ATOM     77  C   UNL A   1      42.011  26.029  28.249  1.00  0.00     0.049 A 
ATOM     78  H   UNL A   1      42.601  27.693  29.354  1.00  0.00     0.167 HD
ATOM     79  C   UNL A   1      43.741  31.336  31.506  1.00  0.00     0.037 A 
ATOM     80  H   UNL A   1      41.330  32.765  31.307  1.00  0.00     0.065 H 
ATOM     81  H   UNL A   1      40.421  24.900  27.181  1.00  0.00     0.065 H 
ATOM     82  C   UNL A   1      43.090  25.232  28.131  1.00  0.00     0.037 A 
ATOM     83  C   UNL A   1      44.918  30.508  31.514  1.00  0.00     0.049 A 
ATOM     84  C   UNL A   1      44.388  25.656  28.764  1.00  0.00     0.074 A 
ATOM     85  C   UNL A   1      46.141  30.751  32.115  1.00  0.00    -0.036 A 
ATOM     86  N   UNL A   1      45.021  29.275  30.884  1.00  0.00    -0.354 N 
ATOM     87  N   UNL A   1      44.661  26.739  29.449  1.00  0.00    -0.248 NA
ATOM     88  C   UNL A   1      45.528  24.740  28.612  1.00  0.00    -0.034 C 
ATOM     89  C   UNL A   1      46.998  29.689  31.809  1.00  0.00    -0.036 A 
ATOM     90  H   UNL A   1      46.379  31.574  32.691  1.00  0.00     0.065 H 
ATOM     91  C   UNL A   1      46.294  28.757  31.063  1.00  0.00     0.049 A 
ATOM     92  H   UNL A   1      44.296  28.835  30.384  1.00  0.00     0.167 HD
ATOM     93  C   UNL A   1      45.989  26.624  29.834  1.00  0.00     0.074 A 
ATOM     94  C   UNL A   1      46.464  25.356  29.319  1.00  0.00    -0.034 C 
ATOM     95  H   UNL A   1      45.584  23.851  28.091  1.00  0.00     0.065 H 
ATOM     96  H   UNL A   1      47.988  29.612  32.090  1.00  0.00     0.065 H 
ATOM     97  C   UNL A   1      46.748  27.490  30.550  1.00  0.00     0.037 A 
ATOM     98  H   UNL A   1      47.411  24.980  29.482  1.00  0.00     0.065 H 
BRANCH  79  99
ATOM     99  C   UNL A   1      43.810  32.679  32.174  1.00  0.00     0.064 A 
ATOM    100  C   UNL A   1      44.202  33.831  31.474  1.00  0.00     0.173 A 
ATOM    101  C   UNL A   1      43.447  32.824  33.522  1.00  0.00     0.173 A 
ATOM    102  F   UNL A   1      44.569  33.746  30.186  1.00  0.00    -0.203 F 
ATOM    103  C   UNL A   1      44.259  35.070  32.106  1.00  0.00     0.198 A 
ATOM    104  C   UNL A   1      43.474  34.071  34.143  1.00  0.00     0.198 A 
ATOM    105  F   UNL A   1      43.057  31.758  34.237  1.00  0.00    -0.203 F 
ATOM    106  F   UNL A   1      44.687  36.145  31.431  1.00  0.00    -0.200 F 
ATOM    107  C   UNL A   1      43.889  35.191  33.437  1.00  0.00     0.200 A 
ATOM    108  F   UNL A   1      43.102  34.188  35.424  1.00  0.00    -0.200 F 
ATOM    109  F   UNL A   1      43.937  36.385  34.042  1.00  0.00    -0.200 F 
ENDBRANCH  79  99
BRANCH  82 110
ATOM    110  C   UNL A   1      42.984  23.941  27.401  1.00  0.00     0.064 A 
ATOM    111  C   UNL A   1      42.548  22.780  28.056  1.00  0.00     0.173 A 
ATOM    112  C   UNL A   1      43.319  23.839  26.044  1.00  0.00     0.173 A 
ATOM    113  F   UNL A   1      42.234  22.823  29.359  1.00  0.00    -0.203 F 
ATOM    114  C   UNL A   1      42.473  21.561  27.385  1.00  0.00     0.198 A 
ATOM    115  C   UNL A   1      43.215  22.624  25.367  1.00  0.00     0.198 A 
ATOM    116  F   UNL A   1      43.734  24.921  25.370  1.00  0.00    -0.203 F 
ATOM    117  F   UNL A   1      42.100  20.458  28.047  1.00  0.00    -0.200 F 
ATOM    118  C   UNL A   1      42.801  21.485  26.041  1.00  0.00     0.200 A 
ATOM    119  F   UNL A   1      43.518  22.560  24.063  1.00  0.00    -0.200 F 
ATOM    120  F   UNL A   1      42.726  20.314  25.395  1.00  0.00    -0.200 F 
ENDBRANCH  82 110
BRANCH  97 121
ATOM    121  C   UNL A   1      48.161  27.079  30.852  1.00  0.00     0.064 A 
ATOM    122  C   UNL A   1      49.226  27.433  30.012  1.00  0.00     0.173 A 
ATOM    123  C   UNL A   1      48.455  26.357  32.019  1.00  0.00     0.173 A 
ATOM    124  F   UNL A   1      48.996  28.110  28.877  1.00  0.00    -0.203 F 
ATOM    125  C   UNL A   1      50.532  27.055  30.315  1.00  0.00     0.198 A 
ATOM    126  C   UNL A   1      49.765  26.009  32.335  1.00  0.00     0.198 A 
ATOM    127  F   UNL A   1      47.473  26.000  32.860  1.00  0.00    -0.203 F 
ATOM    128  F   UNL A   1      51.528  27.361  29.473  1.00  0.00    -0.200 F 
ATOM    129  C   UNL A   1      50.802  26.351  31.479  1.00  0.00     0.200 A 
ATOM    130  F   UNL A   1      50.024  25.341  33.468  1.00  0.00    -0.200 F 
ATOM    131  F   UNL A   1      52.060  25.995  31.773  1.00  0.00    -0.200 F 
ENDBRANCH  97 121
ENDBRANCH  62  65
ENDBRANCH  52  55
ENDBRANCH  48  51
ENDBRANCH  45  48
ENDBRANCH  42  45
ENDBRANCH   1  42
TORSDOF 17
ENDMDL
MODEL 5
REMARK VINA RESULT:     -12.4      5.420     11.061
REMARK SMILES Nc1c(CC(=O)NCCCCCCNC(=O)c2ccc(-c3c4nc(c(-c5c(F)c(F)c(F)c(F)c5F)c5ccc([nH]5)c(-c5c(F)c(F)c(F)c(F)c5F)c5nc(c(-c6c(F)c(F)c(F)c(F)c6F)c6ccc3[nH]6)C=C5)C=C4)cc2)cccc1C(=O)c1ccc(Br)cc1
REMARK SMILES IDX 10 1 9 4 8 7 7 10 5 11 6 12 4 14 3 17 2 18 83 19 80 20 82 21
REMARK SMILES IDX 81 22 1 26 84 29 85 30 86 31 87 32 92 33 88 34 91 36 89 38
REMARK SMILES IDX 90 41 11 42 12 45 13 48 14 51 15 52 16 54 17 55 18 56 79 57
REMARK SMILES IDX 19 58 78 60 20 62 21 65 22 66 72 67 23 68 77 69 71 70 73 71
REMARK SMILES IDX 24 72 76 73 70 75 69 77 25 79 57 82 37 83 56 84 38 85 41 86
REMARK SMILES IDX 55 87 74 88 39 89 40 91 54 93 75 94 42 97 26 99 27 100
REMARK SMILES IDX 35 101 28 102 29 103 33 104 36 105 30 106 31 107 34 108
REMARK SMILES IDX 32 109 58 110 59 111 67 112 60 113 61 114 65 115 68 116
REMARK SMILES IDX 62 117 63 118 66 119 64 120 43 121 44 122 52 123 45 124
REMARK SMILES IDX 46 125 50 126 53 127 47 128 48 129 51 130 49 131
REMARK H PARENT 10 2 10 3 9 5 9 6 8 8 8 9 7 13 4 15 4 16 80 23 82 24 81 25
REMARK H PARENT 1 27 1 28 87 35 92 37 88 39 91 40 11 43 11 44 12 46 12 47
REMARK H PARENT 13 49 13 50 14 53 18 59 79 61 19 63 78 64 77 74 71 76 73 78
REMARK H PARENT 76 80 70 81 38 90 41 92 74 95 39 96 75 98
REMARK Flexibility Score: inf
ROOT
ATOM      1  C   UNL A   1      33.248  36.124  29.132  1.00  0.00    -0.052 C 
ATOM      2  H   UNL A   1      33.665  37.107  29.193  1.00  0.00     0.027 H 
ATOM      3  H   UNL A   1      32.393  36.067  28.491  1.00  0.00     0.027 H 
ENDROOT
BRANCH   1   4
ATOM      4  C   UNL A   1      32.766  35.722  30.532  1.00  0.00    -0.036 C 
ATOM      5  H   UNL A   1      31.779  36.112  30.676  1.00  0.00     0.028 H 
ATOM      6  H   UNL A   1      32.786  34.653  30.581  1.00  0.00     0.028 H 
BRANCH   4   7
ATOM      7  C   UNL A   1      33.665  36.246  31.651  1.00  0.00     0.017 C 
ATOM      8  H   UNL A   1      34.638  36.442  31.255  1.00  0.00     0.049 H 
ATOM      9  H   UNL A   1      33.231  37.143  32.043  1.00  0.00     0.049 H 
BRANCH   7  10
ATOM     10  N   UNL A   1      33.776  35.282  32.726  1.00  0.00    -0.356 N 
ATOM     11  C   UNL A   1      34.563  34.170  32.805  1.00  0.00     0.224 C 
ATOM     12  O   UNL A   1      34.405  33.414  33.766  1.00  0.00    -0.275 OA
ATOM     13  H   UNL A   1      33.204  35.452  33.508  1.00  0.00     0.163 HD
BRANCH  11  14
ATOM     14  C   UNL A   1      35.660  33.921  31.782  1.00  0.00     0.054 C 
ATOM     15  H   UNL A   1      35.328  33.147  31.122  1.00  0.00     0.042 H 
ATOM     16  H   UNL A   1      35.826  34.858  31.291  1.00  0.00     0.042 H 
BRANCH  14  17
ATOM     17  C   UNL A   1      37.002  33.504  32.360  1.00  0.00    -0.015 A 
ATOM     18  C   UNL A   1      37.275  32.176  32.793  1.00  0.00     0.046 A 
ATOM     19  C   UNL A   1      38.530  31.898  33.396  1.00  0.00     0.046 A 
ATOM     20  C   UNL A   1      37.981  34.505  32.496  1.00  0.00    -0.056 A 
ATOM     21  C   UNL A   1      39.477  32.933  33.526  1.00  0.00    -0.049 A 
ATOM     22  C   UNL A   1      39.210  34.222  33.076  1.00  0.00    -0.061 A 
ATOM     23  H   UNL A   1      37.784  35.461  32.161  1.00  0.00     0.063 H 
ATOM     24  H   UNL A   1      40.388  32.731  33.965  1.00  0.00     0.063 H 
ATOM     25  H   UNL A   1      39.921  34.963  33.174  1.00  0.00     0.062 H 
BRANCH  18  26
ATOM     26  N   UNL A   1      36.278  31.218  32.649  1.00  0.00    -0.398 N 
ATOM     27  H   UNL A   1      36.132  30.787  31.776  1.00  0.00     0.156 HD
ATOM     28  H   UNL A   1      35.717  30.970  33.420  1.00  0.00     0.156 HD
ENDBRANCH  18  26
BRANCH  19  29
ATOM     29  C   UNL A   1      38.961  30.581  33.982  1.00  0.00     0.195 C 
ATOM     30  O   UNL A   1      38.323  30.078  34.908  1.00  0.00    -0.289 OA
BRANCH  29  31
ATOM     31  C   UNL A   1      40.081  29.781  33.457  1.00  0.00     0.023 A 
ATOM     32  C   UNL A   1      41.379  30.146  33.841  1.00  0.00    -0.050 A 
ATOM     33  C   UNL A   1      39.873  28.666  32.640  1.00  0.00    -0.050 A 
ATOM     34  C   UNL A   1      42.463  29.350  33.471  1.00  0.00    -0.047 A 
ATOM     35  H   UNL A   1      41.532  31.003  34.396  1.00  0.00     0.063 H 
ATOM     36  C   UNL A   1      40.960  27.863  32.282  1.00  0.00    -0.047 A 
ATOM     37  H   UNL A   1      38.925  28.437  32.303  1.00  0.00     0.063 H 
ATOM     38  C   UNL A   1      42.246  28.202  32.711  1.00  0.00     0.018 A 
ATOM     39  H   UNL A   1      43.420  29.610  33.759  1.00  0.00     0.063 H 
ATOM     40  H   UNL A   1      40.813  27.022  31.704  1.00  0.00     0.063 H 
ATOM     41  Br  UNL A   1      43.705  27.081  32.277  1.00  0.00    -0.051 Br
ENDBRANCH  29  31
ENDBRANCH  19  29
ENDBRANCH  14  17
ENDBRANCH  11  14
ENDBRANCH   7  10
ENDBRANCH   4   7
ENDBRANCH   1   4
BRANCH   1  42
ATOM     42  C   UNL A   1      34.306  35.194  28.525  1.00  0.00    -0.052 C 
ATOM     43  H   UNL A   1      35.040  34.991  29.277  1.00  0.00     0.027 H 
ATOM     44  H   UNL A   1      34.702  35.705  27.673  1.00  0.00     0.027 H 
BRANCH  42  45
ATOM     45  C   UNL A   1      33.768  33.855  28.011  1.00  0.00    -0.036 C 
ATOM     46  H   UNL A   1      33.869  33.841  26.946  1.00  0.00     0.028 H 
ATOM     47  H   UNL A   1      32.751  33.790  28.333  1.00  0.00     0.028 H 
BRANCH  45  48
ATOM     48  C   UNL A   1      34.486  32.634  28.575  1.00  0.00     0.018 C 
ATOM     49  H   UNL A   1      34.583  32.746  29.634  1.00  0.00     0.049 H 
ATOM     50  H   UNL A   1      35.444  32.565  28.104  1.00  0.00     0.049 H 
BRANCH  48  51
ATOM     51  N   UNL A   1      33.758  31.403  28.297  1.00  0.00    -0.352 N 
ATOM     52  C   UNL A   1      34.238  30.148  28.035  1.00  0.00     0.251 C 
ATOM     53  H   UNL A   1      32.777  31.486  28.299  1.00  0.00     0.163 HD
ATOM     54  O   UNL A   1      33.483  29.272  27.611  1.00  0.00    -0.269 OA
BRANCH  52  55
ATOM     55  C   UNL A   1      35.667  29.842  28.246  1.00  0.00     0.039 A 
ATOM     56  C   UNL A   1      36.554  29.978  27.175  1.00  0.00    -0.049 A 
ATOM     57  C   UNL A   1      36.128  29.406  29.491  1.00  0.00    -0.049 A 
ATOM     58  C   UNL A   1      37.914  29.728  27.367  1.00  0.00    -0.053 A 
ATOM     59  H   UNL A   1      36.206  30.261  26.247  1.00  0.00     0.063 H 
ATOM     60  C   UNL A   1      37.493  29.227  29.700  1.00  0.00    -0.053 A 
ATOM     61  H   UNL A   1      35.459  29.216  30.254  1.00  0.00     0.063 H 
ATOM     62  C   UNL A   1      38.398  29.380  28.639  1.00  0.00    -0.014 A 
ATOM     63  H   UNL A   1      38.566  29.799  26.571  1.00  0.00     0.063 H 
ATOM     64  H   UNL A   1      37.840  28.980  30.640  1.00  0.00     0.063 H 
BRANCH  62  65
ATOM     65  C   UNL A   1      39.847  29.166  28.878  1.00  0.00     0.031 A 
ATOM     66  C   UNL A   1      40.673  30.244  29.520  1.00  0.00     0.074 A 
ATOM     67  C   UNL A   1      40.429  28.025  28.460  1.00  0.00     0.049 A 
ATOM     68  N   UNL A   1      41.963  30.275  29.748  1.00  0.00    -0.248 NA
ATOM     69  C   UNL A   1      39.961  31.462  29.939  1.00  0.00    -0.034 C 
ATOM     70  C   UNL A   1      39.740  26.923  27.787  1.00  0.00    -0.036 A 
ATOM     71  N   UNL A   1      41.734  27.609  28.530  1.00  0.00    -0.354 N 
ATOM     72  C   UNL A   1      42.215  31.515  30.321  1.00  0.00     0.074 A 
ATOM     73  C   UNL A   1      40.957  32.229  30.355  1.00  0.00    -0.034 C 
ATOM     74  H   UNL A   1      38.950  31.664  29.913  1.00  0.00     0.065 H 
ATOM     75  C   UNL A   1      40.625  25.947  27.525  1.00  0.00    -0.036 A 
ATOM     76  H   UNL A   1      38.736  26.900  27.552  1.00  0.00     0.065 H 
ATOM     77  C   UNL A   1      41.947  26.371  27.974  1.00  0.00     0.049 A 
ATOM     78  H   UNL A   1      42.451  28.146  28.940  1.00  0.00     0.167 HD
ATOM     79  C   UNL A   1      43.385  32.004  30.795  1.00  0.00     0.037 A 
ATOM     80  H   UNL A   1      40.850  33.208  30.666  1.00  0.00     0.065 H 
ATOM     81  H   UNL A   1      40.404  25.044  27.078  1.00  0.00     0.065 H 
ATOM     82  C   UNL A   1      43.084  25.663  27.835  1.00  0.00     0.037 A 
ATOM     83  C   UNL A   1      44.630  31.281  30.778  1.00  0.00     0.049 A 
ATOM     84  C   UNL A   1      44.374  26.235  28.358  1.00  0.00     0.074 A 
ATOM     85  C   UNL A   1      45.859  31.665  31.285  1.00  0.00    -0.036 A 
ATOM     86  N   UNL A   1      44.805  30.024  30.217  1.00  0.00    -0.354 N 
ATOM     87  N   UNL A   1      44.589  27.379  28.960  1.00  0.00    -0.248 NA
ATOM     88  C   UNL A   1      45.580  25.412  28.189  1.00  0.00    -0.034 C 
ATOM     89  C   UNL A   1      46.788  30.662  30.988  1.00  0.00    -0.036 A 
ATOM     90  H   UNL A   1      46.056  32.541  31.795  1.00  0.00     0.065 H 
ATOM     91  C   UNL A   1      46.127  29.628  30.345  1.00  0.00     0.049 A 
ATOM     92  H   UNL A   1      44.095  29.492  29.791  1.00  0.00     0.167 HD
ATOM     93  C   UNL A   1      45.942  27.402  29.266  1.00  0.00     0.074 A 
ATOM     94  C   UNL A   1      46.497  26.149  28.798  1.00  0.00    -0.034 C 
ATOM     95  H   UNL A   1      45.684  24.499  27.718  1.00  0.00     0.065 H 
ATOM     96  H   UNL A   1      47.796  30.688  31.211  1.00  0.00     0.065 H 
ATOM     97  C   UNL A   1      46.662  28.374  29.880  1.00  0.00     0.037 A 
ATOM     98  H   UNL A   1      47.481  25.866  28.923  1.00  0.00     0.065 H 
BRANCH  79  99
ATOM     99  C   UNL A   1      43.374  33.388  31.378  1.00  0.00     0.064 A 
ATOM    100  C   UNL A   1      43.249  33.605  32.760  1.00  0.00     0.173 A 
ATOM    101  C   UNL A   1      43.524  34.511  30.551  1.00  0.00     0.173 A 
ATOM    102  F   UNL A   1      43.092  32.566  33.594  1.00  0.00    -0.203 F 
ATOM    103  C   UNL A   1      43.242  34.893  33.286  1.00  0.00     0.198 A 
ATOM    104  C   UNL A   1      43.550  35.798  31.084  1.00  0.00     0.198 A 
ATOM    105  F   UNL A   1      43.656  34.362  29.224  1.00  0.00    -0.203 F 
ATOM    106  F   UNL A   1      43.068  35.076  34.602  1.00  0.00    -0.200 F 
ATOM    107  C   UNL A   1      43.400  35.988  32.450  1.00  0.00     0.200 A 
ATOM    108  F   UNL A   1      43.717  36.854  30.277  1.00  0.00    -0.200 F 
ATOM    109  F   UNL A   1      43.400  37.227  32.959  1.00  0.00    -0.200 F 
ENDBRANCH  79  99
BRANCH  82 110
ATOM    110  C   UNL A   1      43.051  24.323  27.191  1.00  0.00     0.064 A 
ATOM    111  C   UNL A   1      43.406  24.164  25.844  1.00  0.00     0.173 A 
ATOM    112  C   UNL A   1      42.660  23.179  27.902  1.00  0.00     0.173 A 
ATOM    113  F   UNL A   1      43.768  25.232  25.117  1.00  0.00    -0.203 F 
ATOM    114  C   UNL A   1      43.350  22.916  25.227  1.00  0.00     0.198 A 
ATOM    115  C   UNL A   1      42.633  21.927  27.291  1.00  0.00     0.198 A 
ATOM    116  F   UNL A   1      42.317  23.275  29.195  1.00  0.00    -0.203 F 
ATOM    117  F   UNL A   1      43.649  22.802  23.926  1.00  0.00    -0.200 F 
ATOM    118  C   UNL A   1      42.969  21.798  25.952  1.00  0.00     0.200 A 
ATOM    119  F   UNL A   1      42.280  20.846  28.001  1.00  0.00    -0.200 F 
ATOM    120  F   UNL A   1      42.919  20.597  25.360  1.00  0.00    -0.200 F 
ENDBRANCH  82 110
BRANCH  97 121
ATOM    121  C   UNL A   1      48.120  28.105  30.115  1.00  0.00     0.064 A 
ATOM    122  C   UNL A   1      49.098  28.482  29.184  1.00  0.00     0.173 A 
ATOM    123  C   UNL A   1      48.546  27.500  31.308  1.00  0.00     0.173 A 
ATOM    124  F   UNL A   1      48.742  29.049  28.022  1.00  0.00    -0.203 F 
ATOM    125  C   UNL A   1      50.448  28.236  29.425  1.00  0.00     0.198 A 
ATOM    126  C   UNL A   1      49.898  27.285  31.560  1.00  0.00     0.198 A 
ATOM    127  F   UNL A   1      47.651  27.127  32.235  1.00  0.00    -0.203 F 
ATOM    128  F   UNL A   1      51.361  28.559  28.499  1.00  0.00    -0.200 F 
ATOM    129  C   UNL A   1      50.848  27.647  30.616  1.00  0.00     0.200 A 
ATOM    130  F   UNL A   1      50.282  26.728  32.717  1.00  0.00    -0.200 F 
ATOM    131  F   UNL A   1      52.147  27.419  30.850  1.00  0.00    -0.200 F 
ENDBRANCH  97 121
ENDBRANCH  62  65
ENDBRANCH  52  55
ENDBRANCH  48  51
ENDBRANCH  45  48
ENDBRANCH  42  45
ENDBRANCH   1  42
TORSDOF 17
ENDMDL
MODEL 6
REMARK VINA RESULT:     -12.4      1.591      7.567
REMARK SMILES Nc1c(CC(=O)NCCCCCCNC(=O)c2ccc(-c3c4nc(c(-c5c(F)c(F)c(F)c(F)c5F)c5ccc([nH]5)c(-c5c(F)c(F)c(F)c(F)c5F)c5nc(c(-c6c(F)c(F)c(F)c(F)c6F)c6ccc3[nH]6)C=C5)C=C4)cc2)cccc1C(=O)c1ccc(Br)cc1
REMARK SMILES IDX 10 1 9 4 8 7 7 10 5 11 6 12 4 14 3 17 2 18 83 19 80 20 82 21
REMARK SMILES IDX 81 22 1 26 84 29 85 30 86 31 87 32 92 33 88 34 91 36 89 38
REMARK SMILES IDX 90 41 11 42 12 45 13 48 14 51 15 52 16 54 17 55 18 56 79 57
REMARK SMILES IDX 19 58 78 60 20 62 21 65 22 66 72 67 23 68 77 69 71 70 73 71
REMARK SMILES IDX 24 72 76 73 70 75 69 77 25 79 57 82 37 83 56 84 38 85 41 86
REMARK SMILES IDX 55 87 74 88 39 89 40 91 54 93 75 94 42 97 26 99 27 100
REMARK SMILES IDX 35 101 28 102 29 103 33 104 36 105 30 106 31 107 34 108
REMARK SMILES IDX 32 109 58 110 59 111 67 112 60 113 61 114 65 115 68 116
REMARK SMILES IDX 62 117 63 118 66 119 64 120 43 121 44 122 52 123 45 124
REMARK SMILES IDX 46 125 50 126 53 127 47 128 48 129 51 130 49 131
REMARK H PARENT 10 2 10 3 9 5 9 6 8 8 8 9 7 13 4 15 4 16 80 23 82 24 81 25
REMARK H PARENT 1 27 1 28 87 35 92 37 88 39 91 40 11 43 11 44 12 46 12 47
REMARK H PARENT 13 49 13 50 14 53 18 59 79 61 19 63 78 64 77 74 71 76 73 78
REMARK H PARENT 76 80 70 81 38 90 41 92 74 95 39 96 75 98
REMARK Flexibility Score: inf
ROOT
ATOM      1  C   UNL A   1      34.420  31.984  28.674  1.00  0.00    -0.052 C 
ATOM      2  H   UNL A   1      35.395  31.544  28.639  1.00  0.00     0.027 H 
ATOM      3  H   UNL A   1      33.863  31.707  29.545  1.00  0.00     0.027 H 
ENDROOT
BRANCH   1   4
ATOM      4  C   UNL A   1      33.621  31.472  27.469  1.00  0.00    -0.036 C 
ATOM      5  H   UNL A   1      32.581  31.648  27.651  1.00  0.00     0.028 H 
ATOM      6  H   UNL A   1      33.972  32.000  26.607  1.00  0.00     0.028 H 
BRANCH   4   7
ATOM      7  C   UNL A   1      33.823  29.980  27.202  1.00  0.00     0.017 C 
ATOM      8  H   UNL A   1      33.792  29.806  26.148  1.00  0.00     0.049 H 
ATOM      9  H   UNL A   1      34.772  29.690  27.604  1.00  0.00     0.049 H 
BRANCH   7  10
ATOM     10  N   UNL A   1      32.792  29.191  27.843  1.00  0.00    -0.356 N 
ATOM     11  C   UNL A   1      31.903  28.321  27.282  1.00  0.00     0.224 C 
ATOM     12  O   UNL A   1      31.021  27.848  28.002  1.00  0.00    -0.275 OA
ATOM     13  H   UNL A   1      32.722  29.298  28.818  1.00  0.00     0.163 HD
BRANCH  11  14
ATOM     14  C   UNL A   1      32.054  27.883  25.834  1.00  0.00     0.054 C 
ATOM     15  H   UNL A   1      31.091  27.934  25.370  1.00  0.00     0.042 H 
ATOM     16  H   UNL A   1      32.773  28.544  25.397  1.00  0.00     0.042 H 
BRANCH  14  17
ATOM     17  C   UNL A   1      32.597  26.478  25.635  1.00  0.00    -0.015 A 
ATOM     18  C   UNL A   1      31.769  25.320  25.663  1.00  0.00     0.046 A 
ATOM     19  C   UNL A   1      32.377  24.042  25.550  1.00  0.00     0.046 A 
ATOM     20  C   UNL A   1      33.987  26.345  25.459  1.00  0.00    -0.056 A 
ATOM     21  C   UNL A   1      33.774  23.955  25.389  1.00  0.00    -0.049 A 
ATOM     22  C   UNL A   1      34.572  25.093  25.338  1.00  0.00    -0.061 A 
ATOM     23  H   UNL A   1      34.579  27.190  25.419  1.00  0.00     0.063 H 
ATOM     24  H   UNL A   1      34.215  23.025  25.308  1.00  0.00     0.063 H 
ATOM     25  H   UNL A   1      35.592  25.006  25.212  1.00  0.00     0.062 H 
BRANCH  18  26
ATOM     26  N   UNL A   1      30.402  25.493  25.848  1.00  0.00    -0.398 N 
ATOM     27  H   UNL A   1      29.884  26.038  25.212  1.00  0.00     0.156 HD
ATOM     28  H   UNL A   1      29.951  25.070  26.615  1.00  0.00     0.156 HD
ENDBRANCH  18  26
BRANCH  19  29
ATOM     29  C   UNL A   1      31.675  22.715  25.638  1.00  0.00     0.195 C 
ATOM     30  O   UNL A   1      30.586  22.628  26.206  1.00  0.00    -0.289 OA
BRANCH  29  31
ATOM     31  C   UNL A   1      32.173  21.484  25.000  1.00  0.00     0.023 A 
ATOM     32  C   UNL A   1      32.749  20.509  25.825  1.00  0.00    -0.050 A 
ATOM     33  C   UNL A   1      32.042  21.259  23.626  1.00  0.00    -0.050 A 
ATOM     34  C   UNL A   1      33.124  19.277  25.289  1.00  0.00    -0.047 A 
ATOM     35  H   UNL A   1      32.896  20.702  26.828  1.00  0.00     0.063 H 
ATOM     36  C   UNL A   1      32.406  20.019  23.094  1.00  0.00    -0.047 A 
ATOM     37  H   UNL A   1      31.679  22.003  23.009  1.00  0.00     0.063 H 
ATOM     38  C   UNL A   1      32.933  19.031  23.930  1.00  0.00     0.018 A 
ATOM     39  H   UNL A   1      33.542  18.552  25.894  1.00  0.00     0.063 H 
ATOM     40  H   UNL A   1      32.287  19.833  22.086  1.00  0.00     0.063 H 
ATOM     41  Br  UNL A   1      33.368  17.334  23.218  1.00  0.00    -0.051 Br
ENDBRANCH  29  31
ENDBRANCH  19  29
ENDBRANCH  14  17
ENDBRANCH  11  14
ENDBRANCH   7  10
ENDBRANCH   4   7
ENDBRANCH   1   4
BRANCH   1  42
ATOM     42  C   UNL A   1      34.587  33.507  28.734  1.00  0.00    -0.052 C 
ATOM     43  H   UNL A   1      35.132  33.816  27.867  1.00  0.00     0.027 H 
ATOM     44  H   UNL A   1      35.096  33.718  29.651  1.00  0.00     0.027 H 
BRANCH  42  45
ATOM     45  C   UNL A   1      33.276  34.298  28.779  1.00  0.00    -0.036 C 
ATOM     46  H   UNL A   1      32.625  33.825  29.484  1.00  0.00     0.028 H 
ATOM     47  H   UNL A   1      32.884  34.297  27.784  1.00  0.00     0.028 H 
BRANCH  45  48
ATOM     48  C   UNL A   1      33.439  35.759  29.185  1.00  0.00     0.018 C 
ATOM     49  H   UNL A   1      33.170  36.381  28.357  1.00  0.00     0.049 H 
ATOM     50  H   UNL A   1      34.459  35.913  29.468  1.00  0.00     0.049 H 
BRANCH  48  51
ATOM     51  N   UNL A   1      32.599  36.101  30.323  1.00  0.00    -0.352 N 
ATOM     52  C   UNL A   1      32.686  35.688  31.626  1.00  0.00     0.251 C 
ATOM     53  H   UNL A   1      31.859  36.721  30.129  1.00  0.00     0.163 HD
ATOM     54  O   UNL A   1      31.761  35.909  32.410  1.00  0.00    -0.269 OA
BRANCH  52  55
ATOM     55  C   UNL A   1      33.883  34.962  32.094  1.00  0.00     0.039 A 
ATOM     56  C   UNL A   1      33.758  33.623  32.476  1.00  0.00    -0.049 A 
ATOM     57  C   UNL A   1      35.123  35.604  32.173  1.00  0.00    -0.049 A 
ATOM     58  C   UNL A   1      34.888  32.913  32.886  1.00  0.00    -0.053 A 
ATOM     59  H   UNL A   1      32.836  33.163  32.455  1.00  0.00     0.063 H 
ATOM     60  C   UNL A   1      36.259  34.875  32.512  1.00  0.00    -0.053 A 
ATOM     61  H   UNL A   1      35.195  36.615  31.980  1.00  0.00     0.063 H 
ATOM     62  C   UNL A   1      36.151  33.524  32.878  1.00  0.00    -0.014 A 
ATOM     63  H   UNL A   1      34.793  31.934  33.196  1.00  0.00     0.063 H 
ATOM     64  H   UNL A   1      37.185  35.331  32.495  1.00  0.00     0.063 H 
BRANCH  62  65
ATOM     65  C   UNL A   1      37.373  32.771  33.255  1.00  0.00     0.031 A 
ATOM     66  C   UNL A   1      38.077  33.074  34.548  1.00  0.00     0.074 A 
ATOM     67  C   UNL A   1      37.882  31.858  32.405  1.00  0.00     0.049 A 
ATOM     68  N   UNL A   1      39.193  32.577  35.020  1.00  0.00    -0.248 NA
ATOM     69  C   UNL A   1      37.460  34.091  35.414  1.00  0.00    -0.034 C 
ATOM     70  C   UNL A   1      37.312  31.506  31.104  1.00  0.00    -0.036 A 
ATOM     71  N   UNL A   1      38.999  31.068  32.504  1.00  0.00    -0.354 N 
ATOM     72  C   UNL A   1      39.416  33.229  36.226  1.00  0.00     0.074 A 
ATOM     73  C   UNL A   1      38.352  34.195  36.387  1.00  0.00    -0.034 C 
ATOM     74  H   UNL A   1      36.566  34.591  35.293  1.00  0.00     0.065 H 
ATOM     75  C   UNL A   1      38.071  30.556  30.535  1.00  0.00    -0.036 A 
ATOM     76  H   UNL A   1      36.463  31.922  30.690  1.00  0.00     0.065 H 
ATOM     77  C   UNL A   1      39.200  30.260  31.411  1.00  0.00     0.049 A 
ATOM     78  H   UNL A   1      39.600  31.078  33.284  1.00  0.00     0.167 HD
ATOM     79  C   UNL A   1      40.406  33.023  37.127  1.00  0.00     0.037 A 
ATOM     80  H   UNL A   1      38.295  34.876  37.161  1.00  0.00     0.065 H 
ATOM     81  H   UNL A   1      37.885  30.107  29.624  1.00  0.00     0.065 H 
ATOM     82  C   UNL A   1      40.190  29.388  31.143  1.00  0.00     0.037 A 
ATOM     83  C   UNL A   1      41.451  32.045  36.971  1.00  0.00     0.049 A 
ATOM     84  C   UNL A   1      41.286  29.189  32.155  1.00  0.00     0.074 A 
ATOM     85  C   UNL A   1      42.467  31.719  37.852  1.00  0.00    -0.036 A 
ATOM     86  N   UNL A   1      41.615  31.237  35.855  1.00  0.00    -0.354 N 
ATOM     87  N   UNL A   1      41.450  29.761  33.323  1.00  0.00    -0.248 NA
ATOM     88  C   UNL A   1      42.333  28.215  31.813  1.00  0.00    -0.034 C 
ATOM     89  C   UNL A   1      43.276  30.749  37.250  1.00  0.00    -0.036 A 
ATOM     90  H   UNL A   1      42.606  32.123  38.793  1.00  0.00     0.065 H 
ATOM     91  C   UNL A   1      42.731  30.430  36.016  1.00  0.00     0.049 A 
ATOM     92  H   UNL A   1      41.027  31.237  35.066  1.00  0.00     0.167 HD
ATOM     93  C   UNL A   1      42.596  29.199  33.867  1.00  0.00     0.074 A 
ATOM     94  C   UNL A   1      43.080  28.228  32.907  1.00  0.00    -0.034 C 
ATOM     95  H   UNL A   1      42.454  27.666  30.948  1.00  0.00     0.065 H 
ATOM     96  H   UNL A   1      44.132  30.341  37.655  1.00  0.00     0.065 H 
ATOM     97  C   UNL A   1      43.195  29.463  35.054  1.00  0.00     0.037 A 
ATOM     98  H   UNL A   1      43.902  27.622  33.057  1.00  0.00     0.065 H 
BRANCH  79  99
ATOM     99  C   UNL A   1      40.404  33.872  38.366  1.00  0.00     0.064 A 
ATOM    100  C   UNL A   1      39.672  33.508  39.507  1.00  0.00     0.173 A 
ATOM    101  C   UNL A   1      41.170  35.046  38.427  1.00  0.00     0.173 A 
ATOM    102  F   UNL A   1      38.915  32.400  39.498  1.00  0.00    -0.203 F 
ATOM    103  C   UNL A   1      39.681  34.303  40.649  1.00  0.00     0.198 A 
ATOM    104  C   UNL A   1      41.203  35.822  39.583  1.00  0.00     0.198 A 
ATOM    105  F   UNL A   1      41.896  35.437  37.368  1.00  0.00    -0.203 F 
ATOM    106  F   UNL A   1      38.933  33.962  41.707  1.00  0.00    -0.200 F 
ATOM    107  C   UNL A   1      40.452  35.456  40.690  1.00  0.00     0.200 A 
ATOM    108  F   UNL A   1      41.960  36.927  39.626  1.00  0.00    -0.200 F 
ATOM    109  F   UNL A   1      40.465  36.216  41.792  1.00  0.00    -0.200 F 
ENDBRANCH  79  99
BRANCH  82 110
ATOM    110  C   UNL A   1      40.179  28.619  29.871  1.00  0.00     0.064 A 
ATOM    111  C   UNL A   1      40.796  29.127  28.719  1.00  0.00     0.173 A 
ATOM    112  C   UNL A   1      39.550  27.369  29.777  1.00  0.00     0.173 A 
ATOM    113  F   UNL A   1      41.394  30.328  28.754  1.00  0.00    -0.203 F 
ATOM    114  C   UNL A   1      40.765  28.425  27.516  1.00  0.00     0.198 A 
ATOM    115  C   UNL A   1      39.545  26.655  28.580  1.00  0.00     0.198 A 
ATOM    116  F   UNL A   1      38.951  26.835  30.851  1.00  0.00    -0.203 F 
ATOM    117  F   UNL A   1      41.321  28.957  26.419  1.00  0.00    -0.200 F 
ATOM    118  C   UNL A   1      40.145  27.187  27.449  1.00  0.00     0.200 A 
ATOM    119  F   UNL A   1      38.959  25.451  28.524  1.00  0.00    -0.200 F 
ATOM    120  F   UNL A   1      40.118  26.510  26.293  1.00  0.00    -0.200 F 
ENDBRANCH  82 110
BRANCH  97 121
ATOM    121  C   UNL A   1      44.418  28.664  35.401  1.00  0.00     0.064 A 
ATOM    122  C   UNL A   1      45.702  29.078  35.016  1.00  0.00     0.173 A 
ATOM    123  C   UNL A   1      44.306  27.491  36.162  1.00  0.00     0.173 A 
ATOM    124  F   UNL A   1      45.861  30.183  34.274  1.00  0.00    -0.203 F 
ATOM    125  C   UNL A   1      46.827  28.331  35.357  1.00  0.00     0.198 A 
ATOM    126  C   UNL A   1      45.436  26.764  36.530  1.00  0.00     0.198 A 
ATOM    127  F   UNL A   1      43.102  27.055  36.562  1.00  0.00    -0.203 F 
ATOM    128  F   UNL A   1      48.038  28.718  34.937  1.00  0.00    -0.200 F 
ATOM    129  C   UNL A   1      46.694  27.180  36.121  1.00  0.00     0.200 A 
ATOM    130  F   UNL A   1      45.306  25.660  37.279  1.00  0.00    -0.200 F 
ATOM    131  F   UNL A   1      47.778  26.467  36.456  1.00  0.00    -0.200 F 
ENDBRANCH  97 121
ENDBRANCH  62  65
ENDBRANCH  52  55
ENDBRANCH  48  51
ENDBRANCH  45  48
ENDBRANCH  42  45
ENDBRANCH   1  42
TORSDOF 17
ENDMDL
MODEL 7
REMARK VINA RESULT:     -12.3      5.234     11.417
REMARK SMILES Nc1c(CC(=O)NCCCCCCNC(=O)c2ccc(-c3c4nc(c(-c5c(F)c(F)c(F)c(F)c5F)c5ccc([nH]5)c(-c5c(F)c(F)c(F)c(F)c5F)c5nc(c(-c6c(F)c(F)c(F)c(F)c6F)c6ccc3[nH]6)C=C5)C=C4)cc2)cccc1C(=O)c1ccc(Br)cc1
REMARK SMILES IDX 10 1 9 4 8 7 7 10 5 11 6 12 4 14 3 17 2 18 83 19 80 20 82 21
REMARK SMILES IDX 81 22 1 26 84 29 85 30 86 31 87 32 92 33 88 34 91 36 89 38
REMARK SMILES IDX 90 41 11 42 12 45 13 48 14 51 15 52 16 54 17 55 18 56 79 57
REMARK SMILES IDX 19 58 78 60 20 62 21 65 22 66 72 67 23 68 77 69 71 70 73 71
REMARK SMILES IDX 24 72 76 73 70 75 69 77 25 79 57 82 37 83 56 84 38 85 41 86
REMARK SMILES IDX 55 87 74 88 39 89 40 91 54 93 75 94 42 97 26 99 27 100
REMARK SMILES IDX 35 101 28 102 29 103 33 104 36 105 30 106 31 107 34 108
REMARK SMILES IDX 32 109 58 110 59 111 67 112 60 113 61 114 65 115 68 116
REMARK SMILES IDX 62 117 63 118 66 119 64 120 43 121 44 122 52 123 45 124
REMARK SMILES IDX 46 125 50 126 53 127 47 128 48 129 51 130 49 131
REMARK H PARENT 10 2 10 3 9 5 9 6 8 8 8 9 7 13 4 15 4 16 80 23 82 24 81 25
REMARK H PARENT 1 27 1 28 87 35 92 37 88 39 91 40 11 43 11 44 12 46 12 47
REMARK H PARENT 13 49 13 50 14 53 18 59 79 61 19 63 78 64 77 74 71 76 73 78
REMARK H PARENT 76 80 70 81 38 90 41 92 74 95 39 96 75 98
REMARK Flexibility Score: inf
ROOT
ATOM      1  C   UNL A   1      37.233  32.856  30.061  1.00  0.00    -0.052 C 
ATOM      2  H   UNL A   1      36.326  32.631  30.583  1.00  0.00     0.027 H 
ATOM      3  H   UNL A   1      37.804  31.986  29.814  1.00  0.00     0.027 H 
ENDROOT
BRANCH   1   4
ATOM      4  C   UNL A   1      38.117  33.706  30.983  1.00  0.00    -0.036 C 
ATOM      5  H   UNL A   1      38.990  33.140  31.233  1.00  0.00     0.028 H 
ATOM      6  H   UNL A   1      38.358  34.604  30.453  1.00  0.00     0.028 H 
BRANCH   4   7
ATOM      7  C   UNL A   1      37.416  34.116  32.278  1.00  0.00     0.017 C 
ATOM      8  H   UNL A   1      36.810  34.977  32.090  1.00  0.00     0.049 H 
ATOM      9  H   UNL A   1      36.812  33.298  32.611  1.00  0.00     0.049 H 
BRANCH   7  10
ATOM     10  N   UNL A   1      38.377  34.430  33.315  1.00  0.00    -0.356 N 
ATOM     11  C   UNL A   1      38.556  33.833  34.529  1.00  0.00     0.224 C 
ATOM     12  O   UNL A   1      39.355  34.346  35.315  1.00  0.00    -0.275 OA
ATOM     13  H   UNL A   1      38.984  35.177  33.116  1.00  0.00     0.163 HD
BRANCH  11  14
ATOM     14  C   UNL A   1      37.853  32.527  34.863  1.00  0.00     0.054 C 
ATOM     15  H   UNL A   1      37.669  32.510  35.917  1.00  0.00     0.042 H 
ATOM     16  H   UNL A   1      36.959  32.511  34.275  1.00  0.00     0.042 H 
BRANCH  14  17
ATOM     17  C   UNL A   1      38.620  31.267  34.499  1.00  0.00    -0.015 A 
ATOM     18  C   UNL A   1      39.691  30.761  35.290  1.00  0.00     0.046 A 
ATOM     19  C   UNL A   1      40.404  29.624  34.828  1.00  0.00     0.046 A 
ATOM     20  C   UNL A   1      38.260  30.619  33.304  1.00  0.00    -0.056 A 
ATOM     21  C   UNL A   1      40.019  29.013  33.617  1.00  0.00    -0.049 A 
ATOM     22  C   UNL A   1      38.955  29.500  32.865  1.00  0.00    -0.061 A 
ATOM     23  H   UNL A   1      37.470  30.978  32.746  1.00  0.00     0.063 H 
ATOM     24  H   UNL A   1      40.538  28.187  33.282  1.00  0.00     0.063 H 
ATOM     25  H   UNL A   1      38.685  29.033  31.986  1.00  0.00     0.062 H 
BRANCH  18  26
ATOM     26  N   UNL A   1      40.021  31.435  36.460  1.00  0.00    -0.398 N 
ATOM     27  H   UNL A   1      40.411  30.943  37.219  1.00  0.00     0.156 HD
ATOM     28  H   UNL A   1      39.865  32.405  36.531  1.00  0.00     0.156 HD
ENDBRANCH  18  26
BRANCH  19  29
ATOM     29  C   UNL A   1      41.605  29.002  35.485  1.00  0.00     0.195 C 
ATOM     30  O   UNL A   1      41.919  29.325  36.632  1.00  0.00    -0.289 OA
BRANCH  29  31
ATOM     31  C   UNL A   1      42.415  27.936  34.868  1.00  0.00     0.023 A 
ATOM     32  C   UNL A   1      42.281  26.638  35.377  1.00  0.00    -0.050 A 
ATOM     33  C   UNL A   1      43.258  28.186  33.781  1.00  0.00    -0.050 A 
ATOM     34  C   UNL A   1      42.931  25.575  34.751  1.00  0.00    -0.047 A 
ATOM     35  H   UNL A   1      41.702  26.468  36.215  1.00  0.00     0.063 H 
ATOM     36  C   UNL A   1      43.898  27.118  33.147  1.00  0.00    -0.047 A 
ATOM     37  H   UNL A   1      43.408  29.152  33.450  1.00  0.00     0.063 H 
ATOM     38  C   UNL A   1      43.720  25.817  33.627  1.00  0.00     0.018 A 
ATOM     39  H   UNL A   1      42.829  24.615  35.116  1.00  0.00     0.063 H 
ATOM     40  H   UNL A   1      44.500  27.288  32.327  1.00  0.00     0.063 H 
ATOM     41  Br  UNL A   1      44.538  24.367  32.731  1.00  0.00    -0.051 Br
ENDBRANCH  29  31
ENDBRANCH  19  29
ENDBRANCH  14  17
ENDBRANCH  11  14
ENDBRANCH   7  10
ENDBRANCH   4   7
ENDBRANCH   1   4
BRANCH   1  42
ATOM     42  C   UNL A   1      36.864  33.523  28.730  1.00  0.00    -0.052 C 
ATOM     43  H   UNL A   1      37.541  33.167  27.982  1.00  0.00     0.027 H 
ATOM     44  H   UNL A   1      36.931  34.578  28.894  1.00  0.00     0.027 H 
BRANCH  42  45
ATOM     45  C   UNL A   1      35.436  33.254  28.248  1.00  0.00    -0.036 C 
ATOM     46  H   UNL A   1      35.489  32.819  27.272  1.00  0.00     0.028 H 
ATOM     47  H   UNL A   1      34.928  34.195  28.256  1.00  0.00     0.028 H 
BRANCH  45  48
ATOM     48  C   UNL A   1      34.637  32.316  29.145  1.00  0.00     0.018 C 
ATOM     49  H   UNL A   1      33.840  32.866  29.600  1.00  0.00     0.049 H 
ATOM     50  H   UNL A   1      35.301  31.918  29.884  1.00  0.00     0.049 H 
BRANCH  48  51
ATOM     51  N   UNL A   1      34.073  31.202  28.398  1.00  0.00    -0.352 N 
ATOM     52  C   UNL A   1      34.700  30.116  27.848  1.00  0.00     0.251 C 
ATOM     53  H   UNL A   1      33.097  31.232  28.270  1.00  0.00     0.163 HD
ATOM     54  O   UNL A   1      34.095  29.382  27.064  1.00  0.00    -0.269 OA
BRANCH  52  55
ATOM     55  C   UNL A   1      36.110  29.829  28.178  1.00  0.00     0.039 A 
ATOM     56  C   UNL A   1      36.419  29.318  29.441  1.00  0.00    -0.049 A 
ATOM     57  C   UNL A   1      37.126  30.079  27.251  1.00  0.00    -0.049 A 
ATOM     58  C   UNL A   1      37.743  29.007  29.756  1.00  0.00    -0.053 A 
ATOM     59  H   UNL A   1      35.673  29.171  30.137  1.00  0.00     0.063 H 
ATOM     60  C   UNL A   1      38.435  29.701  27.540  1.00  0.00    -0.053 A 
ATOM     61  H   UNL A   1      36.907  30.543  26.356  1.00  0.00     0.063 H 
ATOM     62  C   UNL A   1      38.756  29.167  28.797  1.00  0.00    -0.014 A 
ATOM     63  H   UNL A   1      37.978  28.656  30.697  1.00  0.00     0.063 H 
ATOM     64  H   UNL A   1      39.171  29.815  26.825  1.00  0.00     0.063 H 
BRANCH  62  65
ATOM     65  C   UNL A   1      40.161  28.789  29.091  1.00  0.00     0.031 A 
ATOM     66  C   UNL A   1      41.066  29.748  29.812  1.00  0.00     0.074 A 
ATOM     67  C   UNL A   1      40.638  27.607  28.655  1.00  0.00     0.049 A 
ATOM     68  N   UNL A   1      42.338  29.632  30.098  1.00  0.00    -0.248 NA
ATOM     69  C   UNL A   1      40.467  31.021  30.247  1.00  0.00    -0.034 C 
ATOM     70  C   UNL A   1      39.870  26.610  27.909  1.00  0.00    -0.036 A 
ATOM     71  N   UNL A   1      41.887  27.050  28.766  1.00  0.00    -0.354 N 
ATOM     72  C   UNL A   1      42.693  30.817  30.730  1.00  0.00     0.074 A 
ATOM     73  C   UNL A   1      41.518  31.660  30.737  1.00  0.00    -0.034 C 
ATOM     74  H   UNL A   1      39.485  31.332  30.184  1.00  0.00     0.065 H 
ATOM     75  C   UNL A   1      40.657  25.554  27.647  1.00  0.00    -0.036 A 
ATOM     76  H   UNL A   1      38.881  26.703  27.628  1.00  0.00     0.065 H 
ATOM     77  C   UNL A   1      41.994  25.816  28.172  1.00  0.00     0.049 A 
ATOM     78  H   UNL A   1      42.636  27.493  29.228  1.00  0.00     0.167 HD
ATOM     79  C   UNL A   1      43.884  31.160  31.275  1.00  0.00     0.037 A 
ATOM     80  H   UNL A   1      41.500  32.634  31.081  1.00  0.00     0.065 H 
ATOM     81  H   UNL A   1      40.364  24.696  27.155  1.00  0.00     0.065 H 
ATOM     82  C   UNL A   1      43.054  24.995  28.055  1.00  0.00     0.037 A 
ATOM     83  C   UNL A   1      45.045  30.308  31.284  1.00  0.00     0.049 A 
ATOM     84  C   UNL A   1      44.371  25.406  28.657  1.00  0.00     0.074 A 
ATOM     85  C   UNL A   1      46.282  30.539  31.861  1.00  0.00    -0.036 A 
ATOM     86  N   UNL A   1      45.112  29.059  30.682  1.00  0.00    -0.354 N 
ATOM     87  N   UNL A   1      44.677  26.499  29.312  1.00  0.00    -0.248 NA
ATOM     88  C   UNL A   1      45.489  24.464  28.508  1.00  0.00    -0.034 C 
ATOM     89  C   UNL A   1      47.112  29.453  31.566  1.00  0.00    -0.036 A 
ATOM     90  H   UNL A   1      46.546  31.370  32.413  1.00  0.00     0.065 H 
ATOM     91  C   UNL A   1      46.377  28.519  30.853  1.00  0.00     0.049 A 
ATOM     92  H   UNL A   1      44.370  28.622  30.204  1.00  0.00     0.167 HD
ATOM     93  C   UNL A   1      46.008  26.365  29.679  1.00  0.00     0.074 A 
ATOM     94  C   UNL A   1      46.449  25.076  29.186  1.00  0.00    -0.034 C 
ATOM     95  H   UNL A   1      45.519  23.562  28.007  1.00  0.00     0.065 H 
ATOM     96  H   UNL A   1      48.105  29.362  31.833  1.00  0.00     0.065 H 
ATOM     97  C   UNL A   1      46.797  27.231  30.362  1.00  0.00     0.037 A 
ATOM     98  H   UNL A   1      47.390  24.684  29.343  1.00  0.00     0.065 H 
BRANCH  79  99
ATOM     99  C   UNL A   1      43.992  32.516  31.911  1.00  0.00     0.064 A 
ATOM    100  C   UNL A   1      44.446  33.633  31.192  1.00  0.00     0.173 A 
ATOM    101  C   UNL A   1      43.604  32.711  33.246  1.00  0.00     0.173 A 
ATOM    102  F   UNL A   1      44.839  33.500  29.916  1.00  0.00    -0.203 F 
ATOM    103  C   UNL A   1      44.538  34.885  31.794  1.00  0.00     0.198 A 
ATOM    104  C   UNL A   1      43.666  33.971  33.835  1.00  0.00     0.198 A 
ATOM    105  F   UNL A   1      43.155  31.680  33.978  1.00  0.00    -0.203 F 
ATOM    106  F   UNL A   1      45.024  35.924  31.103  1.00  0.00    -0.200 F 
ATOM    107  C   UNL A   1      44.142  35.055  33.112  1.00  0.00     0.200 A 
ATOM    108  F   UNL A   1      43.269  34.136  35.104  1.00  0.00    -0.200 F 
ATOM    109  F   UNL A   1      44.224  36.261  33.688  1.00  0.00    -0.200 F 
ENDBRANCH  79  99
BRANCH  82 110
ATOM    110  C   UNL A   1      42.910  23.690  27.357  1.00  0.00     0.064 A 
ATOM    111  C   UNL A   1      43.296  23.545  26.017  1.00  0.00     0.173 A 
ATOM    112  C   UNL A   1      42.381  22.567  28.009  1.00  0.00     0.173 A 
ATOM    113  F   UNL A   1      43.790  24.596  25.345  1.00  0.00    -0.203 F 
ATOM    114  C   UNL A   1      43.138  22.333  25.350  1.00  0.00     0.198 A 
ATOM    115  C   UNL A   1      42.250  21.346  27.348  1.00  0.00     0.198 A 
ATOM    116  F   UNL A   1      42.003  22.650  29.293  1.00  0.00    -0.203 F 
ATOM    117  F   UNL A   1      43.471  22.236  24.055  1.00  0.00    -0.200 F 
ATOM    118  C   UNL A   1      42.620  21.233  26.016  1.00  0.00     0.200 A 
ATOM    119  F   UNL A   1      41.765  20.282  28.002  1.00  0.00    -0.200 F 
ATOM    120  F   UNL A   1      42.471  20.066  25.375  1.00  0.00    -0.200 F 
ENDBRANCH  82 110
BRANCH  97 121
ATOM    121  C   UNL A   1      48.205  26.798  30.651  1.00  0.00     0.064 A 
ATOM    122  C   UNL A   1      48.532  26.081  31.811  1.00  0.00     0.173 A 
ATOM    123  C   UNL A   1      49.232  27.071  29.735  1.00  0.00     0.173 A 
ATOM    124  F   UNL A   1      47.589  25.809  32.726  1.00  0.00    -0.203 F 
ATOM    125  C   UNL A   1      49.842  25.676  32.057  1.00  0.00     0.198 A 
ATOM    126  C   UNL A   1      50.535  26.636  29.968  1.00  0.00     0.198 A 
ATOM    127  F   UNL A   1      48.972  27.748  28.607  1.00  0.00    -0.203 F 
ATOM    128  F   UNL A   1      50.141  25.035  33.195  1.00  0.00    -0.200 F 
ATOM    129  C   UNL A   1      50.840  25.946  31.132  1.00  0.00     0.200 A 
ATOM    130  F   UNL A   1      51.494  26.887  29.066  1.00  0.00    -0.200 F 
ATOM    131  F   UNL A   1      52.098  25.548  31.365  1.00  0.00    -0.200 F 
ENDBRANCH  97 121
ENDBRANCH  62  65
ENDBRANCH  52  55
ENDBRANCH  48  51
ENDBRANCH  45  48
ENDBRANCH  42  45
ENDBRANCH   1  42
TORSDOF 17
ENDMDL
MODEL 8
REMARK VINA RESULT:     -12.3      2.023      7.744
REMARK SMILES Nc1c(CC(=O)NCCCCCCNC(=O)c2ccc(-c3c4nc(c(-c5c(F)c(F)c(F)c(F)c5F)c5ccc([nH]5)c(-c5c(F)c(F)c(F)c(F)c5F)c5nc(c(-c6c(F)c(F)c(F)c(F)c6F)c6ccc3[nH]6)C=C5)C=C4)cc2)cccc1C(=O)c1ccc(Br)cc1
REMARK SMILES IDX 10 1 9 4 8 7 7 10 5 11 6 12 4 14 3 17 2 18 83 19 80 20 82 21
REMARK SMILES IDX 81 22 1 26 84 29 85 30 86 31 87 32 92 33 88 34 91 36 89 38
REMARK SMILES IDX 90 41 11 42 12 45 13 48 14 51 15 52 16 54 17 55 18 56 79 57
REMARK SMILES IDX 19 58 78 60 20 62 21 65 22 66 72 67 23 68 77 69 71 70 73 71
REMARK SMILES IDX 24 72 76 73 70 75 69 77 25 79 57 82 37 83 56 84 38 85 41 86
REMARK SMILES IDX 55 87 74 88 39 89 40 91 54 93 75 94 42 97 26 99 27 100
REMARK SMILES IDX 35 101 28 102 29 103 33 104 36 105 30 106 31 107 34 108
REMARK SMILES IDX 32 109 58 110 59 111 67 112 60 113 61 114 65 115 68 116
REMARK SMILES IDX 62 117 63 118 66 119 64 120 43 121 44 122 52 123 45 124
REMARK SMILES IDX 46 125 50 126 53 127 47 128 48 129 51 130 49 131
REMARK H PARENT 10 2 10 3 9 5 9 6 8 8 8 9 7 13 4 15 4 16 80 23 82 24 81 25
REMARK H PARENT 1 27 1 28 87 35 92 37 88 39 91 40 11 43 11 44 12 46 12 47
REMARK H PARENT 13 49 13 50 14 53 18 59 79 61 19 63 78 64 77 74 71 76 73 78
REMARK H PARENT 76 80 70 81 38 90 41 92 74 95 39 96 75 98
REMARK Flexibility Score: inf
ROOT
ATOM      1  C   UNL A   1      34.805  32.452  29.041  1.00  0.00    -0.052 C 
ATOM      2  H   UNL A   1      35.826  32.134  29.065  1.00  0.00     0.027 H 
ATOM      3  H   UNL A   1      34.231  32.091  29.869  1.00  0.00     0.027 H 
ENDROOT
BRANCH   1   4
ATOM      4  C   UNL A   1      34.154  31.875  27.778  1.00  0.00    -0.036 C 
ATOM      5  H   UNL A   1      33.091  31.941  27.883  1.00  0.00     0.028 H 
ATOM      6  H   UNL A   1      34.511  32.445  26.946  1.00  0.00     0.028 H 
BRANCH   4   7
ATOM      7  C   UNL A   1      34.527  30.414  27.522  1.00  0.00     0.017 C 
ATOM      8  H   UNL A   1      34.875  30.313  26.516  1.00  0.00     0.049 H 
ATOM      9  H   UNL A   1      35.294  30.134  28.215  1.00  0.00     0.049 H 
BRANCH   7  10
ATOM     10  N   UNL A   1      33.389  29.542  27.720  1.00  0.00    -0.356 N 
ATOM     11  C   UNL A   1      32.366  29.257  26.862  1.00  0.00     0.224 C 
ATOM     12  O   UNL A   1      31.426  28.580  27.285  1.00  0.00    -0.275 OA
ATOM     13  H   UNL A   1      33.346  29.093  28.594  1.00  0.00     0.163 HD
BRANCH  11  14
ATOM     14  C   UNL A   1      32.431  29.689  25.406  1.00  0.00     0.054 C 
ATOM     15  H   UNL A   1      31.858  30.586  25.301  1.00  0.00     0.042 H 
ATOM     16  H   UNL A   1      33.469  29.817  25.180  1.00  0.00     0.042 H 
BRANCH  14  17
ATOM     17  C   UNL A   1      31.903  28.674  24.405  1.00  0.00    -0.015 A 
ATOM     18  C   UNL A   1      32.709  27.631  23.868  1.00  0.00     0.046 A 
ATOM     19  C   UNL A   1      32.154  26.780  22.876  1.00  0.00     0.046 A 
ATOM     20  C   UNL A   1      30.570  28.824  23.982  1.00  0.00    -0.056 A 
ATOM     21  C   UNL A   1      30.818  26.974  22.470  1.00  0.00    -0.049 A 
ATOM     22  C   UNL A   1      30.031  27.981  23.021  1.00  0.00    -0.061 A 
ATOM     23  H   UNL A   1      29.985  29.569  24.391  1.00  0.00     0.063 H 
ATOM     24  H   UNL A   1      30.416  26.355  21.750  1.00  0.00     0.063 H 
ATOM     25  H   UNL A   1      29.053  28.100  22.714  1.00  0.00     0.062 H 
BRANCH  18  26
ATOM     26  N   UNL A   1      34.024  27.522  24.306  1.00  0.00    -0.398 N 
ATOM     27  H   UNL A   1      34.216  27.402  25.264  1.00  0.00     0.156 HD
ATOM     28  H   UNL A   1      34.765  27.566  23.658  1.00  0.00     0.156 HD
ENDBRANCH  18  26
BRANCH  19  29
ATOM     29  C   UNL A   1      32.876  25.683  22.143  1.00  0.00     0.195 C 
ATOM     30  O   UNL A   1      33.342  25.891  21.022  1.00  0.00    -0.289 OA
BRANCH  29  31
ATOM     31  C   UNL A   1      33.146  24.355  22.721  1.00  0.00     0.023 A 
ATOM     32  C   UNL A   1      34.450  24.088  23.160  1.00  0.00    -0.050 A 
ATOM     33  C   UNL A   1      32.138  23.398  22.876  1.00  0.00    -0.050 A 
ATOM     34  C   UNL A   1      34.729  22.893  23.824  1.00  0.00    -0.047 A 
ATOM     35  H   UNL A   1      35.203  24.773  22.991  1.00  0.00     0.063 H 
ATOM     36  C   UNL A   1      32.417  22.208  23.554  1.00  0.00    -0.047 A 
ATOM     37  H   UNL A   1      31.195  23.569  22.493  1.00  0.00     0.063 H 
ATOM     38  C   UNL A   1      33.707  21.968  24.036  1.00  0.00     0.018 A 
ATOM     39  H   UNL A   1      35.686  22.695  24.157  1.00  0.00     0.063 H 
ATOM     40  H   UNL A   1      31.674  21.508  23.698  1.00  0.00     0.063 H 
ATOM     41  Br  UNL A   1      34.067  20.386  25.005  1.00  0.00    -0.051 Br
ENDBRANCH  29  31
ENDBRANCH  19  29
ENDBRANCH  14  17
ENDBRANCH  11  14
ENDBRANCH   7  10
ENDBRANCH   4   7
ENDBRANCH   1   4
BRANCH   1  42
ATOM     42  C   UNL A   1      34.780  33.983  29.134  1.00  0.00    -0.052 C 
ATOM     43  H   UNL A   1      35.259  34.376  28.261  1.00  0.00     0.027 H 
ATOM     44  H   UNL A   1      35.283  34.237  30.043  1.00  0.00     0.027 H 
BRANCH  42  45
ATOM     45  C   UNL A   1      33.382  34.601  29.229  1.00  0.00    -0.036 C 
ATOM     46  H   UNL A   1      32.812  34.031  29.932  1.00  0.00     0.028 H 
ATOM     47  H   UNL A   1      32.970  34.577  28.242  1.00  0.00     0.028 H 
BRANCH  45  48
ATOM     48  C   UNL A   1      33.370  36.059  29.674  1.00  0.00     0.018 C 
ATOM     49  H   UNL A   1      33.031  36.667  28.862  1.00  0.00     0.049 H 
ATOM     50  H   UNL A   1      34.365  36.325  29.965  1.00  0.00     0.049 H 
BRANCH  48  51
ATOM     51  N   UNL A   1      32.494  36.268  30.817  1.00  0.00    -0.352 N 
ATOM     52  C   UNL A   1      32.573  35.749  32.082  1.00  0.00     0.251 C 
ATOM     53  H   UNL A   1      31.733  36.872  30.658  1.00  0.00     0.163 HD
ATOM     54  O   UNL A   1      31.624  35.864  32.859  1.00  0.00    -0.269 OA
BRANCH  52  55
ATOM     55  C   UNL A   1      33.790  35.035  32.515  1.00  0.00     0.039 A 
ATOM     56  C   UNL A   1      33.679  33.716  32.961  1.00  0.00    -0.049 A 
ATOM     57  C   UNL A   1      35.035  35.671  32.498  1.00  0.00    -0.049 A 
ATOM     58  C   UNL A   1      34.826  33.015  33.339  1.00  0.00    -0.053 A 
ATOM     59  H   UNL A   1      32.755  33.262  33.011  1.00  0.00     0.063 H 
ATOM     60  C   UNL A   1      36.185  34.949  32.806  1.00  0.00    -0.053 A 
ATOM     61  H   UNL A   1      35.102  36.672  32.258  1.00  0.00     0.063 H 
ATOM     62  C   UNL A   1      36.091  33.616  33.235  1.00  0.00    -0.014 A 
ATOM     63  H   UNL A   1      34.744  32.051  33.696  1.00  0.00     0.063 H 
ATOM     64  H   UNL A   1      37.111  35.396  32.718  1.00  0.00     0.063 H 
BRANCH  62  65
ATOM     65  C   UNL A   1      37.327  32.870  33.578  1.00  0.00     0.031 A 
ATOM     66  C   UNL A   1      38.057  33.167  34.857  1.00  0.00     0.074 A 
ATOM     67  C   UNL A   1      37.825  31.971  32.707  1.00  0.00     0.049 A 
ATOM     68  N   UNL A   1      39.188  32.676  35.300  1.00  0.00    -0.248 NA
ATOM     69  C   UNL A   1      37.450  34.169  35.747  1.00  0.00    -0.034 C 
ATOM     70  C   UNL A   1      37.230  31.627  31.415  1.00  0.00    -0.036 A 
ATOM     71  N   UNL A   1      38.952  31.191  32.773  1.00  0.00    -0.354 N 
ATOM     72  C   UNL A   1      39.432  33.318  36.507  1.00  0.00     0.074 A 
ATOM     73  C   UNL A   1      38.363  34.272  36.702  1.00  0.00    -0.034 C 
ATOM     74  H   UNL A   1      36.549  34.662  35.651  1.00  0.00     0.065 H 
ATOM     75  C   UNL A   1      37.985  30.690  30.819  1.00  0.00    -0.036 A 
ATOM     76  H   UNL A   1      36.369  32.039  31.025  1.00  0.00     0.065 H 
ATOM     77  C   UNL A   1      39.136  30.396  31.668  1.00  0.00     0.049 A 
ATOM     78  H   UNL A   1      39.570  31.199  33.540  1.00  0.00     0.167 HD
ATOM     79  C   UNL A   1      40.443  33.112  37.383  1.00  0.00     0.037 A 
ATOM     80  H   UNL A   1      38.316  34.945  37.484  1.00  0.00     0.065 H 
ATOM     81  H   UNL A   1      37.783  30.249  29.909  1.00  0.00     0.065 H 
ATOM     82  C   UNL A   1      40.128  29.536  31.369  1.00  0.00     0.037 A 
ATOM     83  C   UNL A   1      41.494  32.146  37.195  1.00  0.00     0.049 A 
ATOM     84  C   UNL A   1      41.248  29.337  32.354  1.00  0.00     0.074 A 
ATOM     85  C   UNL A   1      42.532  31.821  38.050  1.00  0.00    -0.036 A 
ATOM     86  N   UNL A   1      41.641  31.351  36.067  1.00  0.00    -0.354 N 
ATOM     87  N   UNL A   1      41.432  29.899  33.524  1.00  0.00    -0.248 NA
ATOM     88  C   UNL A   1      42.296  28.377  31.979  1.00  0.00    -0.034 C 
ATOM     89  C   UNL A   1      43.336  30.865  37.419  1.00  0.00    -0.036 A 
ATOM     90  H   UNL A   1      42.688  32.216  38.991  1.00  0.00     0.065 H 
ATOM     91  C   UNL A   1      42.767  30.553  36.195  1.00  0.00     0.049 A 
ATOM     92  H   UNL A   1      41.035  31.353  35.291  1.00  0.00     0.167 HD
ATOM     93  C   UNL A   1      42.595  29.342  34.036  1.00  0.00     0.074 A 
ATOM     94  C   UNL A   1      43.067  28.386  33.056  1.00  0.00    -0.034 C 
ATOM     95  H   UNL A   1      42.403  27.838  31.105  1.00  0.00     0.065 H 
ATOM     96  H   UNL A   1      44.205  30.461  37.801  1.00  0.00     0.065 H 
ATOM     97  C   UNL A   1      43.219  29.600  35.213  1.00  0.00     0.037 A 
ATOM     98  H   UNL A   1      43.898  27.786  33.181  1.00  0.00     0.065 H 
BRANCH  79  99
ATOM     99  C   UNL A   1      40.461  33.948  38.631  1.00  0.00     0.064 A 
ATOM    100  C   UNL A   1      41.164  35.162  38.694  1.00  0.00     0.173 A 
ATOM    101  C   UNL A   1      39.739  33.551  39.766  1.00  0.00     0.173 A 
ATOM    102  F   UNL A   1      41.879  35.584  37.640  1.00  0.00    -0.203 F 
ATOM    103  C   UNL A   1      41.170  35.929  39.856  1.00  0.00     0.198 A 
ATOM    104  C   UNL A   1      39.720  34.336  40.917  1.00  0.00     0.198 A 
ATOM    105  F   UNL A   1      39.043  32.404  39.759  1.00  0.00    -0.203 F 
ATOM    106  F   UNL A   1      41.891  37.057  39.909  1.00  0.00    -0.200 F 
ATOM    107  C   UNL A   1      40.442  35.519  40.964  1.00  0.00     0.200 A 
ATOM    108  F   UNL A   1      39.005  33.947  41.981  1.00  0.00    -0.200 F 
ATOM    109  F   UNL A   1      40.443  36.261  42.079  1.00  0.00    -0.200 F 
ENDBRANCH  79  99
BRANCH  82 110
ATOM    110  C   UNL A   1      40.096  28.780  30.089  1.00  0.00     0.064 A 
ATOM    111  C   UNL A   1      39.479  27.523  30.012  1.00  0.00     0.173 A 
ATOM    112  C   UNL A   1      40.681  29.292  28.922  1.00  0.00     0.173 A 
ATOM    113  F   UNL A   1      38.922  26.983  31.106  1.00  0.00    -0.203 F 
ATOM    114  C   UNL A   1      39.470  26.797  28.823  1.00  0.00     0.198 A 
ATOM    115  C   UNL A   1      40.645  28.577  27.726  1.00  0.00     0.198 A 
ATOM    116  F   UNL A   1      41.277  30.493  28.940  1.00  0.00    -0.203 F 
ATOM    117  F   UNL A   1      38.917  25.577  28.791  1.00  0.00    -0.200 F 
ATOM    118  C   UNL A   1      40.048  27.327  27.680  1.00  0.00     0.200 A 
ATOM    119  F   UNL A   1      41.191  29.101  26.619  1.00  0.00    -0.200 F 
ATOM    120  F   UNL A   1      40.035  26.630  26.536  1.00  0.00    -0.200 F 
ENDBRANCH  82 110
BRANCH  97 121
ATOM    121  C   UNL A   1      44.456  28.809  35.524  1.00  0.00     0.064 A 
ATOM    122  C   UNL A   1      44.397  27.583  36.202  1.00  0.00     0.173 A 
ATOM    123  C   UNL A   1      45.714  29.266  35.100  1.00  0.00     0.173 A 
ATOM    124  F   UNL A   1      43.221  27.111  36.642  1.00  0.00    -0.203 F 
ATOM    125  C   UNL A   1      45.554  26.857  36.470  1.00  0.00     0.198 A 
ATOM    126  C   UNL A   1      46.866  28.521  35.341  1.00  0.00     0.198 A 
ATOM    127  F   UNL A   1      45.825  30.429  34.441  1.00  0.00    -0.203 F 
ATOM    128  F   UNL A   1      45.479  25.713  37.164  1.00  0.00    -0.200 F 
ATOM    129  C   UNL A   1      46.786  27.321  36.033  1.00  0.00     0.200 A 
ATOM    130  F   UNL A   1      48.052  28.966  34.905  1.00  0.00    -0.200 F 
ATOM    131  F   UNL A   1      47.898  26.617  36.284  1.00  0.00    -0.200 F 
ENDBRANCH  97 121
ENDBRANCH  62  65
ENDBRANCH  52  55
ENDBRANCH  48  51
ENDBRANCH  45  48
ENDBRANCH  42  45
ENDBRANCH   1  42
TORSDOF 17
ENDMDL
MODEL 9
REMARK VINA RESULT:     -12.3      3.669      8.985
REMARK SMILES Nc1c(CC(=O)NCCCCCCNC(=O)c2ccc(-c3c4nc(c(-c5c(F)c(F)c(F)c(F)c5F)c5ccc([nH]5)c(-c5c(F)c(F)c(F)c(F)c5F)c5nc(c(-c6c(F)c(F)c(F)c(F)c6F)c6ccc3[nH]6)C=C5)C=C4)cc2)cccc1C(=O)c1ccc(Br)cc1
REMARK SMILES IDX 10 1 9 4 8 7 7 10 5 11 6 12 4 14 3 17 2 18 83 19 80 20 82 21
REMARK SMILES IDX 81 22 1 26 84 29 85 30 86 31 87 32 92 33 88 34 91 36 89 38
REMARK SMILES IDX 90 41 11 42 12 45 13 48 14 51 15 52 16 54 17 55 18 56 79 57
REMARK SMILES IDX 19 58 78 60 20 62 21 65 22 66 72 67 23 68 77 69 71 70 73 71
REMARK SMILES IDX 24 72 76 73 70 75 69 77 25 79 57 82 37 83 56 84 38 85 41 86
REMARK SMILES IDX 55 87 74 88 39 89 40 91 54 93 75 94 42 97 26 99 27 100
REMARK SMILES IDX 35 101 28 102 29 103 33 104 36 105 30 106 31 107 34 108
REMARK SMILES IDX 32 109 58 110 59 111 67 112 60 113 61 114 65 115 68 116
REMARK SMILES IDX 62 117 63 118 66 119 64 120 43 121 44 122 52 123 45 124
REMARK SMILES IDX 46 125 50 126 53 127 47 128 48 129 51 130 49 131
REMARK H PARENT 10 2 10 3 9 5 9 6 8 8 8 9 7 13 4 15 4 16 80 23 82 24 81 25
REMARK H PARENT 1 27 1 28 87 35 92 37 88 39 91 40 11 43 11 44 12 46 12 47
REMARK H PARENT 13 49 13 50 14 53 18 59 79 61 19 63 78 64 77 74 71 76 73 78
REMARK H PARENT 76 80 70 81 38 90 41 92 74 95 39 96 75 98
REMARK Flexibility Score: inf
ROOT
ATOM      1  C   UNL A   1      34.475  25.310  25.121  1.00  0.00    -0.052 C 
ATOM      2  H   UNL A   1      34.088  25.142  24.138  1.00  0.00     0.027 H 
ATOM      3  H   UNL A   1      35.387  25.870  25.126  1.00  0.00     0.027 H 
ENDROOT
BRANCH   1   4
ATOM      4  C   UNL A   1      34.802  23.948  25.746  1.00  0.00    -0.036 C 
ATOM      5  H   UNL A   1      35.777  24.001  26.185  1.00  0.00     0.028 H 
ATOM      6  H   UNL A   1      34.045  23.741  26.473  1.00  0.00     0.028 H 
BRANCH   4   7
ATOM      7  C   UNL A   1      34.786  22.802  24.734  1.00  0.00     0.017 C 
ATOM      8  H   UNL A   1      34.528  23.190  23.771  1.00  0.00     0.049 H 
ATOM      9  H   UNL A   1      35.758  22.356  24.711  1.00  0.00     0.049 H 
BRANCH   7  10
ATOM     10  N   UNL A   1      33.823  21.788  25.109  1.00  0.00    -0.356 N 
ATOM     11  C   UNL A   1      32.684  21.405  24.463  1.00  0.00     0.224 C 
ATOM     12  O   UNL A   1      31.938  20.602  25.029  1.00  0.00    -0.275 OA
ATOM     13  H   UNL A   1      34.017  21.309  25.946  1.00  0.00     0.163 HD
BRANCH  11  14
ATOM     14  C   UNL A   1      32.391  21.888  23.052  1.00  0.00     0.054 C 
ATOM     15  H   UNL A   1      33.226  21.633  22.434  1.00  0.00     0.042 H 
ATOM     16  H   UNL A   1      31.480  21.409  22.757  1.00  0.00     0.042 H 
BRANCH  14  17
ATOM     17  C   UNL A   1      32.145  23.382  22.917  1.00  0.00    -0.015 A 
ATOM     18  C   UNL A   1      31.220  24.088  23.737  1.00  0.00     0.046 A 
ATOM     19  C   UNL A   1      30.996  25.467  23.484  1.00  0.00     0.046 A 
ATOM     20  C   UNL A   1      32.847  24.059  21.903  1.00  0.00    -0.056 A 
ATOM     21  C   UNL A   1      31.710  26.103  22.449  1.00  0.00    -0.049 A 
ATOM     22  C   UNL A   1      32.631  25.409  21.669  1.00  0.00    -0.061 A 
ATOM     23  H   UNL A   1      33.531  23.546  21.326  1.00  0.00     0.063 H 
ATOM     24  H   UNL A   1      31.547  27.104  22.265  1.00  0.00     0.063 H 
ATOM     25  H   UNL A   1      33.149  25.896  20.922  1.00  0.00     0.062 H 
BRANCH  18  26
ATOM     26  N   UNL A   1      30.540  23.381  24.722  1.00  0.00    -0.398 N 
ATOM     27  H   UNL A   1      29.576  23.531  24.860  1.00  0.00     0.156 HD
ATOM     28  H   UNL A   1      31.022  22.731  25.284  1.00  0.00     0.156 HD
ENDBRANCH  18  26
BRANCH  19  29
ATOM     29  C   UNL A   1      30.005  26.349  24.191  1.00  0.00     0.195 C 
ATOM     30  O   UNL A   1      29.431  25.946  25.203  1.00  0.00    -0.289 OA
BRANCH  29  31
ATOM     31  C   UNL A   1      29.720  27.740  23.795  1.00  0.00     0.023 A 
ATOM     32  C   UNL A   1      28.535  27.987  23.089  1.00  0.00    -0.050 A 
ATOM     33  C   UNL A   1      30.569  28.795  24.142  1.00  0.00    -0.050 A 
ATOM     34  C   UNL A   1      28.160  29.298  22.798  1.00  0.00    -0.047 A 
ATOM     35  H   UNL A   1      27.941  27.200  22.785  1.00  0.00     0.063 H 
ATOM     36  C   UNL A   1      30.185  30.109  23.860  1.00  0.00    -0.047 A 
ATOM     37  H   UNL A   1      31.474  28.605  24.602  1.00  0.00     0.063 H 
ATOM     38  C   UNL A   1      28.976  30.354  23.202  1.00  0.00     0.018 A 
ATOM     39  H   UNL A   1      27.283  29.487  22.285  1.00  0.00     0.063 H 
ATOM     40  H   UNL A   1      30.791  30.896  24.138  1.00  0.00     0.063 H 
ATOM     41  Br  UNL A   1      28.430  32.134  22.877  1.00  0.00    -0.051 Br
ENDBRANCH  29  31
ENDBRANCH  19  29
ENDBRANCH  14  17
ENDBRANCH  11  14
ENDBRANCH   7  10
ENDBRANCH   4   7
ENDBRANCH   1   4
BRANCH   1  42
ATOM     42  C   UNL A   1      33.451  26.145  25.901  1.00  0.00    -0.052 C 
ATOM     43  H   UNL A   1      33.392  25.754  26.895  1.00  0.00     0.027 H 
ATOM     44  H   UNL A   1      32.531  26.071  25.361  1.00  0.00     0.027 H 
BRANCH  42  45
ATOM     45  C   UNL A   1      33.775  27.639  25.995  1.00  0.00    -0.036 C 
ATOM     46  H   UNL A   1      33.243  28.146  25.219  1.00  0.00     0.028 H 
ATOM     47  H   UNL A   1      34.837  27.728  25.899  1.00  0.00     0.028 H 
BRANCH  45  48
ATOM     48  C   UNL A   1      33.401  28.278  27.328  1.00  0.00     0.018 C 
ATOM     49  H   UNL A   1      34.097  27.958  28.074  1.00  0.00     0.049 H 
ATOM     50  H   UNL A   1      32.405  27.974  27.574  1.00  0.00     0.049 H 
BRANCH  48  51
ATOM     51  N   UNL A   1      33.423  29.732  27.255  1.00  0.00    -0.352 N 
ATOM     52  C   UNL A   1      34.371  30.612  27.706  1.00  0.00     0.251 C 
ATOM     53  H   UNL A   1      32.643  30.143  26.818  1.00  0.00     0.163 HD
ATOM     54  O   UNL A   1      34.124  31.818  27.752  1.00  0.00    -0.269 OA
BRANCH  52  55
ATOM     55  C   UNL A   1      35.688  30.117  28.153  1.00  0.00     0.039 A 
ATOM     56  C   UNL A   1      36.746  30.089  27.241  1.00  0.00    -0.049 A 
ATOM     57  C   UNL A   1      35.874  29.666  29.463  1.00  0.00    -0.049 A 
ATOM     58  C   UNL A   1      38.007  29.658  27.658  1.00  0.00    -0.053 A 
ATOM     59  H   UNL A   1      36.596  30.385  26.265  1.00  0.00     0.063 H 
ATOM     60  C   UNL A   1      37.147  29.306  29.896  1.00  0.00    -0.053 A 
ATOM     61  H   UNL A   1      35.071  29.599  30.107  1.00  0.00     0.063 H 
ATOM     62  C   UNL A   1      38.224  29.293  28.996  1.00  0.00    -0.014 A 
ATOM     63  H   UNL A   1      38.783  29.609  26.980  1.00  0.00     0.063 H 
ATOM     64  H   UNL A   1      37.299  29.047  30.884  1.00  0.00     0.063 H 
BRANCH  62  65
ATOM     65  C   UNL A   1      39.570  28.887  29.474  1.00  0.00     0.031 A 
ATOM     66  C   UNL A   1      40.323  29.759  30.439  1.00  0.00     0.074 A 
ATOM     67  C   UNL A   1      40.137  27.765  28.990  1.00  0.00     0.049 A 
ATOM     68  N   UNL A   1      41.534  29.613  30.916  1.00  0.00    -0.248 NA
ATOM     69  C   UNL A   1      39.634  30.970  30.911  1.00  0.00    -0.034 C 
ATOM     70  C   UNL A   1      39.523  26.859  28.019  1.00  0.00    -0.036 A 
ATOM     71  N   UNL A   1      41.363  27.202  29.242  1.00  0.00    -0.354 N 
ATOM     72  C   UNL A   1      41.754  30.718  31.729  1.00  0.00     0.074 A 
ATOM     73  C   UNL A   1      40.576  31.551  31.638  1.00  0.00    -0.034 C 
ATOM     74  H   UNL A   1      38.669  31.284  30.722  1.00  0.00     0.065 H 
ATOM     75  C   UNL A   1      40.365  25.842  27.772  1.00  0.00    -0.036 A 
ATOM     76  H   UNL A   1      38.592  26.982  27.591  1.00  0.00     0.065 H 
ATOM     77  C   UNL A   1      41.592  26.046  28.537  1.00  0.00     0.049 A 
ATOM     78  H   UNL A   1      42.016  27.590  29.869  1.00  0.00     0.167 HD
ATOM     79  C   UNL A   1      42.833  30.998  32.499  1.00  0.00     0.037 A 
ATOM     80  H   UNL A   1      40.481  32.478  32.083  1.00  0.00     0.065 H 
ATOM     81  H   UNL A   1      40.175  25.047  27.144  1.00  0.00     0.065 H 
ATOM     82  C   UNL A   1      42.675  25.246  28.504  1.00  0.00     0.037 A 
ATOM     83  C   UNL A   1      43.994  30.153  32.602  1.00  0.00     0.049 A 
ATOM     84  C   UNL A   1      43.866  25.588  29.358  1.00  0.00     0.074 A 
ATOM     85  C   UNL A   1      45.114  30.319  33.397  1.00  0.00    -0.036 A 
ATOM     86  N   UNL A   1      44.186  28.983  31.881  1.00  0.00    -0.354 N 
ATOM     87  N   UNL A   1      44.036  26.598  30.175  1.00  0.00    -0.248 NA
ATOM     88  C   UNL A   1      45.013  24.672  29.290  1.00  0.00    -0.034 C 
ATOM     89  C   UNL A   1      46.006  29.276  33.122  1.00  0.00    -0.036 A 
ATOM     90  H   UNL A   1      45.267  31.081  34.077  1.00  0.00     0.065 H 
ATOM     91  C   UNL A   1      45.417  28.430  32.196  1.00  0.00     0.049 A 
ATOM     92  H   UNL A   1      43.542  28.603  31.240  1.00  0.00     0.167 HD
ATOM     93  C   UNL A   1      45.293  26.426  30.739  1.00  0.00     0.074 A 
ATOM     94  C   UNL A   1      45.836  25.204  30.182  1.00  0.00    -0.034 C 
ATOM     95  H   UNL A   1      45.144  23.835  28.701  1.00  0.00     0.065 H 
ATOM     96  H   UNL A   1      46.942  29.158  33.537  1.00  0.00     0.065 H 
ATOM     97  C   UNL A   1      45.940  27.209  31.638  1.00  0.00     0.037 A 
ATOM     98  H   UNL A   1      46.747  24.799  30.447  1.00  0.00     0.065 H 
BRANCH  79  99
ATOM     99  C   UNL A   1      42.805  32.271  33.294  1.00  0.00     0.064 A 
ATOM    100  C   UNL A   1      42.322  32.306  34.612  1.00  0.00     0.173 A 
ATOM    101  C   UNL A   1      43.299  33.465  32.747  1.00  0.00     0.173 A 
ATOM    102  F   UNL A   1      41.828  31.195  35.180  1.00  0.00    -0.203 F 
ATOM    103  C   UNL A   1      42.304  33.493  35.339  1.00  0.00     0.198 A 
ATOM    104  C   UNL A   1      43.311  34.644  33.488  1.00  0.00     0.198 A 
ATOM    105  F   UNL A   1      43.780  33.487  31.495  1.00  0.00    -0.203 F 
ATOM    106  F   UNL A   1      41.790  33.512  36.576  1.00  0.00    -0.200 F 
ATOM    107  C   UNL A   1      42.805  34.660  34.780  1.00  0.00     0.200 A 
ATOM    108  F   UNL A   1      43.808  35.766  32.952  1.00  0.00    -0.200 F 
ATOM    109  F   UNL A   1      42.794  35.799  35.483  1.00  0.00    -0.200 F 
ENDBRANCH  79  99
BRANCH  82 110
ATOM    110  C   UNL A   1      42.675  24.030  27.648  1.00  0.00     0.064 A 
ATOM    111  C   UNL A   1      42.347  22.776  28.181  1.00  0.00     0.173 A 
ATOM    112  C   UNL A   1      43.007  24.094  26.287  1.00  0.00     0.173 A 
ATOM    113  F   UNL A   1      42.041  22.661  29.482  1.00  0.00    -0.203 F 
ATOM    114  C   UNL A   1      42.372  21.629  27.392  1.00  0.00     0.198 A 
ATOM    115  C   UNL A   1      43.003  22.949  25.491  1.00  0.00     0.198 A 
ATOM    116  F   UNL A   1      43.321  25.270  25.726  1.00  0.00    -0.203 F 
ATOM    117  F   UNL A   1      42.101  20.436  27.939  1.00  0.00    -0.200 F 
ATOM    118  C   UNL A   1      42.695  21.717  26.046  1.00  0.00     0.200 A 
ATOM    119  F   UNL A   1      43.300  23.043  24.187  1.00  0.00    -0.200 F 
ATOM    120  F   UNL A   1      42.716  20.614  25.286  1.00  0.00    -0.200 F 
ENDBRANCH  82 110
BRANCH  97 121
ATOM    121  C   UNL A   1      47.291  26.749  32.104  1.00  0.00     0.064 A 
ATOM    122  C   UNL A   1      47.437  25.877  33.192  1.00  0.00     0.173 A 
ATOM    123  C   UNL A   1      48.450  27.155  31.427  1.00  0.00     0.173 A 
ATOM    124  F   UNL A   1      46.361  25.472  33.883  1.00  0.00    -0.203 F 
ATOM    125  C   UNL A   1      48.697  25.450  33.603  1.00  0.00     0.198 A 
ATOM    126  C   UNL A   1      49.707  26.701  31.819  1.00  0.00     0.198 A 
ATOM    127  F   UNL A   1      48.365  27.984  30.375  1.00  0.00    -0.203 F 
ATOM    128  F   UNL A   1      48.817  24.657  34.676  1.00  0.00    -0.200 F 
ATOM    129  C   UNL A   1      49.830  25.855  32.912  1.00  0.00     0.200 A 
ATOM    130  F   UNL A   1      50.798  27.083  31.141  1.00  0.00    -0.200 F 
ATOM    131  F   UNL A   1      51.041  25.437  33.303  1.00  0.00    -0.200 F 
ENDBRANCH  97 121
ENDBRANCH  62  65
ENDBRANCH  52  55
ENDBRANCH  48  51
ENDBRANCH  45  48
ENDBRANCH  42  45
ENDBRANCH   1  42
TORSDOF 17
ENDMDL
MODEL 10
REMARK VINA RESULT:     -12.2      2.859      4.703
REMARK SMILES Nc1c(CC(=O)NCCCCCCNC(=O)c2ccc(-c3c4nc(c(-c5c(F)c(F)c(F)c(F)c5F)c5ccc([nH]5)c(-c5c(F)c(F)c(F)c(F)c5F)c5nc(c(-c6c(F)c(F)c(F)c(F)c6F)c6ccc3[nH]6)C=C5)C=C4)cc2)cccc1C(=O)c1ccc(Br)cc1
REMARK SMILES IDX 10 1 9 4 8 7 7 10 5 11 6 12 4 14 3 17 2 18 83 19 80 20 82 21
REMARK SMILES IDX 81 22 1 26 84 29 85 30 86 31 87 32 92 33 88 34 91 36 89 38
REMARK SMILES IDX 90 41 11 42 12 45 13 48 14 51 15 52 16 54 17 55 18 56 79 57
REMARK SMILES IDX 19 58 78 60 20 62 21 65 22 66 72 67 23 68 77 69 71 70 73 71
REMARK SMILES IDX 24 72 76 73 70 75 69 77 25 79 57 82 37 83 56 84 38 85 41 86
REMARK SMILES IDX 55 87 74 88 39 89 40 91 54 93 75 94 42 97 26 99 27 100
REMARK SMILES IDX 35 101 28 102 29 103 33 104 36 105 30 106 31 107 34 108
REMARK SMILES IDX 32 109 58 110 59 111 67 112 60 113 61 114 65 115 68 116
REMARK SMILES IDX 62 117 63 118 66 119 64 120 43 121 44 122 52 123 45 124
REMARK SMILES IDX 46 125 50 126 53 127 47 128 48 129 51 130 49 131
REMARK H PARENT 10 2 10 3 9 5 9 6 8 8 8 9 7 13 4 15 4 16 80 23 82 24 81 25
REMARK H PARENT 1 27 1 28 87 35 92 37 88 39 91 40 11 43 11 44 12 46 12 47
REMARK H PARENT 13 49 13 50 14 53 18 59 79 61 19 63 78 64 77 74 71 76 73 78
REMARK H PARENT 76 80 70 81 38 90 41 92 74 95 39 96 75 98
REMARK Flexibility Score: inf
ROOT
ATOM      1  C   UNL A   1      34.107  25.931  24.951  1.00  0.00    -0.052 C 
ATOM      2  H   UNL A   1      33.254  25.498  24.474  1.00  0.00     0.027 H 
ATOM      3  H   UNL A   1      34.660  26.587  24.312  1.00  0.00     0.027 H 
ENDROOT
BRANCH   1   4
ATOM      4  C   UNL A   1      35.065  24.798  25.339  1.00  0.00    -0.036 C 
ATOM      5  H   UNL A   1      36.068  25.122  25.154  1.00  0.00     0.028 H 
ATOM      6  H   UNL A   1      34.898  24.580  26.374  1.00  0.00     0.028 H 
BRANCH   4   7
ATOM      7  C   UNL A   1      34.818  23.508  24.557  1.00  0.00     0.017 C 
ATOM      8  H   UNL A   1      34.008  23.660  23.877  1.00  0.00     0.049 H 
ATOM      9  H   UNL A   1      35.713  23.257  24.025  1.00  0.00     0.049 H 
BRANCH   7  10
ATOM     10  N   UNL A   1      34.491  22.413  25.446  1.00  0.00    -0.356 N 
ATOM     11  C   UNL A   1      33.311  21.741  25.583  1.00  0.00     0.224 C 
ATOM     12  O   UNL A   1      33.213  20.919  26.497  1.00  0.00    -0.275 OA
ATOM     13  H   UNL A   1      35.220  22.112  26.033  1.00  0.00     0.163 HD
BRANCH  11  14
ATOM     14  C   UNL A   1      32.184  21.939  24.582  1.00  0.00     0.054 C 
ATOM     15  H   UNL A   1      32.597  21.863  23.598  1.00  0.00     0.042 H 
ATOM     16  H   UNL A   1      31.458  21.183  24.799  1.00  0.00     0.042 H 
BRANCH  14  17
ATOM     17  C   UNL A   1      31.454  23.267  24.684  1.00  0.00    -0.015 A 
ATOM     18  C   UNL A   1      31.350  24.176  23.593  1.00  0.00     0.046 A 
ATOM     19  C   UNL A   1      30.720  25.430  23.804  1.00  0.00     0.046 A 
ATOM     20  C   UNL A   1      30.902  23.603  25.934  1.00  0.00    -0.056 A 
ATOM     21  C   UNL A   1      30.194  25.731  25.077  1.00  0.00    -0.049 A 
ATOM     22  C   UNL A   1      30.278  24.826  26.130  1.00  0.00    -0.061 A 
ATOM     23  H   UNL A   1      30.963  22.932  26.715  1.00  0.00     0.063 H 
ATOM     24  H   UNL A   1      29.736  26.643  25.230  1.00  0.00     0.063 H 
ATOM     25  H   UNL A   1      29.879  25.064  27.051  1.00  0.00     0.062 H 
BRANCH  18  26
ATOM     26  N   UNL A   1      31.915  23.811  22.376  1.00  0.00    -0.398 N 
ATOM     27  H   UNL A   1      31.378  23.323  21.710  1.00  0.00     0.156 HD
ATOM     28  H   UNL A   1      32.853  24.039  22.180  1.00  0.00     0.156 HD
ENDBRANCH  18  26
BRANCH  19  29
ATOM     29  C   UNL A   1      30.590  26.540  22.797  1.00  0.00     0.195 C 
ATOM     30  O   UNL A   1      31.061  26.406  21.667  1.00  0.00    -0.289 OA
BRANCH  29  31
ATOM     31  C   UNL A   1      29.844  27.786  23.046  1.00  0.00     0.023 A 
ATOM     32  C   UNL A   1      30.583  28.955  23.268  1.00  0.00    -0.050 A 
ATOM     33  C   UNL A   1      28.446  27.827  23.019  1.00  0.00    -0.050 A 
ATOM     34  C   UNL A   1      29.927  30.180  23.386  1.00  0.00    -0.047 A 
ATOM     35  H   UNL A   1      31.611  28.910  23.343  1.00  0.00     0.063 H 
ATOM     36  C   UNL A   1      27.792  29.058  23.126  1.00  0.00    -0.047 A 
ATOM     37  H   UNL A   1      27.901  26.956  22.923  1.00  0.00     0.063 H 
ATOM     38  C   UNL A   1      28.537  30.228  23.295  1.00  0.00     0.018 A 
ATOM     39  H   UNL A   1      30.468  31.046  23.541  1.00  0.00     0.063 H 
ATOM     40  H   UNL A   1      26.763  29.102  23.079  1.00  0.00     0.063 H 
ATOM     41  Br  UNL A   1      27.653  31.898  23.377  1.00  0.00    -0.051 Br
ENDBRANCH  29  31
ENDBRANCH  19  29
ENDBRANCH  14  17
ENDBRANCH  11  14
ENDBRANCH   7  10
ENDBRANCH   4   7
ENDBRANCH   1   4
BRANCH   1  42
ATOM     42  C   UNL A   1      33.615  26.786  26.126  1.00  0.00    -0.052 C 
ATOM     43  H   UNL A   1      34.471  27.138  26.662  1.00  0.00     0.027 H 
ATOM     44  H   UNL A   1      32.978  26.156  26.710  1.00  0.00     0.027 H 
BRANCH  42  45
ATOM     45  C   UNL A   1      32.769  28.000  25.730  1.00  0.00    -0.036 C 
ATOM     46  H   UNL A   1      32.186  28.292  26.578  1.00  0.00     0.028 H 
ATOM     47  H   UNL A   1      32.169  27.697  24.897  1.00  0.00     0.028 H 
BRANCH  45  48
ATOM     48  C   UNL A   1      33.580  29.206  25.269  1.00  0.00     0.018 C 
ATOM     49  H   UNL A   1      33.578  29.238  24.200  1.00  0.00     0.049 H 
ATOM     50  H   UNL A   1      34.575  29.101  25.649  1.00  0.00     0.049 H 
BRANCH  48  51
ATOM     51  N   UNL A   1      33.032  30.454  25.779  1.00  0.00    -0.352 N 
ATOM     52  C   UNL A   1      33.391  31.176  26.885  1.00  0.00     0.251 C 
ATOM     53  H   UNL A   1      32.294  30.835  25.250  1.00  0.00     0.163 HD
ATOM     54  O   UNL A   1      32.675  32.096  27.284  1.00  0.00    -0.269 OA
BRANCH  52  55
ATOM     55  C   UNL A   1      34.631  30.845  27.614  1.00  0.00     0.039 A 
ATOM     56  C   UNL A   1      35.643  31.805  27.702  1.00  0.00    -0.049 A 
ATOM     57  C   UNL A   1      34.805  29.585  28.194  1.00  0.00    -0.049 A 
ATOM     58  C   UNL A   1      36.806  31.521  28.419  1.00  0.00    -0.053 A 
ATOM     59  H   UNL A   1      35.529  32.720  27.240  1.00  0.00     0.063 H 
ATOM     60  C   UNL A   1      35.933  29.328  28.969  1.00  0.00    -0.053 A 
ATOM     61  H   UNL A   1      34.099  28.846  28.048  1.00  0.00     0.063 H 
ATOM     62  C   UNL A   1      36.946  30.292  29.084  1.00  0.00    -0.014 A 
ATOM     63  H   UNL A   1      37.566  32.217  28.462  1.00  0.00     0.063 H 
ATOM     64  H   UNL A   1      36.023  28.426  29.461  1.00  0.00     0.063 H 
BRANCH  62  65
ATOM     65  C   UNL A   1      38.150  29.991  29.898  1.00  0.00     0.031 A 
ATOM     66  C   UNL A   1      39.207  29.063  29.369  1.00  0.00     0.074 A 
ATOM     67  C   UNL A   1      38.260  30.505  31.139  1.00  0.00     0.049 A 
ATOM     68  N   UNL A   1      40.292  28.622  29.955  1.00  0.00    -0.248 NA
ATOM     69  C   UNL A   1      39.005  28.540  28.008  1.00  0.00    -0.034 C 
ATOM     70  C   UNL A   1      37.281  31.383  31.779  1.00  0.00    -0.036 A 
ATOM     71  N   UNL A   1      39.240  30.351  32.087  1.00  0.00    -0.354 N 
ATOM     72  C   UNL A   1      40.891  27.762  29.043  1.00  0.00     0.074 A 
ATOM     73  C   UNL A   1      40.023  27.700  27.888  1.00  0.00    -0.034 C 
ATOM     74  H   UNL A   1      38.264  28.768  27.328  1.00  0.00     0.065 H 
ATOM     75  C   UNL A   1      37.718  31.710  33.006  1.00  0.00    -0.036 A 
ATOM     76  H   UNL A   1      36.395  31.701  31.355  1.00  0.00     0.065 H 
ATOM     77  C   UNL A   1      38.987  31.032  33.253  1.00  0.00     0.049 A 
ATOM     78  H   UNL A   1      40.047  29.806  31.945  1.00  0.00     0.167 HD
ATOM     79  C   UNL A   1      42.069  27.104  29.151  1.00  0.00     0.037 A 
ATOM     80  H   UNL A   1      40.176  27.083  27.075  1.00  0.00     0.065 H 
ATOM     81  H   UNL A   1      37.235  32.337  33.666  1.00  0.00     0.065 H 
ATOM     82  C   UNL A   1      39.696  31.093  34.397  1.00  0.00     0.037 A 
ATOM     83  C   UNL A   1      42.939  27.186  30.295  1.00  0.00     0.049 A 
ATOM     84  C   UNL A   1      40.995  30.339  34.496  1.00  0.00     0.074 A 
ATOM     85  C   UNL A   1      44.181  26.603  30.479  1.00  0.00    -0.036 A 
ATOM     86  N   UNL A   1      42.655  27.895  31.454  1.00  0.00    -0.354 N 
ATOM     87  N   UNL A   1      41.585  29.585  33.602  1.00  0.00    -0.248 NA
ATOM     88  C   UNL A   1      41.730  30.454  35.764  1.00  0.00    -0.034 C 
ATOM     89  C   UNL A   1      44.626  26.918  31.767  1.00  0.00    -0.036 A 
ATOM     90  H   UNL A   1      44.691  26.033  29.785  1.00  0.00     0.065 H 
ATOM     91  C   UNL A   1      43.688  27.743  32.366  1.00  0.00     0.049 A 
ATOM     92  H   UNL A   1      41.841  28.426  31.605  1.00  0.00     0.167 HD
ATOM     93  C   UNL A   1      42.770  29.158  34.185  1.00  0.00     0.074 A 
ATOM     94  C   UNL A   1      42.824  29.752  35.505  1.00  0.00    -0.034 C 
ATOM     95  H   UNL A   1      41.464  30.950  36.629  1.00  0.00     0.065 H 
ATOM     96  H   UNL A   1      45.505  26.591  32.199  1.00  0.00     0.065 H 
ATOM     97  C   UNL A   1      43.729  28.347  33.673  1.00  0.00     0.037 A 
ATOM     98  H   UNL A   1      43.613  29.643  36.160  1.00  0.00     0.065 H 
BRANCH  79  99
ATOM     99  C   UNL A   1      42.487  26.236  27.999  1.00  0.00     0.064 A 
ATOM    100  C   UNL A   1      41.990  24.933  27.839  1.00  0.00     0.173 A 
ATOM    101  C   UNL A   1      43.369  26.724  27.022  1.00  0.00     0.173 A 
ATOM    102  F   UNL A   1      41.151  24.414  28.749  1.00  0.00    -0.203 F 
ATOM    103  C   UNL A   1      42.384  24.141  26.764  1.00  0.00     0.198 A 
ATOM    104  C   UNL A   1      43.737  25.941  25.931  1.00  0.00     0.198 A 
ATOM    105  F   UNL A   1      43.870  27.965  27.121  1.00  0.00    -0.203 F 
ATOM    106  F   UNL A   1      41.937  22.883  26.662  1.00  0.00    -0.200 F 
ATOM    107  C   UNL A   1      43.251  24.647  25.807  1.00  0.00     0.200 A 
ATOM    108  F   UNL A   1      44.563  26.436  25.000  1.00  0.00    -0.200 F 
ATOM    109  F   UNL A   1      43.624  23.887  24.770  1.00  0.00    -0.200 F 
ENDBRANCH  79  99
BRANCH  82 110
ATOM    110  C   UNL A   1      39.203  31.916  35.533  1.00  0.00     0.064 A 
ATOM    111  C   UNL A   1      38.365  31.362  36.511  1.00  0.00     0.173 A 
ATOM    112  C   UNL A   1      39.553  33.267  35.662  1.00  0.00     0.173 A 
ATOM    113  F   UNL A   1      37.987  30.078  36.420  1.00  0.00    -0.203 F 
ATOM    114  C   UNL A   1      37.877  32.135  37.563  1.00  0.00     0.198 A 
ATOM    115  C   UNL A   1      39.087  34.032  36.732  1.00  0.00     0.198 A 
ATOM    116  F   UNL A   1      40.358  33.844  34.758  1.00  0.00    -0.203 F 
ATOM    117  F   UNL A   1      37.039  31.592  38.456  1.00  0.00    -0.200 F 
ATOM    118  C   UNL A   1      38.243  33.467  37.676  1.00  0.00     0.200 A 
ATOM    119  F   UNL A   1      39.458  35.315  36.845  1.00  0.00    -0.200 F 
ATOM    120  F   UNL A   1      37.777  34.209  38.689  1.00  0.00    -0.200 F 
ENDBRANCH  82 110
BRANCH  97 121
ATOM    121  C   UNL A   1      44.936  28.085  34.527  1.00  0.00     0.064 A 
ATOM    122  C   UNL A   1      46.054  28.931  34.502  1.00  0.00     0.173 A 
ATOM    123  C   UNL A   1      44.956  26.996  35.411  1.00  0.00     0.173 A 
ATOM    124  F   UNL A   1      46.091  29.977  33.663  1.00  0.00    -0.203 F 
ATOM    125  C   UNL A   1      47.160  28.680  35.311  1.00  0.00     0.198 A 
ATOM    126  C   UNL A   1      46.049  26.766  36.242  1.00  0.00     0.198 A 
ATOM    127  F   UNL A   1      43.909  26.160  35.479  1.00  0.00    -0.203 F 
ATOM    128  F   UNL A   1      48.237  29.473  35.234  1.00  0.00    -0.200 F 
ATOM    129  C   UNL A   1      47.153  27.603  36.185  1.00  0.00     0.200 A 
ATOM    130  F   UNL A   1      46.034  25.733  37.096  1.00  0.00    -0.200 F 
ATOM    131  F   UNL A   1      48.215  27.368  36.969  1.00  0.00    -0.200 F 
ENDBRANCH  97 121
ENDBRANCH  62  65
ENDBRANCH  52  55
ENDBRANCH  48  51
ENDBRANCH  45  48
ENDBRANCH  42  45
ENDBRANCH   1  42
TORSDOF 17
ENDMDL
