MODEL 1
REMARK VINA RESULT:     -12.1      0.000      0.000
REMARK SMILES C[C@@H](C(=O)NCCCCCCNC(=O)c1ccc(-c2c3nc(c(-c4c(F)c(F)c(F)c(F)c4F)c4ccc([nH]4)c(-c4c(F)c(F)c(F)c(F)c4F)c4nc(c(-c5c(F)c(F)c(F)c(F)c5F)c5ccc2[nH]5)C=C4)C=C3)cc1)c1ccc(OC2CCCC2)cc1F
REMARK SMILES IDX 8 1 7 4 6 7 5 10 3 11 4 12 2 14 1 16 78 20 79 21 89 22 80 23
REMARK SMILES IDX 88 25 90 26 81 27 82 30 83 31 84 32 87 33 85 35 86 38 9 45
REMARK SMILES IDX 10 48 11 51 12 54 13 55 14 57 15 58 16 59 77 60 17 61 76 63
REMARK SMILES IDX 18 65 19 68 20 69 70 70 21 71 75 72 69 73 71 74 22 75 74 76
REMARK SMILES IDX 68 78 67 80 23 82 55 85 35 86 54 87 36 88 39 89 53 90 72 91
REMARK SMILES IDX 37 92 38 94 52 96 73 97 40 100 24 102 25 103 33 104 26 105
REMARK SMILES IDX 27 106 31 107 34 108 28 109 29 110 32 111 30 112 56 113
REMARK SMILES IDX 57 114 65 115 58 116 59 117 63 118 66 119 60 120 61 121
REMARK SMILES IDX 64 122 62 123 41 124 42 125 50 126 43 127 44 128 48 129
REMARK SMILES IDX 51 130 45 131 46 132 49 133 47 134
REMARK H PARENT 8 2 8 3 7 5 7 6 6 8 6 9 5 13 2 15 1 17 1 18 1 19 79 24 80 28
REMARK H PARENT 88 29 83 34 84 36 84 37 87 39 87 40 85 41 85 42 86 43 86 44
REMARK H PARENT 9 46 9 47 10 49 10 50 11 52 11 53 12 56 16 62 77 64 17 66
REMARK H PARENT 76 67 75 77 69 79 71 81 74 83 68 84 36 93 39 95 72 98 37 99
REMARK H PARENT 73 101
REMARK Flexibility Score: inf
ROOT
ATOM      1  C   UNL A   1      32.523  29.899  27.092  1.00  0.00    -0.052 C 
ATOM      2  H   UNL A   1      33.090  30.566  27.708  1.00  0.00     0.027 H 
ATOM      3  H   UNL A   1      31.847  29.281  27.646  1.00  0.00     0.027 H 
ENDROOT
BRANCH   1   4
ATOM      4  C   UNL A   1      33.503  28.946  26.393  1.00  0.00    -0.036 C 
ATOM      5  H   UNL A   1      33.453  29.127  25.340  1.00  0.00     0.028 H 
ATOM      6  H   UNL A   1      34.472  29.146  26.802  1.00  0.00     0.028 H 
BRANCH   4   7
ATOM      7  C   UNL A   1      33.214  27.465  26.641  1.00  0.00     0.017 C 
ATOM      8  H   UNL A   1      33.465  27.221  27.652  1.00  0.00     0.049 H 
ATOM      9  H   UNL A   1      32.175  27.278  26.466  1.00  0.00     0.049 H 
BRANCH   7  10
ATOM     10  N   UNL A   1      33.998  26.644  25.744  1.00  0.00    -0.356 N 
ATOM     11  C   UNL A   1      33.637  25.556  25.006  1.00  0.00     0.227 C 
ATOM     12  O   UNL A   1      34.554  24.937  24.467  1.00  0.00    -0.274 OA
ATOM     13  H   UNL A   1      34.940  26.915  25.650  1.00  0.00     0.163 HD
BRANCH  11  14
ATOM     14  C   UNL A   1      32.150  25.197  24.861  1.00  0.00     0.063 C 
ATOM     15  H   UNL A   1      31.810  25.159  25.875  1.00  0.00     0.045 H 
BRANCH  14  16
ATOM     16  C   UNL A   1      31.921  23.837  24.198  1.00  0.00    -0.049 C 
ATOM     17  H   UNL A   1      32.826  23.268  24.229  1.00  0.00     0.024 H 
ATOM     18  H   UNL A   1      31.625  23.983  23.179  1.00  0.00     0.024 H 
ATOM     19  H   UNL A   1      31.150  23.312  24.721  1.00  0.00     0.024 H 
ENDBRANCH  14  16
BRANCH  14  20
ATOM     20  C   UNL A   1      31.328  26.241  24.121  1.00  0.00     0.000 A 
ATOM     21  C   UNL A   1      31.837  26.982  23.047  1.00  0.00    -0.052 A 
ATOM     22  C   UNL A   1      29.987  26.423  24.460  1.00  0.00     0.130 A 
ATOM     23  C   UNL A   1      31.024  27.890  22.364  1.00  0.00    -0.019 A 
ATOM     24  H   UNL A   1      32.819  26.856  22.757  1.00  0.00     0.063 H 
ATOM     25  C   UNL A   1      29.169  27.314  23.771  1.00  0.00     0.016 A 
ATOM     26  F   UNL A   1      29.446  25.704  25.455  1.00  0.00    -0.207 F 
ATOM     27  C   UNL A   1      29.680  28.048  22.707  1.00  0.00     0.122 A 
ATOM     28  H   UNL A   1      31.423  28.451  21.596  1.00  0.00     0.066 H 
ATOM     29  H   UNL A   1      28.182  27.429  24.050  1.00  0.00     0.069 H 
BRANCH  27  30
ATOM     30  O   UNL A   1      29.008  28.944  21.932  1.00  0.00    -0.490 OA
BRANCH  30  31
ATOM     31  C   UNL A   1      29.176  30.348  22.070  1.00  0.00     0.099 C 
ATOM     32  C   UNL A   1      28.325  31.238  21.169  1.00  0.00    -0.016 C 
ATOM     33  C   UNL A   1      29.034  30.889  23.490  1.00  0.00    -0.016 C 
ATOM     34  H   UNL A   1      30.195  30.415  21.749  1.00  0.00     0.074 H 
ATOM     35  C   UNL A   1      28.406  32.600  21.836  1.00  0.00    -0.050 C 
ATOM     36  H   UNL A   1      27.313  30.889  21.133  1.00  0.00     0.030 H 
ATOM     37  H   UNL A   1      28.665  31.250  20.155  1.00  0.00     0.030 H 
ATOM     38  C   UNL A   1      28.563  32.333  23.332  1.00  0.00    -0.050 C 
ATOM     39  H   UNL A   1      29.975  30.856  23.999  1.00  0.00     0.030 H 
ATOM     40  H   UNL A   1      28.345  30.309  24.069  1.00  0.00     0.030 H 
ATOM     41  H   UNL A   1      27.511  33.158  21.650  1.00  0.00     0.027 H 
ATOM     42  H   UNL A   1      29.224  33.175  21.454  1.00  0.00     0.027 H 
ATOM     43  H   UNL A   1      27.625  32.468  23.828  1.00  0.00     0.027 H 
ATOM     44  H   UNL A   1      29.269  33.011  23.764  1.00  0.00     0.027 H 
ENDBRANCH  30  31
ENDBRANCH  27  30
ENDBRANCH  14  20
ENDBRANCH  11  14
ENDBRANCH   7  10
ENDBRANCH   4   7
ENDBRANCH   1   4
BRANCH   1  45
ATOM     45  C   UNL A   1      31.659  30.741  26.150  1.00  0.00    -0.052 C 
ATOM     46  H   UNL A   1      30.710  30.256  26.046  1.00  0.00     0.027 H 
ATOM     47  H   UNL A   1      32.197  30.814  25.228  1.00  0.00     0.027 H 
BRANCH  45  48
ATOM     48  C   UNL A   1      31.411  32.176  26.619  1.00  0.00    -0.036 C 
ATOM     49  H   UNL A   1      30.575  32.168  27.288  1.00  0.00     0.028 H 
ATOM     50  H   UNL A   1      31.237  32.759  25.740  1.00  0.00     0.028 H 
BRANCH  48  51
ATOM     51  C   UNL A   1      32.592  32.816  27.340  1.00  0.00     0.018 C 
ATOM     52  H   UNL A   1      33.459  32.737  26.718  1.00  0.00     0.049 H 
ATOM     53  H   UNL A   1      32.732  32.300  28.267  1.00  0.00     0.049 H 
BRANCH  51  54
ATOM     54  N   UNL A   1      32.353  34.219  27.639  1.00  0.00    -0.352 N 
ATOM     55  C   UNL A   1      32.949  35.020  28.579  1.00  0.00     0.251 C 
ATOM     56  H   UNL A   1      31.666  34.657  27.087  1.00  0.00     0.163 HD
ATOM     57  O   UNL A   1      32.484  36.129  28.835  1.00  0.00    -0.269 OA
BRANCH  55  58
ATOM     58  C   UNL A   1      34.141  34.538  29.307  1.00  0.00     0.039 A 
ATOM     59  C   UNL A   1      33.976  33.974  30.574  1.00  0.00    -0.049 A 
ATOM     60  C   UNL A   1      35.415  34.633  28.739  1.00  0.00    -0.049 A 
ATOM     61  C   UNL A   1      35.078  33.438  31.240  1.00  0.00    -0.053 A 
ATOM     62  H   UNL A   1      33.043  33.955  31.014  1.00  0.00     0.063 H 
ATOM     63  C   UNL A   1      36.502  34.036  29.374  1.00  0.00    -0.053 A 
ATOM     64  H   UNL A   1      35.551  35.143  27.852  1.00  0.00     0.063 H 
ATOM     65  C   UNL A   1      36.342  33.425  30.626  1.00  0.00    -0.014 A 
ATOM     66  H   UNL A   1      34.965  33.049  32.189  1.00  0.00     0.063 H 
ATOM     67  H   UNL A   1      37.429  34.044  28.920  1.00  0.00     0.063 H 
BRANCH  65  68
ATOM     68  C   UNL A   1      37.494  32.736  31.264  1.00  0.00     0.031 A 
ATOM     69  C   UNL A   1      38.157  31.568  30.587  1.00  0.00     0.074 A 
ATOM     70  C   UNL A   1      37.895  33.125  32.490  1.00  0.00     0.049 A 
ATOM     71  N   UNL A   1      39.130  30.808  31.020  1.00  0.00    -0.248 NA
ATOM     72  C   UNL A   1      37.647  31.192  29.259  1.00  0.00    -0.034 C 
ATOM     73  C   UNL A   1      37.296  34.211  33.271  1.00  0.00    -0.036 A 
ATOM     74  N   UNL A   1      38.892  32.644  33.304  1.00  0.00    -0.354 N 
ATOM     75  C   UNL A   1      39.341  29.860  30.028  1.00  0.00     0.074 A 
ATOM     76  C   UNL A   1      38.367  30.112  28.987  1.00  0.00    -0.034 C 
ATOM     77  H   UNL A   1      36.920  31.649  28.688  1.00  0.00     0.065 H 
ATOM     78  C   UNL A   1      37.947  34.324  34.439  1.00  0.00    -0.036 A 
ATOM     79  H   UNL A   1      36.502  34.795  32.970  1.00  0.00     0.065 H 
ATOM     80  C   UNL A   1      38.978  33.295  34.512  1.00  0.00     0.049 A 
ATOM     81  H   UNL A   1      39.489  31.906  33.046  1.00  0.00     0.167 HD
ATOM     82  C   UNL A   1      40.275  28.880  29.983  1.00  0.00     0.037 A 
ATOM     83  H   UNL A   1      38.249  29.528  28.145  1.00  0.00     0.065 H 
ATOM     84  H   UNL A   1      37.749  35.026  35.169  1.00  0.00     0.065 H 
ATOM     85  C   UNL A   1      39.786  33.073  35.567  1.00  0.00     0.037 A 
ATOM     86  C   UNL A   1      41.260  28.652  31.008  1.00  0.00     0.049 A 
ATOM     87  C   UNL A   1      40.806  31.968  35.489  1.00  0.00     0.074 A 
ATOM     88  C   UNL A   1      42.299  27.736  31.014  1.00  0.00    -0.036 A 
ATOM     89  N   UNL A   1      41.326  29.337  32.211  1.00  0.00    -0.354 N 
ATOM     90  N   UNL A   1      41.053  31.136  34.506  1.00  0.00    -0.248 NA
ATOM     91  C   UNL A   1      41.661  31.770  36.669  1.00  0.00    -0.034 C 
ATOM     92  C   UNL A   1      42.956  27.827  32.244  1.00  0.00    -0.036 A 
ATOM     93  H   UNL A   1      42.546  27.097  30.242  1.00  0.00     0.065 H 
ATOM     94  C   UNL A   1      42.364  28.839  32.982  1.00  0.00     0.049 A 
ATOM     95  H   UNL A   1      40.723  30.069  32.479  1.00  0.00     0.167 HD
ATOM     96  C   UNL A   1      42.107  30.341  34.935  1.00  0.00     0.074 A 
ATOM     97  C   UNL A   1      42.467  30.803  36.259  1.00  0.00    -0.034 C 
ATOM     98  H   UNL A   1      41.639  32.259  37.578  1.00  0.00     0.065 H 
ATOM     99  H   UNL A   1      43.747  27.239  32.552  1.00  0.00     0.065 H 
ATOM    100  C   UNL A   1      42.717  29.314  34.295  1.00  0.00     0.037 A 
ATOM    101  H   UNL A   1      43.253  30.426  36.812  1.00  0.00     0.065 H 
BRANCH  82 102
ATOM    102  C   UNL A   1      40.292  27.973  28.788  1.00  0.00     0.064 A 
ATOM    103  C   UNL A   1      41.024  28.291  27.634  1.00  0.00     0.173 A 
ATOM    104  C   UNL A   1      39.646  26.729  28.833  1.00  0.00     0.173 A 
ATOM    105  F   UNL A   1      41.654  29.471  27.537  1.00  0.00    -0.203 F 
ATOM    106  C   UNL A   1      41.099  27.399  26.566  1.00  0.00     0.198 A 
ATOM    107  C   UNL A   1      39.745  25.829  27.776  1.00  0.00     0.198 A 
ATOM    108  F   UNL A   1      38.937  26.374  29.917  1.00  0.00    -0.203 F 
ATOM    109  F   UNL A   1      41.782  27.735  25.463  1.00  0.00    -0.200 F 
ATOM    110  C   UNL A   1      40.470  26.166  26.643  1.00  0.00     0.200 A 
ATOM    111  F   UNL A   1      39.150  24.632  27.858  1.00  0.00    -0.200 F 
ATOM    112  F   UNL A   1      40.562  25.301  25.623  1.00  0.00    -0.200 F 
ENDBRANCH  82 102
BRANCH  85 113
ATOM    113  C   UNL A   1      39.666  33.905  36.795  1.00  0.00     0.064 A 
ATOM    114  C   UNL A   1      38.862  33.496  37.869  1.00  0.00     0.173 A 
ATOM    115  C   UNL A   1      40.314  35.144  36.902  1.00  0.00     0.173 A 
ATOM    116  F   UNL A   1      38.205  32.329  37.808  1.00  0.00    -0.203 F 
ATOM    117  C   UNL A   1      38.683  34.311  38.985  1.00  0.00     0.198 A 
ATOM    118  C   UNL A   1      40.162  35.941  38.034  1.00  0.00     0.198 A 
ATOM    119  F   UNL A   1      41.099  35.580  35.906  1.00  0.00    -0.203 F 
ATOM    120  F   UNL A   1      37.855  33.926  39.967  1.00  0.00    -0.200 F 
ATOM    121  C   UNL A   1      39.335  35.531  39.069  1.00  0.00     0.200 A 
ATOM    122  F   UNL A   1      40.807  37.113  38.116  1.00  0.00    -0.200 F 
ATOM    123  F   UNL A   1      39.157  36.317  40.139  1.00  0.00    -0.200 F 
ENDBRANCH  85 113
BRANCH 100 124
ATOM    124  C   UNL A   1      43.855  28.639  35.004  1.00  0.00     0.064 A 
ATOM    125  C   UNL A   1      45.174  29.101  34.884  1.00  0.00     0.173 A 
ATOM    126  C   UNL A   1      43.620  27.535  35.839  1.00  0.00     0.173 A 
ATOM    127  F   UNL A   1      45.454  30.144  34.086  1.00  0.00    -0.203 F 
ATOM    128  C   UNL A   1      46.219  28.467  35.551  1.00  0.00     0.198 A 
ATOM    129  C   UNL A   1      44.662  26.925  36.530  1.00  0.00     0.198 A 
ATOM    130  F   UNL A   1      42.376  27.057  35.994  1.00  0.00    -0.203 F 
ATOM    131  F   UNL A   1      47.477  28.894  35.380  1.00  0.00    -0.200 F 
ATOM    132  C   UNL A   1      45.961  27.385  36.380  1.00  0.00     0.200 A 
ATOM    133  F   UNL A   1      44.408  25.890  37.344  1.00  0.00    -0.200 F 
ATOM    134  F   UNL A   1      46.967  26.781  37.027  1.00  0.00    -0.200 F 
ENDBRANCH 100 124
ENDBRANCH  65  68
ENDBRANCH  55  58
ENDBRANCH  51  54
ENDBRANCH  48  51
ENDBRANCH  45  48
ENDBRANCH   1  45
TORSDOF 17
ENDMDL
MODEL 2
REMARK VINA RESULT:     -12.0      0.730      1.832
REMARK SMILES C[C@@H](C(=O)NCCCCCCNC(=O)c1ccc(-c2c3nc(c(-c4c(F)c(F)c(F)c(F)c4F)c4ccc([nH]4)c(-c4c(F)c(F)c(F)c(F)c4F)c4nc(c(-c5c(F)c(F)c(F)c(F)c5F)c5ccc2[nH]5)C=C4)C=C3)cc1)c1ccc(OC2CCCC2)cc1F
REMARK SMILES IDX 8 1 7 4 6 7 5 10 3 11 4 12 2 14 1 16 78 20 79 21 89 22 80 23
REMARK SMILES IDX 88 25 90 26 81 27 82 30 83 31 84 32 87 33 85 35 86 38 9 45
REMARK SMILES IDX 10 48 11 51 12 54 13 55 14 57 15 58 16 59 77 60 17 61 76 63
REMARK SMILES IDX 18 65 19 68 20 69 70 70 21 71 75 72 69 73 71 74 22 75 74 76
REMARK SMILES IDX 68 78 67 80 23 82 55 85 35 86 54 87 36 88 39 89 53 90 72 91
REMARK SMILES IDX 37 92 38 94 52 96 73 97 40 100 24 102 25 103 33 104 26 105
REMARK SMILES IDX 27 106 31 107 34 108 28 109 29 110 32 111 30 112 56 113
REMARK SMILES IDX 57 114 65 115 58 116 59 117 63 118 66 119 60 120 61 121
REMARK SMILES IDX 64 122 62 123 41 124 42 125 50 126 43 127 44 128 48 129
REMARK SMILES IDX 51 130 45 131 46 132 49 133 47 134
REMARK H PARENT 8 2 8 3 7 5 7 6 6 8 6 9 5 13 2 15 1 17 1 18 1 19 79 24 80 28
REMARK H PARENT 88 29 83 34 84 36 84 37 87 39 87 40 85 41 85 42 86 43 86 44
REMARK H PARENT 9 46 9 47 10 49 10 50 11 52 11 53 12 56 16 62 77 64 17 66
REMARK H PARENT 76 67 75 77 69 79 71 81 74 83 68 84 36 93 39 95 72 98 37 99
REMARK H PARENT 73 101
REMARK Flexibility Score: inf
ROOT
ATOM      1  C   UNL A   1      33.033  29.986  26.512  1.00  0.00    -0.052 C 
ATOM      2  H   UNL A   1      33.650  29.738  25.674  1.00  0.00     0.027 H 
ATOM      3  H   UNL A   1      33.503  30.656  27.202  1.00  0.00     0.027 H 
ENDROOT
BRANCH   1   4
ATOM      4  C   UNL A   1      32.747  28.696  27.293  1.00  0.00    -0.036 C 
ATOM      5  H   UNL A   1      33.556  28.016  27.125  1.00  0.00     0.028 H 
ATOM      6  H   UNL A   1      32.648  28.973  28.322  1.00  0.00     0.028 H 
BRANCH   4   7
ATOM      7  C   UNL A   1      31.443  28.002  26.895  1.00  0.00     0.017 C 
ATOM      8  H   UNL A   1      30.626  28.472  27.399  1.00  0.00     0.049 H 
ATOM      9  H   UNL A   1      31.315  28.084  25.836  1.00  0.00     0.049 H 
BRANCH   7  10
ATOM     10  N   UNL A   1      31.488  26.603  27.258  1.00  0.00    -0.356 N 
ATOM     11  C   UNL A   1      31.808  25.510  26.509  1.00  0.00     0.227 C 
ATOM     12  O   UNL A   1      31.587  24.414  27.025  1.00  0.00    -0.274 OA
ATOM     13  H   UNL A   1      31.252  26.410  28.194  1.00  0.00     0.163 HD
BRANCH  11  14
ATOM     14  C   UNL A   1      32.444  25.700  25.123  1.00  0.00     0.063 C 
ATOM     15  H   UNL A   1      32.359  24.729  24.682  1.00  0.00     0.045 H 
BRANCH  14  16
ATOM     16  C   UNL A   1      33.920  26.099  25.188  1.00  0.00    -0.049 C 
ATOM     17  H   UNL A   1      34.103  26.900  24.503  1.00  0.00     0.024 H 
ATOM     18  H   UNL A   1      34.529  25.259  24.926  1.00  0.00     0.024 H 
ATOM     19  H   UNL A   1      34.159  26.417  26.181  1.00  0.00     0.024 H 
ENDBRANCH  14  16
BRANCH  14  20
ATOM     20  C   UNL A   1      31.713  26.694  24.235  1.00  0.00     0.000 A 
ATOM     21  C   UNL A   1      32.362  27.761  23.600  1.00  0.00    -0.052 A 
ATOM     22  C   UNL A   1      30.357  26.504  23.966  1.00  0.00     0.130 A 
ATOM     23  C   UNL A   1      31.656  28.615  22.749  1.00  0.00    -0.019 A 
ATOM     24  H   UNL A   1      33.369  27.917  23.761  1.00  0.00     0.063 H 
ATOM     25  C   UNL A   1      29.654  27.342  23.105  1.00  0.00     0.016 A 
ATOM     26  F   UNL A   1      29.705  25.471  24.519  1.00  0.00    -0.207 F 
ATOM     27  C   UNL A   1      30.303  28.401  22.480  1.00  0.00     0.122 A 
ATOM     28  H   UNL A   1      32.141  29.415  22.314  1.00  0.00     0.066 H 
ATOM     29  H   UNL A   1      28.650  27.178  22.932  1.00  0.00     0.069 H 
BRANCH  27  30
ATOM     30  O   UNL A   1      29.759  29.295  21.608  1.00  0.00    -0.490 OA
BRANCH  30  31
ATOM     31  C   UNL A   1      28.793  30.256  22.007  1.00  0.00     0.099 C 
ATOM     32  C   UNL A   1      28.976  30.890  23.384  1.00  0.00    -0.016 C 
ATOM     33  C   UNL A   1      28.556  31.398  21.022  1.00  0.00    -0.016 C 
ATOM     34  H   UNL A   1      27.938  29.613  22.040  1.00  0.00     0.074 H 
ATOM     35  C   UNL A   1      28.092  32.124  23.327  1.00  0.00    -0.050 C 
ATOM     36  H   UNL A   1      29.999  31.159  23.547  1.00  0.00     0.030 H 
ATOM     37  H   UNL A   1      28.716  30.229  24.184  1.00  0.00     0.030 H 
ATOM     38  C   UNL A   1      28.089  32.579  21.869  1.00  0.00    -0.050 C 
ATOM     39  H   UNL A   1      27.805  31.127  20.310  1.00  0.00     0.030 H 
ATOM     40  H   UNL A   1      29.441  31.633  20.468  1.00  0.00     0.030 H 
ATOM     41  H   UNL A   1      28.489  32.894  23.956  1.00  0.00     0.027 H 
ATOM     42  H   UNL A   1      27.101  31.912  23.673  1.00  0.00     0.027 H 
ATOM     43  H   UNL A   1      28.755  33.406  21.742  1.00  0.00     0.027 H 
ATOM     44  H   UNL A   1      27.109  32.892  21.573  1.00  0.00     0.027 H 
ENDBRANCH  30  31
ENDBRANCH  27  30
ENDBRANCH  14  20
ENDBRANCH  11  14
ENDBRANCH   7  10
ENDBRANCH   4   7
ENDBRANCH   1   4
BRANCH   1  45
ATOM     45  C   UNL A   1      31.791  30.713  25.990  1.00  0.00    -0.052 C 
ATOM     46  H   UNL A   1      30.953  30.053  26.086  1.00  0.00     0.027 H 
ATOM     47  H   UNL A   1      32.001  30.980  24.975  1.00  0.00     0.027 H 
BRANCH  45  48
ATOM     48  C   UNL A   1      31.457  32.015  26.718  1.00  0.00    -0.036 C 
ATOM     49  H   UNL A   1      30.757  31.793  27.497  1.00  0.00     0.028 H 
ATOM     50  H   UNL A   1      31.064  32.685  25.983  1.00  0.00     0.028 H 
BRANCH  48  51
ATOM     51  C   UNL A   1      32.659  32.713  27.344  1.00  0.00     0.018 C 
ATOM     52  H   UNL A   1      33.490  32.636  26.674  1.00  0.00     0.049 H 
ATOM     53  H   UNL A   1      32.870  32.236  28.278  1.00  0.00     0.049 H 
BRANCH  51  54
ATOM     54  N   UNL A   1      32.398  34.120  27.608  1.00  0.00    -0.352 N 
ATOM     55  C   UNL A   1      32.960  34.946  28.546  1.00  0.00     0.251 C 
ATOM     56  H   UNL A   1      31.721  34.538  27.029  1.00  0.00     0.163 HD
ATOM     57  O   UNL A   1      32.476  36.055  28.767  1.00  0.00    -0.269 OA
BRANCH  55  58
ATOM     58  C   UNL A   1      34.138  34.493  29.314  1.00  0.00     0.039 A 
ATOM     59  C   UNL A   1      33.948  33.978  30.598  1.00  0.00    -0.049 A 
ATOM     60  C   UNL A   1      35.423  34.566  28.767  1.00  0.00    -0.049 A 
ATOM     61  C   UNL A   1      35.038  33.468  31.306  1.00  0.00    -0.053 A 
ATOM     62  H   UNL A   1      33.008  33.975  31.022  1.00  0.00     0.063 H 
ATOM     63  C   UNL A   1      36.497  33.994  29.445  1.00  0.00    -0.053 A 
ATOM     64  H   UNL A   1      35.575  35.042  27.864  1.00  0.00     0.063 H 
ATOM     65  C   UNL A   1      36.313  33.431  30.716  1.00  0.00    -0.014 A 
ATOM     66  H   UNL A   1      34.906  33.115  32.267  1.00  0.00     0.063 H 
ATOM     67  H   UNL A   1      37.432  33.984  29.010  1.00  0.00     0.063 H 
BRANCH  65  68
ATOM     68  C   UNL A   1      37.452  32.767  31.402  1.00  0.00     0.031 A 
ATOM     69  C   UNL A   1      38.143  31.590  30.772  1.00  0.00     0.074 A 
ATOM     70  C   UNL A   1      37.816  33.188  32.630  1.00  0.00     0.049 A 
ATOM     71  N   UNL A   1      39.110  30.848  31.249  1.00  0.00    -0.248 NA
ATOM     72  C   UNL A   1      37.673  31.178  29.439  1.00  0.00    -0.034 C 
ATOM     73  C   UNL A   1      37.187  34.286  33.368  1.00  0.00    -0.036 A 
ATOM     74  N   UNL A   1      38.794  32.736  33.482  1.00  0.00    -0.354 N 
ATOM     75  C   UNL A   1      39.356  29.879  30.286  1.00  0.00     0.074 A 
ATOM     76  C   UNL A   1      38.410  30.099  29.213  1.00  0.00    -0.034 C 
ATOM     77  H   UNL A   1      36.959  31.616  28.837  1.00  0.00     0.065 H 
ATOM     78  C   UNL A   1      37.804  34.433  34.551  1.00  0.00    -0.036 A 
ATOM     79  H   UNL A   1      36.396  34.857  33.031  1.00  0.00     0.065 H 
ATOM     80  C   UNL A   1      38.841  33.414  34.676  1.00  0.00     0.049 A 
ATOM     81  H   UNL A   1      39.403  31.996  33.258  1.00  0.00     0.167 HD
ATOM     82  C   UNL A   1      40.299  28.907  30.290  1.00  0.00     0.037 A 
ATOM     83  H   UNL A   1      38.320  29.495  28.381  1.00  0.00     0.065 H 
ATOM     84  H   UNL A   1      37.580  35.150  35.258  1.00  0.00     0.065 H 
ATOM     85  C   UNL A   1      39.621  33.224  35.758  1.00  0.00     0.037 A 
ATOM     86  C   UNL A   1      41.257  28.711  31.347  1.00  0.00     0.049 A 
ATOM     87  C   UNL A   1      40.651  32.127  35.734  1.00  0.00     0.074 A 
ATOM     88  C   UNL A   1      42.302  27.805  31.403  1.00  0.00    -0.036 A 
ATOM     89  N   UNL A   1      41.283  29.425  32.535  1.00  0.00    -0.354 N 
ATOM     90  N   UNL A   1      40.933  31.275  34.778  1.00  0.00    -0.248 NA
ATOM     91  C   UNL A   1      41.475  31.964  36.941  1.00  0.00    -0.034 C 
ATOM     92  C   UNL A   1      42.924  27.930  32.649  1.00  0.00    -0.036 A 
ATOM     93  H   UNL A   1      42.576  27.150  30.654  1.00  0.00     0.065 H 
ATOM     94  C   UNL A   1      42.304  28.954  33.346  1.00  0.00     0.049 A 
ATOM     95  H   UNL A   1      40.668  30.158  32.768  1.00  0.00     0.167 HD
ATOM     96  C   UNL A   1      41.980  30.499  35.255  1.00  0.00     0.074 A 
ATOM     97  C   UNL A   1      42.300  30.995  36.577  1.00  0.00    -0.034 C 
ATOM     98  H   UNL A   1      41.423  32.473  37.838  1.00  0.00     0.065 H 
ATOM     99  H   UNL A   1      43.711  27.357  32.991  1.00  0.00     0.065 H 
ATOM    100  C   UNL A   1      42.616  29.463  34.657  1.00  0.00     0.037 A 
ATOM    101  H   UNL A   1      43.073  30.638  37.160  1.00  0.00     0.065 H 
BRANCH  82 102
ATOM    102  C   UNL A   1      40.357  27.973  29.117  1.00  0.00     0.064 A 
ATOM    103  C   UNL A   1      39.598  26.794  29.077  1.00  0.00     0.173 A 
ATOM    104  C   UNL A   1      41.108  28.309  27.980  1.00  0.00     0.173 A 
ATOM    105  F   UNL A   1      38.869  26.424  30.141  1.00  0.00    -0.203 F 
ATOM    106  C   UNL A   1      39.597  25.982  27.946  1.00  0.00     0.198 A 
ATOM    107  C   UNL A   1      41.082  27.509  26.841  1.00  0.00     0.198 A 
ATOM    108  F   UNL A   1      41.846  29.430  27.964  1.00  0.00    -0.203 F 
ATOM    109  F   UNL A   1      38.885  24.846  27.940  1.00  0.00    -0.200 F 
ATOM    110  C   UNL A   1      40.329  26.346  26.826  1.00  0.00     0.200 A 
ATOM    111  F   UNL A   1      41.778  27.871  25.755  1.00  0.00    -0.200 F 
ATOM    112  F   UNL A   1      40.309  25.573  25.730  1.00  0.00    -0.200 F 
ENDBRANCH  82 102
BRANCH  85 113
ATOM    113  C   UNL A   1      39.460  34.084  36.962  1.00  0.00     0.064 A 
ATOM    114  C   UNL A   1      40.097  35.330  37.051  1.00  0.00     0.173 A 
ATOM    115  C   UNL A   1      38.704  33.659  38.064  1.00  0.00     0.173 A 
ATOM    116  F   UNL A   1      40.848  35.772  36.033  1.00  0.00    -0.203 F 
ATOM    117  C   UNL A   1      40.014  36.099  38.210  1.00  0.00     0.198 A 
ATOM    118  C   UNL A   1      38.593  34.446  39.209  1.00  0.00     0.198 A 
ATOM    119  F   UNL A   1      38.070  32.478  38.030  1.00  0.00    -0.203 F 
ATOM    120  F   UNL A   1      40.689  37.255  38.293  1.00  0.00    -0.200 F 
ATOM    121  C   UNL A   1      39.260  35.659  39.287  1.00  0.00     0.200 A 
ATOM    122  F   UNL A   1      37.850  34.022  40.241  1.00  0.00    -0.200 F 
ATOM    123  F   UNL A   1      39.186  36.396  40.403  1.00  0.00    -0.200 F 
ENDBRANCH  85 113
BRANCH 100 124
ATOM    124  C   UNL A   1      43.740  28.815  35.412  1.00  0.00     0.064 A 
ATOM    125  C   UNL A   1      45.072  29.214  35.234  1.00  0.00     0.173 A 
ATOM    126  C   UNL A   1      43.477  27.803  36.349  1.00  0.00     0.173 A 
ATOM    127  F   UNL A   1      45.378  30.166  34.339  1.00  0.00    -0.203 F 
ATOM    128  C   UNL A   1      46.103  28.606  35.946  1.00  0.00     0.198 A 
ATOM    129  C   UNL A   1      44.506  27.221  37.083  1.00  0.00     0.198 A 
ATOM    130  F   UNL A   1      42.219  27.388  36.563  1.00  0.00    -0.203 F 
ATOM    131  F   UNL A   1      47.374  28.967  35.720  1.00  0.00    -0.200 F 
ATOM    132  C   UNL A   1      45.819  27.616  36.875  1.00  0.00     0.200 A 
ATOM    133  F   UNL A   1      44.228  26.276  37.992  1.00  0.00    -0.200 F 
ATOM    134  F   UNL A   1      46.812  27.038  37.564  1.00  0.00    -0.200 F 
ENDBRANCH 100 124
ENDBRANCH  65  68
ENDBRANCH  55  58
ENDBRANCH  51  54
ENDBRANCH  48  51
ENDBRANCH  45  48
ENDBRANCH   1  45
TORSDOF 17
ENDMDL
MODEL 3
REMARK VINA RESULT:     -11.9      1.858      3.100
REMARK SMILES C[C@@H](C(=O)NCCCCCCNC(=O)c1ccc(-c2c3nc(c(-c4c(F)c(F)c(F)c(F)c4F)c4ccc([nH]4)c(-c4c(F)c(F)c(F)c(F)c4F)c4nc(c(-c5c(F)c(F)c(F)c(F)c5F)c5ccc2[nH]5)C=C4)C=C3)cc1)c1ccc(OC2CCCC2)cc1F
REMARK SMILES IDX 8 1 7 4 6 7 5 10 3 11 4 12 2 14 1 16 78 20 79 21 89 22 80 23
REMARK SMILES IDX 88 25 90 26 81 27 82 30 83 31 84 32 87 33 85 35 86 38 9 45
REMARK SMILES IDX 10 48 11 51 12 54 13 55 14 57 15 58 16 59 77 60 17 61 76 63
REMARK SMILES IDX 18 65 19 68 20 69 70 70 21 71 75 72 69 73 71 74 22 75 74 76
REMARK SMILES IDX 68 78 67 80 23 82 55 85 35 86 54 87 36 88 39 89 53 90 72 91
REMARK SMILES IDX 37 92 38 94 52 96 73 97 40 100 24 102 25 103 33 104 26 105
REMARK SMILES IDX 27 106 31 107 34 108 28 109 29 110 32 111 30 112 56 113
REMARK SMILES IDX 57 114 65 115 58 116 59 117 63 118 66 119 60 120 61 121
REMARK SMILES IDX 64 122 62 123 41 124 42 125 50 126 43 127 44 128 48 129
REMARK SMILES IDX 51 130 45 131 46 132 49 133 47 134
REMARK H PARENT 8 2 8 3 7 5 7 6 6 8 6 9 5 13 2 15 1 17 1 18 1 19 79 24 80 28
REMARK H PARENT 88 29 83 34 84 36 84 37 87 39 87 40 85 41 85 42 86 43 86 44
REMARK H PARENT 9 46 9 47 10 49 10 50 11 52 11 53 12 56 16 62 77 64 17 66
REMARK H PARENT 76 67 75 77 69 79 71 81 74 83 68 84 36 93 39 95 72 98 37 99
REMARK H PARENT 73 101
REMARK Flexibility Score: inf
ROOT
ATOM      1  C   UNL A   1      33.887  26.594  25.524  1.00  0.00    -0.052 C 
ATOM      2  H   UNL A   1      34.281  27.177  26.329  1.00  0.00     0.027 H 
ATOM      3  H   UNL A   1      32.891  26.242  25.702  1.00  0.00     0.027 H 
ENDROOT
BRANCH   1   4
ATOM      4  C   UNL A   1      34.763  25.343  25.367  1.00  0.00    -0.036 C 
ATOM      5  H   UNL A   1      35.419  25.495  24.536  1.00  0.00     0.028 H 
ATOM      6  H   UNL A   1      35.288  25.216  26.291  1.00  0.00     0.028 H 
BRANCH   4   7
ATOM      7  C   UNL A   1      33.973  24.055  25.127  1.00  0.00     0.017 C 
ATOM      8  H   UNL A   1      33.438  24.136  24.204  1.00  0.00     0.049 H 
ATOM      9  H   UNL A   1      34.655  23.232  25.084  1.00  0.00     0.049 H 
BRANCH   7  10
ATOM     10  N   UNL A   1      33.034  23.834  26.205  1.00  0.00    -0.356 N 
ATOM     11  C   UNL A   1      31.672  23.762  26.184  1.00  0.00     0.227 C 
ATOM     12  O   UNL A   1      31.113  23.747  27.280  1.00  0.00    -0.274 OA
ATOM     13  H   UNL A   1      33.442  23.716  27.093  1.00  0.00     0.163 HD
BRANCH  11  14
ATOM     14  C   UNL A   1      30.939  23.667  24.838  1.00  0.00     0.063 C 
ATOM     15  H   UNL A   1      29.980  23.279  25.111  1.00  0.00     0.045 H 
BRANCH  14  16
ATOM     16  C   UNL A   1      31.611  22.708  23.852  1.00  0.00    -0.049 C 
ATOM     17  H   UNL A   1      32.623  23.015  23.691  1.00  0.00     0.024 H 
ATOM     18  H   UNL A   1      31.081  22.724  22.922  1.00  0.00     0.024 H 
ATOM     19  H   UNL A   1      31.596  21.717  24.254  1.00  0.00     0.024 H 
ENDBRANCH  14  16
BRANCH  14  20
ATOM     20  C   UNL A   1      30.733  25.005  24.145  1.00  0.00     0.000 A 
ATOM     21  C   UNL A   1      31.308  25.312  22.905  1.00  0.00    -0.052 A 
ATOM     22  C   UNL A   1      29.875  25.947  24.717  1.00  0.00     0.130 A 
ATOM     23  C   UNL A   1      31.043  26.535  22.285  1.00  0.00    -0.019 A 
ATOM     24  H   UNL A   1      31.930  24.629  22.446  1.00  0.00     0.063 H 
ATOM     25  C   UNL A   1      29.596  27.160  24.093  1.00  0.00     0.016 A 
ATOM     26  F   UNL A   1      29.271  25.679  25.883  1.00  0.00    -0.207 F 
ATOM     27  C   UNL A   1      30.171  27.459  22.863  1.00  0.00     0.122 A 
ATOM     28  H   UNL A   1      31.500  26.759  21.387  1.00  0.00     0.066 H 
ATOM     29  H   UNL A   1      28.962  27.838  24.544  1.00  0.00     0.069 H 
BRANCH  27  30
ATOM     30  O   UNL A   1      29.988  28.590  22.127  1.00  0.00    -0.490 OA
BRANCH  30  31
ATOM     31  C   UNL A   1      29.051  29.593  22.492  1.00  0.00     0.099 C 
ATOM     32  C   UNL A   1      29.460  30.545  23.614  1.00  0.00    -0.016 C 
ATOM     33  C   UNL A   1      28.532  30.457  21.345  1.00  0.00    -0.016 C 
ATOM     34  H   UNL A   1      28.273  28.955  22.856  1.00  0.00     0.074 H 
ATOM     35  C   UNL A   1      28.490  31.705  23.466  1.00  0.00    -0.050 C 
ATOM     36  H   UNL A   1      30.470  30.874  23.487  1.00  0.00     0.030 H 
ATOM     37  H   UNL A   1      29.420  30.090  24.581  1.00  0.00     0.030 H 
ATOM     38  C   UNL A   1      28.156  31.794  21.978  1.00  0.00    -0.050 C 
ATOM     39  H   UNL A   1      27.675  30.002  20.894  1.00  0.00     0.030 H 
ATOM     40  H   UNL A   1      29.265  30.575  20.575  1.00  0.00     0.030 H 
ATOM     41  H   UNL A   1      28.945  32.615  23.800  1.00  0.00     0.027 H 
ATOM     42  H   UNL A   1      27.609  31.556  24.056  1.00  0.00     0.027 H 
ATOM     43  H   UNL A   1      28.717  32.584  21.524  1.00  0.00     0.027 H 
ATOM     44  H   UNL A   1      27.115  32.000  21.837  1.00  0.00     0.027 H 
ENDBRANCH  30  31
ENDBRANCH  27  30
ENDBRANCH  14  20
ENDBRANCH  11  14
ENDBRANCH   7  10
ENDBRANCH   4   7
ENDBRANCH   1   4
BRANCH   1  45
ATOM     45  C   UNL A   1      33.809  27.487  24.283  1.00  0.00    -0.052 C 
ATOM     46  H   UNL A   1      33.172  27.008  23.567  1.00  0.00     0.027 H 
ATOM     47  H   UNL A   1      34.813  27.611  23.936  1.00  0.00     0.027 H 
BRANCH  45  48
ATOM     48  C   UNL A   1      33.263  28.893  24.540  1.00  0.00    -0.036 C 
ATOM     49  H   UNL A   1      32.479  29.080  23.836  1.00  0.00     0.028 H 
ATOM     50  H   UNL A   1      34.089  29.565  24.433  1.00  0.00     0.028 H 
BRANCH  48  51
ATOM     51  C   UNL A   1      32.706  29.106  25.943  1.00  0.00     0.018 C 
ATOM     52  H   UNL A   1      33.429  28.767  26.656  1.00  0.00     0.049 H 
ATOM     53  H   UNL A   1      31.794  28.554  26.024  1.00  0.00     0.049 H 
BRANCH  51  54
ATOM     54  N   UNL A   1      32.408  30.505  26.205  1.00  0.00    -0.352 N 
ATOM     55  C   UNL A   1      33.060  31.393  27.021  1.00  0.00     0.251 C 
ATOM     56  H   UNL A   1      31.627  30.866  25.727  1.00  0.00     0.163 HD
ATOM     57  O   UNL A   1      32.552  32.482  27.284  1.00  0.00    -0.269 OA
BRANCH  55  58
ATOM     58  C   UNL A   1      34.365  31.031  27.610  1.00  0.00     0.039 A 
ATOM     59  C   UNL A   1      35.327  32.028  27.785  1.00  0.00    -0.049 A 
ATOM     60  C   UNL A   1      34.636  29.715  27.998  1.00  0.00    -0.049 A 
ATOM     61  C   UNL A   1      36.533  31.721  28.416  1.00  0.00    -0.053 A 
ATOM     62  H   UNL A   1      35.146  32.986  27.449  1.00  0.00     0.063 H 
ATOM     63  C   UNL A   1      35.810  29.425  28.689  1.00  0.00    -0.053 A 
ATOM     64  H   UNL A   1      33.969  28.960  27.772  1.00  0.00     0.063 H 
ATOM     65  C   UNL A   1      36.765  30.427  28.913  1.00  0.00    -0.014 A 
ATOM     66  H   UNL A   1      37.258  32.449  28.519  1.00  0.00     0.063 H 
ATOM     67  H   UNL A   1      35.978  28.468  29.038  1.00  0.00     0.063 H 
BRANCH  65  68
ATOM     68  C   UNL A   1      37.984  30.122  29.707  1.00  0.00     0.031 A 
ATOM     69  C   UNL A   1      39.019  29.167  29.181  1.00  0.00     0.074 A 
ATOM     70  C   UNL A   1      38.120  30.659  30.936  1.00  0.00     0.049 A 
ATOM     71  N   UNL A   1      40.111  28.734  29.759  1.00  0.00    -0.248 NA
ATOM     72  C   UNL A   1      38.788  28.608  27.840  1.00  0.00    -0.034 C 
ATOM     73  C   UNL A   1      37.157  31.559  31.576  1.00  0.00    -0.036 A 
ATOM     74  N   UNL A   1      39.113  30.516  31.874  1.00  0.00    -0.354 N 
ATOM     75  C   UNL A   1      40.689  27.847  28.862  1.00  0.00     0.074 A 
ATOM     76  C   UNL A   1      39.808  27.769  27.716  1.00  0.00    -0.034 C 
ATOM     77  H   UNL A   1      38.031  28.815  27.170  1.00  0.00     0.065 H 
ATOM     78  C   UNL A   1      37.614  31.900  32.792  1.00  0.00    -0.036 A 
ATOM     79  H   UNL A   1      36.270  31.879  31.160  1.00  0.00     0.065 H 
ATOM     80  C   UNL A   1      38.876  31.212  33.036  1.00  0.00     0.049 A 
ATOM     81  H   UNL A   1      39.917  29.969  31.728  1.00  0.00     0.167 HD
ATOM     82  C   UNL A   1      41.859  27.174  28.976  1.00  0.00     0.037 A 
ATOM     83  H   UNL A   1      39.954  27.143  26.909  1.00  0.00     0.065 H 
ATOM     84  H   UNL A   1      37.146  32.545  33.448  1.00  0.00     0.065 H 
ATOM     85  C   UNL A   1      39.590  31.272  34.177  1.00  0.00     0.037 A 
ATOM     86  C   UNL A   1      42.747  27.278  30.105  1.00  0.00     0.049 A 
ATOM     87  C   UNL A   1      40.880  30.503  34.276  1.00  0.00     0.074 A 
ATOM     88  C   UNL A   1      43.992  26.698  30.276  1.00  0.00    -0.036 A 
ATOM     89  N   UNL A   1      42.481  28.002  31.258  1.00  0.00    -0.354 N 
ATOM     90  N   UNL A   1      41.460  29.738  33.383  1.00  0.00    -0.248 NA
ATOM     91  C   UNL A   1      41.617  30.605  35.544  1.00  0.00    -0.034 C 
ATOM     92  C   UNL A   1      44.455  27.022  31.555  1.00  0.00    -0.036 A 
ATOM     93  H   UNL A   1      44.493  26.126  29.579  1.00  0.00     0.065 H 
ATOM     94  C   UNL A   1      43.524  27.852  32.159  1.00  0.00     0.049 A 
ATOM     95  H   UNL A   1      41.672  28.541  31.414  1.00  0.00     0.167 HD
ATOM     96  C   UNL A   1      42.638  29.294  33.967  1.00  0.00     0.074 A 
ATOM     97  C   UNL A   1      42.703  29.893  35.283  1.00  0.00    -0.034 C 
ATOM     98  H   UNL A   1      41.357  31.103  36.410  1.00  0.00     0.065 H 
ATOM     99  H   UNL A   1      45.339  26.698  31.978  1.00  0.00     0.065 H 
ATOM    100  C   UNL A   1      43.579  28.460  33.463  1.00  0.00     0.037 A 
ATOM    101  H   UNL A   1      43.495  29.779  35.935  1.00  0.00     0.065 H 
BRANCH  82 102
ATOM    102  C   UNL A   1      42.264  26.263  27.855  1.00  0.00     0.064 A 
ATOM    103  C   UNL A   1      41.726  24.975  27.723  1.00  0.00     0.173 A 
ATOM    104  C   UNL A   1      43.129  26.720  26.848  1.00  0.00     0.173 A 
ATOM    105  F   UNL A   1      40.901  24.488  28.662  1.00  0.00    -0.203 F 
ATOM    106  C   UNL A   1      42.047  24.173  26.630  1.00  0.00     0.198 A 
ATOM    107  C   UNL A   1      43.425  25.927  25.743  1.00  0.00     0.198 A 
ATOM    108  F   UNL A   1      43.666  27.948  26.923  1.00  0.00    -0.203 F 
ATOM    109  F   UNL A   1      41.542  22.936  26.538  1.00  0.00    -0.200 F 
ATOM    110  C   UNL A   1      42.886  24.655  25.636  1.00  0.00     0.200 A 
ATOM    111  F   UNL A   1      44.224  26.400  24.776  1.00  0.00    -0.200 F 
ATOM    112  F   UNL A   1      43.175  23.890  24.573  1.00  0.00    -0.200 F 
ENDBRANCH  82 102
BRANCH  85 113
ATOM    113  C   UNL A   1      39.104  32.084  35.326  1.00  0.00     0.064 A 
ATOM    114  C   UNL A   1      39.412  33.448  35.429  1.00  0.00     0.173 A 
ATOM    115  C   UNL A   1      38.361  31.505  36.365  1.00  0.00     0.173 A 
ATOM    116  F   UNL A   1      40.137  34.045  34.472  1.00  0.00    -0.203 F 
ATOM    117  C   UNL A   1      39.028  34.191  36.544  1.00  0.00     0.198 A 
ATOM    118  C   UNL A   1      37.947  32.258  37.462  1.00  0.00     0.198 A 
ATOM    119  F   UNL A   1      38.035  30.205  36.314  1.00  0.00    -0.203 F 
ATOM    120  F   UNL A   1      39.395  35.476  36.648  1.00  0.00    -0.200 F 
ATOM    121  C   UNL A   1      38.293  33.597  37.558  1.00  0.00     0.200 A 
ATOM    122  F   UNL A   1      37.224  31.681  38.432  1.00  0.00    -0.200 F 
ATOM    123  F   UNL A   1      37.930  34.310  38.632  1.00  0.00    -0.200 F 
ENDBRANCH  85 113
BRANCH 100 124
ATOM    124  C   UNL A   1      44.773  28.167  34.324  1.00  0.00     0.064 A 
ATOM    125  C   UNL A   1      45.907  28.992  34.314  1.00  0.00     0.173 A 
ATOM    126  C   UNL A   1      44.771  27.066  35.195  1.00  0.00     0.173 A 
ATOM    127  F   UNL A   1      45.966  30.049  33.489  1.00  0.00    -0.203 F 
ATOM    128  C   UNL A   1      47.006  28.710  35.122  1.00  0.00     0.198 A 
ATOM    129  C   UNL A   1      45.856  26.806  36.025  1.00  0.00     0.198 A 
ATOM    130  F   UNL A   1      43.708  26.248  35.248  1.00  0.00    -0.203 F 
ATOM    131  F   UNL A   1      48.099  29.483  35.057  1.00  0.00    -0.200 F 
ATOM    132  C   UNL A   1      46.976  27.623  35.982  1.00  0.00     0.200 A 
ATOM    133  F   UNL A   1      45.820  25.764  36.868  1.00  0.00    -0.200 F 
ATOM    134  F   UNL A   1      48.031  27.358  36.765  1.00  0.00    -0.200 F 
ENDBRANCH 100 124
ENDBRANCH  65  68
ENDBRANCH  55  58
ENDBRANCH  51  54
ENDBRANCH  48  51
ENDBRANCH  45  48
ENDBRANCH   1  45
TORSDOF 17
ENDMDL
MODEL 4
REMARK VINA RESULT:     -11.9      2.043      4.380
REMARK SMILES C[C@@H](C(=O)NCCCCCCNC(=O)c1ccc(-c2c3nc(c(-c4c(F)c(F)c(F)c(F)c4F)c4ccc([nH]4)c(-c4c(F)c(F)c(F)c(F)c4F)c4nc(c(-c5c(F)c(F)c(F)c(F)c5F)c5ccc2[nH]5)C=C4)C=C3)cc1)c1ccc(OC2CCCC2)cc1F
REMARK SMILES IDX 8 1 7 4 6 7 5 10 3 11 4 12 2 14 1 16 78 20 79 21 89 22 80 23
REMARK SMILES IDX 88 25 90 26 81 27 82 30 83 31 84 32 87 33 85 35 86 38 9 45
REMARK SMILES IDX 10 48 11 51 12 54 13 55 14 57 15 58 16 59 77 60 17 61 76 63
REMARK SMILES IDX 18 65 19 68 20 69 70 70 21 71 75 72 69 73 71 74 22 75 74 76
REMARK SMILES IDX 68 78 67 80 23 82 55 85 35 86 54 87 36 88 39 89 53 90 72 91
REMARK SMILES IDX 37 92 38 94 52 96 73 97 40 100 24 102 25 103 33 104 26 105
REMARK SMILES IDX 27 106 31 107 34 108 28 109 29 110 32 111 30 112 56 113
REMARK SMILES IDX 57 114 65 115 58 116 59 117 63 118 66 119 60 120 61 121
REMARK SMILES IDX 64 122 62 123 41 124 42 125 50 126 43 127 44 128 48 129
REMARK SMILES IDX 51 130 45 131 46 132 49 133 47 134
REMARK H PARENT 8 2 8 3 7 5 7 6 6 8 6 9 5 13 2 15 1 17 1 18 1 19 79 24 80 28
REMARK H PARENT 88 29 83 34 84 36 84 37 87 39 87 40 85 41 85 42 86 43 86 44
REMARK H PARENT 9 46 9 47 10 49 10 50 11 52 11 53 12 56 16 62 77 64 17 66
REMARK H PARENT 76 67 75 77 69 79 71 81 74 83 68 84 36 93 39 95 72 98 37 99
REMARK H PARENT 73 101
REMARK Flexibility Score: inf
ROOT
ATOM      1  C   UNL A   1      32.316  29.733  27.135  1.00  0.00    -0.052 C 
ATOM      2  H   UNL A   1      32.328  30.218  28.088  1.00  0.00     0.027 H 
ATOM      3  H   UNL A   1      31.706  28.853  27.113  1.00  0.00     0.027 H 
ENDROOT
BRANCH   1   4
ATOM      4  C   UNL A   1      33.745  29.272  26.817  1.00  0.00    -0.036 C 
ATOM      5  H   UNL A   1      34.186  29.981  26.148  1.00  0.00     0.028 H 
ATOM      6  H   UNL A   1      34.263  29.206  27.751  1.00  0.00     0.028 H 
BRANCH   4   7
ATOM      7  C   UNL A   1      33.824  27.888  26.169  1.00  0.00     0.017 C 
ATOM      8  H   UNL A   1      33.785  27.993  25.106  1.00  0.00     0.049 H 
ATOM      9  H   UNL A   1      34.743  27.421  26.457  1.00  0.00     0.049 H 
BRANCH   7  10
ATOM     10  N   UNL A   1      32.719  27.064  26.609  1.00  0.00    -0.356 N 
ATOM     11  C   UNL A   1      32.430  25.761  26.333  1.00  0.00     0.227 C 
ATOM     12  O   UNL A   1      31.323  25.362  26.694  1.00  0.00    -0.274 OA
ATOM     13  H   UNL A   1      32.075  27.516  27.200  1.00  0.00     0.163 HD
BRANCH  11  14
ATOM     14  C   UNL A   1      33.484  24.879  25.646  1.00  0.00     0.063 C 
ATOM     15  H   UNL A   1      34.325  24.951  26.302  1.00  0.00     0.045 H 
BRANCH  14  16
ATOM     16  C   UNL A   1      33.880  25.386  24.257  1.00  0.00    -0.049 C 
ATOM     17  H   UNL A   1      34.138  24.555  23.635  1.00  0.00     0.024 H 
ATOM     18  H   UNL A   1      34.721  26.043  24.344  1.00  0.00     0.024 H 
ATOM     19  H   UNL A   1      33.058  25.915  23.824  1.00  0.00     0.024 H 
ENDBRANCH  14  16
BRANCH  14  20
ATOM     20  C   UNL A   1      33.091  23.415  25.532  1.00  0.00     0.000 A 
ATOM     21  C   UNL A   1      32.338  22.915  24.461  1.00  0.00    -0.052 A 
ATOM     22  C   UNL A   1      33.558  22.504  26.481  1.00  0.00     0.130 A 
ATOM     23  C   UNL A   1      32.049  21.551  24.374  1.00  0.00    -0.019 A 
ATOM     24  H   UNL A   1      31.995  23.558  23.732  1.00  0.00     0.063 H 
ATOM     25  C   UNL A   1      33.287  21.142  26.388  1.00  0.00     0.016 A 
ATOM     26  F   UNL A   1      34.317  22.932  27.500  1.00  0.00    -0.207 F 
ATOM     27  C   UNL A   1      32.538  20.652  25.324  1.00  0.00     0.122 A 
ATOM     28  H   UNL A   1      31.467  21.203  23.597  1.00  0.00     0.066 H 
ATOM     29  H   UNL A   1      33.643  20.495  27.109  1.00  0.00     0.069 H 
BRANCH  27  30
ATOM     30  O   UNL A   1      32.201  19.353  25.089  1.00  0.00    -0.490 OA
BRANCH  30  31
ATOM     31  C   UNL A   1      33.175  18.331  24.931  1.00  0.00     0.099 C 
ATOM     32  C   UNL A   1      32.929  17.022  25.678  1.00  0.00    -0.016 C 
ATOM     33  C   UNL A   1      33.512  17.962  23.489  1.00  0.00    -0.016 C 
ATOM     34  H   UNL A   1      34.002  18.832  25.388  1.00  0.00     0.074 H 
ATOM     35  C   UNL A   1      33.858  16.039  24.987  1.00  0.00    -0.050 C 
ATOM     36  H   UNL A   1      31.908  16.715  25.584  1.00  0.00     0.030 H 
ATOM     37  H   UNL A   1      33.114  17.101  26.729  1.00  0.00     0.030 H 
ATOM     38  C   UNL A   1      33.968  16.505  23.536  1.00  0.00    -0.050 C 
ATOM     39  H   UNL A   1      34.297  18.588  23.118  1.00  0.00     0.030 H 
ATOM     40  H   UNL A   1      32.673  18.094  22.839  1.00  0.00     0.030 H 
ATOM     41  H   UNL A   1      33.450  15.050  25.029  1.00  0.00     0.027 H 
ATOM     42  H   UNL A   1      34.817  16.007  25.461  1.00  0.00     0.027 H 
ATOM     43  H   UNL A   1      33.340  15.906  22.910  1.00  0.00     0.027 H 
ATOM     44  H   UNL A   1      34.975  16.413  23.185  1.00  0.00     0.027 H 
ENDBRANCH  30  31
ENDBRANCH  27  30
ENDBRANCH  14  20
ENDBRANCH  11  14
ENDBRANCH   7  10
ENDBRANCH   4   7
ENDBRANCH   1   4
BRANCH   1  45
ATOM     45  C   UNL A   1      31.708  30.701  26.116  1.00  0.00    -0.052 C 
ATOM     46  H   UNL A   1      30.782  30.287  25.774  1.00  0.00     0.027 H 
ATOM     47  H   UNL A   1      32.432  30.812  25.335  1.00  0.00     0.027 H 
BRANCH  45  48
ATOM     48  C   UNL A   1      31.432  32.105  26.654  1.00  0.00    -0.036 C 
ATOM     49  H   UNL A   1      30.635  32.040  27.364  1.00  0.00     0.028 H 
ATOM     50  H   UNL A   1      31.190  32.714  25.808  1.00  0.00     0.028 H 
BRANCH  48  51
ATOM     51  C   UNL A   1      32.626  32.765  27.336  1.00  0.00     0.018 C 
ATOM     52  H   UNL A   1      33.475  32.694  26.689  1.00  0.00     0.049 H 
ATOM     53  H   UNL A   1      32.801  32.256  28.260  1.00  0.00     0.049 H 
BRANCH  51  54
ATOM     54  N   UNL A   1      32.378  34.166  27.636  1.00  0.00    -0.352 N 
ATOM     55  C   UNL A   1      32.962  34.968  28.581  1.00  0.00     0.251 C 
ATOM     56  H   UNL A   1      31.692  34.601  27.079  1.00  0.00     0.163 HD
ATOM     57  O   UNL A   1      32.488  36.074  28.836  1.00  0.00    -0.269 OA
BRANCH  55  58
ATOM     58  C   UNL A   1      34.150  34.491  29.318  1.00  0.00     0.039 A 
ATOM     59  C   UNL A   1      33.972  33.862  30.552  1.00  0.00    -0.049 A 
ATOM     60  C   UNL A   1      35.435  34.655  28.790  1.00  0.00    -0.049 A 
ATOM     61  C   UNL A   1      35.074  33.331  31.222  1.00  0.00    -0.053 A 
ATOM     62  H   UNL A   1      33.029  33.791  30.965  1.00  0.00     0.063 H 
ATOM     63  C   UNL A   1      36.525  34.065  29.426  1.00  0.00    -0.053 A 
ATOM     64  H   UNL A   1      35.575  35.212  27.933  1.00  0.00     0.063 H 
ATOM     65  C   UNL A   1      36.353  33.389  30.642  1.00  0.00    -0.014 A 
ATOM     66  H   UNL A   1      34.950  32.893  32.148  1.00  0.00     0.063 H 
ATOM     67  H   UNL A   1      37.462  34.125  28.999  1.00  0.00     0.063 H 
BRANCH  65  68
ATOM     68  C   UNL A   1      37.511  32.708  31.279  1.00  0.00     0.031 A 
ATOM     69  C   UNL A   1      38.175  31.539  30.605  1.00  0.00     0.074 A 
ATOM     70  C   UNL A   1      37.917  33.106  32.500  1.00  0.00     0.049 A 
ATOM     71  N   UNL A   1      39.153  30.785  31.037  1.00  0.00    -0.248 NA
ATOM     72  C   UNL A   1      37.660  31.153  29.282  1.00  0.00    -0.034 C 
ATOM     73  C   UNL A   1      37.319  34.194  33.278  1.00  0.00    -0.036 A 
ATOM     74  N   UNL A   1      38.921  32.634  33.311  1.00  0.00    -0.354 N 
ATOM     75  C   UNL A   1      39.363  29.832  30.050  1.00  0.00     0.074 A 
ATOM     76  C   UNL A   1      38.383  30.074  29.013  1.00  0.00    -0.034 C 
ATOM     77  H   UNL A   1      36.928  31.604  28.712  1.00  0.00     0.065 H 
ATOM     78  C   UNL A   1      37.975  34.317  34.442  1.00  0.00    -0.036 A 
ATOM     79  H   UNL A   1      36.520  34.773  32.978  1.00  0.00     0.065 H 
ATOM     80  C   UNL A   1      39.010  33.292  34.515  1.00  0.00     0.049 A 
ATOM     81  H   UNL A   1      39.519  31.896  33.055  1.00  0.00     0.167 HD
ATOM     82  C   UNL A   1      40.301  28.856  30.006  1.00  0.00     0.037 A 
ATOM     83  H   UNL A   1      38.263  29.485  28.174  1.00  0.00     0.065 H 
ATOM     84  H   UNL A   1      37.778  35.022  35.169  1.00  0.00     0.065 H 
ATOM     85  C   UNL A   1      39.825  33.079  35.567  1.00  0.00     0.037 A 
ATOM     86  C   UNL A   1      41.292  28.637  31.027  1.00  0.00     0.049 A 
ATOM     87  C   UNL A   1      40.848  31.978  35.490  1.00  0.00     0.074 A 
ATOM     88  C   UNL A   1      42.334  27.726  31.032  1.00  0.00    -0.036 A 
ATOM     89  N   UNL A   1      41.361  29.330  32.225  1.00  0.00    -0.354 N 
ATOM     90  N   UNL A   1      41.094  31.141  34.511  1.00  0.00    -0.248 NA
ATOM     91  C   UNL A   1      41.711  31.791  36.666  1.00  0.00    -0.034 C 
ATOM     92  C   UNL A   1      42.998  27.826  32.259  1.00  0.00    -0.036 A 
ATOM     93  H   UNL A   1      42.579  27.083  30.263  1.00  0.00     0.065 H 
ATOM     94  C   UNL A   1      42.406  28.840  32.993  1.00  0.00     0.049 A 
ATOM     95  H   UNL A   1      40.758  30.061  32.492  1.00  0.00     0.167 HD
ATOM     96  C   UNL A   1      42.153  30.353  34.939  1.00  0.00     0.074 A 
ATOM     97  C   UNL A   1      42.518  30.824  36.258  1.00  0.00    -0.034 C 
ATOM     98  H   UNL A   1      41.692  32.284  37.573  1.00  0.00     0.065 H 
ATOM     99  H   UNL A   1      43.793  27.243  32.565  1.00  0.00     0.065 H 
ATOM    100  C   UNL A   1      42.763  29.324  34.302  1.00  0.00     0.037 A 
ATOM    101  H   UNL A   1      43.308  30.454  36.809  1.00  0.00     0.065 H 
BRANCH  82 102
ATOM    102  C   UNL A   1      40.315  27.942  28.815  1.00  0.00     0.064 A 
ATOM    103  C   UNL A   1      41.061  28.243  27.666  1.00  0.00     0.173 A 
ATOM    104  C   UNL A   1      39.651  26.707  28.862  1.00  0.00     0.173 A 
ATOM    105  F   UNL A   1      41.708  29.413  27.568  1.00  0.00    -0.203 F 
ATOM    106  C   UNL A   1      41.133  27.344  26.604  1.00  0.00     0.198 A 
ATOM    107  C   UNL A   1      39.747  25.800  27.811  1.00  0.00     0.198 A 
ATOM    108  F   UNL A   1      38.928  26.368  29.942  1.00  0.00    -0.203 F 
ATOM    109  F   UNL A   1      41.830  27.664  25.505  1.00  0.00    -0.200 F 
ATOM    110  C   UNL A   1      40.485  26.120  26.682  1.00  0.00     0.200 A 
ATOM    111  F   UNL A   1      39.133  24.612  27.895  1.00  0.00    -0.200 F 
ATOM    112  F   UNL A   1      40.574  25.248  25.668  1.00  0.00    -0.200 F 
ENDBRANCH  82 102
BRANCH  85 113
ATOM    113  C   UNL A   1      39.708  33.918  36.791  1.00  0.00     0.064 A 
ATOM    114  C   UNL A   1      38.897  33.521  37.864  1.00  0.00     0.173 A 
ATOM    115  C   UNL A   1      40.368  35.151  36.895  1.00  0.00     0.173 A 
ATOM    116  F   UNL A   1      38.228  32.361  37.805  1.00  0.00    -0.203 F 
ATOM    117  C   UNL A   1      38.721  34.343  38.975  1.00  0.00     0.198 A 
ATOM    118  C   UNL A   1      40.219  35.955  38.023  1.00  0.00     0.198 A 
ATOM    119  F   UNL A   1      41.160  35.576  35.900  1.00  0.00    -0.203 F 
ATOM    120  F   UNL A   1      37.886  33.970  39.956  1.00  0.00    -0.200 F 
ATOM    121  C   UNL A   1      39.384  35.558  39.056  1.00  0.00     0.200 A 
ATOM    122  F   UNL A   1      40.874  37.122  38.102  1.00  0.00    -0.200 F 
ATOM    123  F   UNL A   1      39.210  36.350  40.122  1.00  0.00    -0.200 F 
ENDBRANCH  85 113
BRANCH 100 124
ATOM    124  C   UNL A   1      43.908  28.658  35.008  1.00  0.00     0.064 A 
ATOM    125  C   UNL A   1      43.710  27.563  35.861  1.00  0.00     0.173 A 
ATOM    126  C   UNL A   1      45.225  29.101  34.805  1.00  0.00     0.173 A 
ATOM    127  F   UNL A   1      42.469  27.110  36.101  1.00  0.00    -0.203 F 
ATOM    128  C   UNL A   1      44.783  26.953  36.506  1.00  0.00     0.198 A 
ATOM    129  C   UNL A   1      46.298  28.468  35.424  1.00  0.00     0.198 A 
ATOM    130  F   UNL A   1      45.471  30.142  33.994  1.00  0.00    -0.203 F 
ATOM    131  F   UNL A   1      44.563  25.941  37.356  1.00  0.00    -0.200 F 
ATOM    132  C   UNL A   1      46.076  27.401  36.281  1.00  0.00     0.200 A 
ATOM    133  F   UNL A   1      47.548  28.892  35.193  1.00  0.00    -0.200 F 
ATOM    134  F   UNL A   1      47.108  26.807  36.896  1.00  0.00    -0.200 F 
ENDBRANCH 100 124
ENDBRANCH  65  68
ENDBRANCH  55  58
ENDBRANCH  51  54
ENDBRANCH  48  51
ENDBRANCH  45  48
ENDBRANCH   1  45
TORSDOF 17
ENDMDL
MODEL 5
REMARK VINA RESULT:     -11.9      0.763      7.313
REMARK SMILES C[C@@H](C(=O)NCCCCCCNC(=O)c1ccc(-c2c3nc(c(-c4c(F)c(F)c(F)c(F)c4F)c4ccc([nH]4)c(-c4c(F)c(F)c(F)c(F)c4F)c4nc(c(-c5c(F)c(F)c(F)c(F)c5F)c5ccc2[nH]5)C=C4)C=C3)cc1)c1ccc(OC2CCCC2)cc1F
REMARK SMILES IDX 8 1 7 4 6 7 5 10 3 11 4 12 2 14 1 16 78 20 79 21 89 22 80 23
REMARK SMILES IDX 88 25 90 26 81 27 82 30 83 31 84 32 87 33 85 35 86 38 9 45
REMARK SMILES IDX 10 48 11 51 12 54 13 55 14 57 15 58 16 59 77 60 17 61 76 63
REMARK SMILES IDX 18 65 19 68 20 69 70 70 21 71 75 72 69 73 71 74 22 75 74 76
REMARK SMILES IDX 68 78 67 80 23 82 55 85 35 86 54 87 36 88 39 89 53 90 72 91
REMARK SMILES IDX 37 92 38 94 52 96 73 97 40 100 24 102 25 103 33 104 26 105
REMARK SMILES IDX 27 106 31 107 34 108 28 109 29 110 32 111 30 112 56 113
REMARK SMILES IDX 57 114 65 115 58 116 59 117 63 118 66 119 60 120 61 121
REMARK SMILES IDX 64 122 62 123 41 124 42 125 50 126 43 127 44 128 48 129
REMARK SMILES IDX 51 130 45 131 46 132 49 133 47 134
REMARK H PARENT 8 2 8 3 7 5 7 6 6 8 6 9 5 13 2 15 1 17 1 18 1 19 79 24 80 28
REMARK H PARENT 88 29 83 34 84 36 84 37 87 39 87 40 85 41 85 42 86 43 86 44
REMARK H PARENT 9 46 9 47 10 49 10 50 11 52 11 53 12 56 16 62 77 64 17 66
REMARK H PARENT 76 67 75 77 69 79 71 81 74 83 68 84 36 93 39 95 72 98 37 99
REMARK H PARENT 73 101
REMARK Flexibility Score: inf
ROOT
ATOM      1  C   UNL A   1      32.899  30.102  26.628  1.00  0.00    -0.052 C 
ATOM      2  H   UNL A   1      33.540  30.018  25.776  1.00  0.00     0.027 H 
ATOM      3  H   UNL A   1      33.296  30.731  27.398  1.00  0.00     0.027 H 
ENDROOT
BRANCH   1   4
ATOM      4  C   UNL A   1      32.745  28.707  27.250  1.00  0.00    -0.036 C 
ATOM      5  H   UNL A   1      33.575  28.107  26.938  1.00  0.00     0.028 H 
ATOM      6  H   UNL A   1      32.710  28.844  28.311  1.00  0.00     0.028 H 
BRANCH   4   7
ATOM      7  C   UNL A   1      31.455  27.987  26.854  1.00  0.00     0.017 C 
ATOM      8  H   UNL A   1      30.623  28.473  27.318  1.00  0.00     0.049 H 
ATOM      9  H   UNL A   1      31.351  28.020  25.789  1.00  0.00     0.049 H 
BRANCH   7  10
ATOM     10  N   UNL A   1      31.500  26.606  27.280  1.00  0.00    -0.356 N 
ATOM     11  C   UNL A   1      31.789  25.476  26.573  1.00  0.00     0.227 C 
ATOM     12  O   UNL A   1      31.574  24.408  27.146  1.00  0.00    -0.274 OA
ATOM     13  H   UNL A   1      31.291  26.458  28.231  1.00  0.00     0.163 HD
BRANCH  11  14
ATOM     14  C   UNL A   1      32.384  25.596  25.162  1.00  0.00     0.063 C 
ATOM     15  H   UNL A   1      32.243  24.617  24.756  1.00  0.00     0.045 H 
BRANCH  14  16
ATOM     16  C   UNL A   1      33.877  25.933  25.166  1.00  0.00    -0.049 C 
ATOM     17  H   UNL A   1      34.051  26.785  24.542  1.00  0.00     0.024 H 
ATOM     18  H   UNL A   1      34.432  25.097  24.793  1.00  0.00     0.024 H 
ATOM     19  H   UNL A   1      34.190  26.152  26.165  1.00  0.00     0.024 H 
ENDBRANCH  14  16
BRANCH  14  20
ATOM     20  C   UNL A   1      31.666  26.593  24.267  1.00  0.00     0.000 A 
ATOM     21  C   UNL A   1      32.330  27.638  23.612  1.00  0.00    -0.052 A 
ATOM     22  C   UNL A   1      30.303  26.427  24.012  1.00  0.00     0.130 A 
ATOM     23  C   UNL A   1      31.634  28.495  22.756  1.00  0.00    -0.019 A 
ATOM     24  H   UNL A   1      33.341  27.775  23.763  1.00  0.00     0.063 H 
ATOM     25  C   UNL A   1      29.610  27.268  23.147  1.00  0.00     0.016 A 
ATOM     26  F   UNL A   1      29.635  25.415  24.585  1.00  0.00    -0.207 F 
ATOM     27  C   UNL A   1      30.275  28.305  22.502  1.00  0.00     0.122 A 
ATOM     28  H   UNL A   1      32.131  29.279  22.307  1.00  0.00     0.066 H 
ATOM     29  H   UNL A   1      28.601  27.122  22.984  1.00  0.00     0.069 H 
BRANCH  27  30
ATOM     30  O   UNL A   1      29.741  29.198  21.623  1.00  0.00    -0.490 OA
BRANCH  30  31
ATOM     31  C   UNL A   1      29.431  30.535  21.990  1.00  0.00     0.099 C 
ATOM     32  C   UNL A   1      28.507  31.311  21.055  1.00  0.00    -0.016 C 
ATOM     33  C   UNL A   1      28.886  30.718  23.404  1.00  0.00    -0.016 C 
ATOM     34  H   UNL A   1      30.414  30.949  21.916  1.00  0.00     0.074 H 
ATOM     35  C   UNL A   1      28.038  32.478  21.906  1.00  0.00    -0.050 C 
ATOM     36  H   UNL A   1      27.679  30.706  20.746  1.00  0.00     0.030 H 
ATOM     37  H   UNL A   1      28.992  31.623  20.154  1.00  0.00     0.030 H 
ATOM     38  C   UNL A   1      28.016  31.972  23.347  1.00  0.00    -0.050 C 
ATOM     39  H   UNL A   1      29.688  30.850  24.099  1.00  0.00     0.030 H 
ATOM     40  H   UNL A   1      28.329  29.864  23.728  1.00  0.00     0.030 H 
ATOM     41  H   UNL A   1      27.059  32.788  21.606  1.00  0.00     0.027 H 
ATOM     42  H   UNL A   1      28.685  33.325  21.800  1.00  0.00     0.027 H 
ATOM     43  H   UNL A   1      27.014  31.735  23.637  1.00  0.00     0.027 H 
ATOM     44  H   UNL A   1      28.388  32.720  24.016  1.00  0.00     0.027 H 
ENDBRANCH  30  31
ENDBRANCH  27  30
ENDBRANCH  14  20
ENDBRANCH  11  14
ENDBRANCH   7  10
ENDBRANCH   4   7
ENDBRANCH   1   4
BRANCH   1  45
ATOM     45  C   UNL A   1      31.590  30.755  26.176  1.00  0.00    -0.052 C 
ATOM     46  H   UNL A   1      30.777  30.201  26.600  1.00  0.00     0.027 H 
ATOM     47  H   UNL A   1      31.597  30.738  25.106  1.00  0.00     0.027 H 
BRANCH  45  48
ATOM     48  C   UNL A   1      31.431  32.220  26.583  1.00  0.00    -0.036 C 
ATOM     49  H   UNL A   1      30.593  32.294  27.244  1.00  0.00     0.028 H 
ATOM     50  H   UNL A   1      31.301  32.777  25.680  1.00  0.00     0.028 H 
BRANCH  48  51
ATOM     51  C   UNL A   1      32.647  32.814  27.288  1.00  0.00     0.018 C 
ATOM     52  H   UNL A   1      33.488  32.757  26.630  1.00  0.00     0.049 H 
ATOM     53  H   UNL A   1      32.817  32.252  28.182  1.00  0.00     0.049 H 
BRANCH  51  54
ATOM     54  N   UNL A   1      32.436  34.203  27.663  1.00  0.00    -0.352 N 
ATOM     55  C   UNL A   1      33.029  34.932  28.660  1.00  0.00     0.251 C 
ATOM     56  H   UNL A   1      31.772  34.689  27.122  1.00  0.00     0.163 HD
ATOM     57  O   UNL A   1      32.585  36.036  28.971  1.00  0.00    -0.269 OA
BRANCH  55  58
ATOM     58  C   UNL A   1      34.191  34.379  29.385  1.00  0.00     0.039 A 
ATOM     59  C   UNL A   1      33.978  33.702  30.587  1.00  0.00    -0.049 A 
ATOM     60  C   UNL A   1      35.487  34.518  28.875  1.00  0.00    -0.049 A 
ATOM     61  C   UNL A   1      35.053  33.100  31.242  1.00  0.00    -0.053 A 
ATOM     62  H   UNL A   1      33.029  33.647  30.989  1.00  0.00     0.063 H 
ATOM     63  C   UNL A   1      36.547  33.859  29.493  1.00  0.00    -0.053 A 
ATOM     64  H   UNL A   1      35.656  35.108  28.045  1.00  0.00     0.063 H 
ATOM     65  C   UNL A   1      36.339  33.136  30.676  1.00  0.00    -0.014 A 
ATOM     66  H   UNL A   1      34.903  32.625  32.146  1.00  0.00     0.063 H 
ATOM     67  H   UNL A   1      37.491  33.903  29.077  1.00  0.00     0.063 H 
BRANCH  65  68
ATOM     68  C   UNL A   1      37.464  32.384  31.290  1.00  0.00     0.031 A 
ATOM     69  C   UNL A   1      37.989  32.767  32.646  1.00  0.00     0.074 A 
ATOM     70  C   UNL A   1      38.056  31.397  30.589  1.00  0.00     0.049 A 
ATOM     71  N   UNL A   1      39.001  32.269  33.310  1.00  0.00    -0.248 NA
ATOM     72  C   UNL A   1      37.302  33.869  33.339  1.00  0.00    -0.034 C 
ATOM     73  C   UNL A   1      37.670  30.968  29.242  1.00  0.00    -0.036 A 
ATOM     74  N   UNL A   1      39.117  30.583  30.904  1.00  0.00    -0.354 N 
ATOM     75  C   UNL A   1      39.079  32.999  34.488  1.00  0.00     0.074 A 
ATOM     76  C   UNL A   1      38.040  34.005  34.433  1.00  0.00    -0.034 C 
ATOM     77  H   UNL A   1      36.465  34.398  33.050  1.00  0.00     0.065 H 
ATOM     78  C   UNL A   1      38.469  29.962  28.854  1.00  0.00    -0.036 A 
ATOM     79  H   UNL A   1      36.906  31.375  28.682  1.00  0.00     0.065 H 
ATOM     80  C   UNL A   1      39.451  29.703  29.902  1.00  0.00     0.049 A 
ATOM     81  H   UNL A   1      39.592  30.626  31.764  1.00  0.00     0.167 HD
ATOM     82  C   UNL A   1      39.930  32.831  35.529  1.00  0.00     0.037 A 
ATOM     83  H   UNL A   1      37.892  34.731  35.150  1.00  0.00     0.065 H 
ATOM     84  H   UNL A   1      38.401  29.454  27.958  1.00  0.00     0.065 H 
ATOM     85  C   UNL A   1      40.448  28.800  29.831  1.00  0.00     0.037 A 
ATOM     86  C   UNL A   1      40.943  31.810  35.592  1.00  0.00     0.049 A 
ATOM     87  C   UNL A   1      41.384  28.648  31.000  1.00  0.00     0.074 A 
ATOM     88  C   UNL A   1      41.798  31.511  36.638  1.00  0.00    -0.036 A 
ATOM     89  N   UNL A   1      41.244  30.929  34.565  1.00  0.00    -0.354 N 
ATOM     90  N   UNL A   1      41.389  29.285  32.146  1.00  0.00    -0.248 NA
ATOM     91  C   UNL A   1      42.454  27.648  30.868  1.00  0.00    -0.034 C 
ATOM     92  C   UNL A   1      42.656  30.488  36.224  1.00  0.00    -0.036 A 
ATOM     93  H   UNL A   1      41.802  31.965  37.565  1.00  0.00     0.065 H 
ATOM     94  C   UNL A   1      42.297  30.109  34.941  1.00  0.00     0.049 A 
ATOM     95  H   UNL A   1      40.779  30.890  33.698  1.00  0.00     0.167 HD
ATOM     96  C   UNL A   1      42.438  28.746  32.878  1.00  0.00     0.074 A 
ATOM     97  C   UNL A   1      43.033  27.713  32.057  1.00  0.00    -0.034 C 
ATOM     98  H   UNL A   1      42.690  27.051  30.060  1.00  0.00     0.065 H 
ATOM     99  H   UNL A   1      43.427  30.084  36.780  1.00  0.00     0.065 H 
ATOM    100  C   UNL A   1      42.875  29.080  34.116  1.00  0.00     0.037 A 
ATOM    101  H   UNL A   1      43.810  27.105  32.360  1.00  0.00     0.065 H 
BRANCH  82 102
ATOM    102  C   UNL A   1      39.810  33.766  36.697  1.00  0.00     0.064 A 
ATOM    103  C   UNL A   1      40.449  35.014  36.709  1.00  0.00     0.173 A 
ATOM    104  C   UNL A   1      38.970  33.447  37.775  1.00  0.00     0.173 A 
ATOM    105  F   UNL A   1      41.269  35.363  35.707  1.00  0.00    -0.203 F 
ATOM    106  C   UNL A   1      40.259  35.905  37.763  1.00  0.00     0.198 A 
ATOM    107  C   UNL A   1      38.761  34.351  38.813  1.00  0.00     0.198 A 
ATOM    108  F   UNL A   1      38.330  32.268  37.809  1.00  0.00    -0.203 F 
ATOM    109  F   UNL A   1      40.901  37.081  37.767  1.00  0.00    -0.200 F 
ATOM    110  C   UNL A   1      39.407  35.578  38.807  1.00  0.00     0.200 A 
ATOM    111  F   UNL A   1      37.924  34.040  39.812  1.00  0.00    -0.200 F 
ATOM    112  F   UNL A   1      39.208  36.446  39.809  1.00  0.00    -0.200 F 
ENDBRANCH  82 102
BRANCH  85 113
ATOM    113  C   UNL A   1      40.626  27.970  28.608  1.00  0.00     0.064 A 
ATOM    114  C   UNL A   1      41.384  28.435  27.523  1.00  0.00     0.173 A 
ATOM    115  C   UNL A   1      40.007  26.719  28.480  1.00  0.00     0.173 A 
ATOM    116  F   UNL A   1      41.980  29.634  27.587  1.00  0.00    -0.203 F 
ATOM    117  C   UNL A   1      41.484  27.696  26.346  1.00  0.00     0.198 A 
ATOM    118  C   UNL A   1      40.138  25.965  27.315  1.00  0.00     0.198 A 
ATOM    119  F   UNL A   1      39.274  26.224  29.489  1.00  0.00    -0.203 F 
ATOM    120  F   UNL A   1      42.159  28.195  25.301  1.00  0.00    -0.200 F 
ATOM    121  C   UNL A   1      40.864  26.461  26.243  1.00  0.00     0.200 A 
ATOM    122  F   UNL A   1      39.548  24.765  27.227  1.00  0.00    -0.200 F 
ATOM    123  F   UNL A   1      40.955  25.754  25.109  1.00  0.00    -0.200 F 
ENDBRANCH  85 113
BRANCH 100 124
ATOM    124  C   UNL A   1      44.034  28.304  34.671  1.00  0.00     0.064 A 
ATOM    125  C   UNL A   1      45.353  28.760  34.543  1.00  0.00     0.173 A 
ATOM    126  C   UNL A   1      43.818  27.103  35.367  1.00  0.00     0.173 A 
ATOM    127  F   UNL A   1      45.615  29.893  33.873  1.00  0.00    -0.203 F 
ATOM    128  C   UNL A   1      46.418  28.030  35.067  1.00  0.00     0.198 A 
ATOM    129  C   UNL A   1      44.881  26.394  35.918  1.00  0.00     0.198 A 
ATOM    130  F   UNL A   1      42.574  26.625  35.522  1.00  0.00    -0.203 F 
ATOM    131  F   UNL A   1      47.674  28.459  34.887  1.00  0.00    -0.200 F 
ATOM    132  C   UNL A   1      46.180  26.853  35.761  1.00  0.00     0.200 A 
ATOM    133  F   UNL A   1      44.648  25.265  36.602  1.00  0.00    -0.200 F 
ATOM    134  F   UNL A   1      47.205  26.156  36.271  1.00  0.00    -0.200 F 
ENDBRANCH 100 124
ENDBRANCH  65  68
ENDBRANCH  55  58
ENDBRANCH  51  54
ENDBRANCH  48  51
ENDBRANCH  45  48
ENDBRANCH   1  45
TORSDOF 17
ENDMDL
MODEL 6
REMARK VINA RESULT:     -11.9      1.899      7.778
REMARK SMILES C[C@@H](C(=O)NCCCCCCNC(=O)c1ccc(-c2c3nc(c(-c4c(F)c(F)c(F)c(F)c4F)c4ccc([nH]4)c(-c4c(F)c(F)c(F)c(F)c4F)c4nc(c(-c5c(F)c(F)c(F)c(F)c5F)c5ccc2[nH]5)C=C4)C=C3)cc1)c1ccc(OC2CCCC2)cc1F
REMARK SMILES IDX 8 1 7 4 6 7 5 10 3 11 4 12 2 14 1 16 78 20 79 21 89 22 80 23
REMARK SMILES IDX 88 25 90 26 81 27 82 30 83 31 84 32 87 33 85 35 86 38 9 45
REMARK SMILES IDX 10 48 11 51 12 54 13 55 14 57 15 58 16 59 77 60 17 61 76 63
REMARK SMILES IDX 18 65 19 68 20 69 70 70 21 71 75 72 69 73 71 74 22 75 74 76
REMARK SMILES IDX 68 78 67 80 23 82 55 85 35 86 54 87 36 88 39 89 53 90 72 91
REMARK SMILES IDX 37 92 38 94 52 96 73 97 40 100 24 102 25 103 33 104 26 105
REMARK SMILES IDX 27 106 31 107 34 108 28 109 29 110 32 111 30 112 56 113
REMARK SMILES IDX 57 114 65 115 58 116 59 117 63 118 66 119 60 120 61 121
REMARK SMILES IDX 64 122 62 123 41 124 42 125 50 126 43 127 44 128 48 129
REMARK SMILES IDX 51 130 45 131 46 132 49 133 47 134
REMARK H PARENT 8 2 8 3 7 5 7 6 6 8 6 9 5 13 2 15 1 17 1 18 1 19 79 24 80 28
REMARK H PARENT 88 29 83 34 84 36 84 37 87 39 87 40 85 41 85 42 86 43 86 44
REMARK H PARENT 9 46 9 47 10 49 10 50 11 52 11 53 12 56 16 62 77 64 17 66
REMARK H PARENT 76 67 75 77 69 79 71 81 74 83 68 84 36 93 39 95 72 98 37 99
REMARK H PARENT 73 101
REMARK Flexibility Score: inf
ROOT
ATOM      1  C   UNL A   1      33.551  26.891  25.351  1.00  0.00    -0.052 C 
ATOM      2  H   UNL A   1      33.030  26.649  24.448  1.00  0.00     0.027 H 
ATOM      3  H   UNL A   1      34.229  27.713  25.244  1.00  0.00     0.027 H 
ENDROOT
BRANCH   1   4
ATOM      4  C   UNL A   1      34.404  25.679  25.750  1.00  0.00    -0.036 C 
ATOM      5  H   UNL A   1      35.348  25.753  25.250  1.00  0.00     0.028 H 
ATOM      6  H   UNL A   1      34.499  25.705  26.815  1.00  0.00     0.028 H 
BRANCH   4   7
ATOM      7  C   UNL A   1      33.776  24.330  25.394  1.00  0.00     0.017 C 
ATOM      8  H   UNL A   1      33.334  24.393  24.422  1.00  0.00     0.049 H 
ATOM      9  H   UNL A   1      34.538  23.579  25.401  1.00  0.00     0.049 H 
BRANCH   7  10
ATOM     10  N   UNL A   1      32.759  23.980  26.360  1.00  0.00    -0.356 N 
ATOM     11  C   UNL A   1      31.417  23.797  26.197  1.00  0.00     0.227 C 
ATOM     12  O   UNL A   1      30.756  23.682  27.230  1.00  0.00    -0.274 OA
ATOM     13  H   UNL A   1      33.086  23.852  27.279  1.00  0.00     0.163 HD
BRANCH  11  14
ATOM     14  C   UNL A   1      30.830  23.708  24.781  1.00  0.00     0.063 C 
ATOM     15  H   UNL A   1      29.867  23.274  24.945  1.00  0.00     0.045 H 
BRANCH  14  16
ATOM     16  C   UNL A   1      31.642  22.805  23.849  1.00  0.00    -0.049 C 
ATOM     17  H   UNL A   1      31.046  21.965  23.560  1.00  0.00     0.024 H 
ATOM     18  H   UNL A   1      32.519  22.463  24.359  1.00  0.00     0.024 H 
ATOM     19  H   UNL A   1      31.928  23.357  22.979  1.00  0.00     0.024 H 
ENDBRANCH  14  16
BRANCH  14  20
ATOM     20  C   UNL A   1      30.638  25.055  24.101  1.00  0.00     0.000 A 
ATOM     21  C   UNL A   1      31.340  25.427  22.947  1.00  0.00    -0.052 A 
ATOM     22  C   UNL A   1      29.670  25.935  24.587  1.00  0.00     0.130 A 
ATOM     23  C   UNL A   1      31.087  26.654  22.329  1.00  0.00    -0.019 A 
ATOM     24  H   UNL A   1      32.047  24.790  22.550  1.00  0.00     0.063 H 
ATOM     25  C   UNL A   1      29.403  27.151  23.964  1.00  0.00     0.016 A 
ATOM     26  F   UNL A   1      28.946  25.602  25.665  1.00  0.00    -0.207 F 
ATOM     27  C   UNL A   1      30.104  27.516  22.820  1.00  0.00     0.122 A 
ATOM     28  H   UNL A   1      31.634  26.927  21.498  1.00  0.00     0.066 H 
ATOM     29  H   UNL A   1      28.685  27.782  24.351  1.00  0.00     0.069 H 
BRANCH  27  30
ATOM     30  O   UNL A   1      29.950  28.658  22.095  1.00  0.00    -0.490 OA
BRANCH  30  31
ATOM     31  C   UNL A   1      28.987  29.647  22.427  1.00  0.00     0.099 C 
ATOM     32  C   UNL A   1      29.373  30.651  23.510  1.00  0.00    -0.016 C 
ATOM     33  C   UNL A   1      28.439  30.452  21.251  1.00  0.00    -0.016 C 
ATOM     34  H   UNL A   1      28.229  29.001  22.818  1.00  0.00     0.074 H 
ATOM     35  C   UNL A   1      28.371  31.777  23.325  1.00  0.00    -0.050 C 
ATOM     36  H   UNL A   1      30.374  31.003  23.366  1.00  0.00     0.030 H 
ATOM     37  H   UNL A   1      29.350  30.232  24.494  1.00  0.00     0.030 H 
ATOM     38  C   UNL A   1      28.029  31.801  21.836  1.00  0.00    -0.050 C 
ATOM     39  H   UNL A   1      27.594  29.957  20.822  1.00  0.00     0.030 H 
ATOM     40  H   UNL A   1      29.166  30.562  20.474  1.00  0.00     0.030 H 
ATOM     41  H   UNL A   1      28.801  32.711  23.622  1.00  0.00     0.027 H 
ATOM     42  H   UNL A   1      27.496  31.626  23.924  1.00  0.00     0.027 H 
ATOM     43  H   UNL A   1      28.565  32.589  21.350  1.00  0.00     0.027 H 
ATOM     44  H   UNL A   1      26.982  31.973  21.692  1.00  0.00     0.027 H 
ENDBRANCH  30  31
ENDBRANCH  27  30
ENDBRANCH  14  20
ENDBRANCH  11  14
ENDBRANCH   7  10
ENDBRANCH   4   7
ENDBRANCH   1   4
BRANCH   1  45
ATOM     45  C   UNL A   1      32.517  27.323  26.394  1.00  0.00    -0.052 C 
ATOM     46  H   UNL A   1      32.988  27.312  27.356  1.00  0.00     0.027 H 
ATOM     47  H   UNL A   1      31.702  26.633  26.318  1.00  0.00     0.027 H 
BRANCH  45  48
ATOM     48  C   UNL A   1      31.926  28.716  26.171  1.00  0.00    -0.036 C 
ATOM     49  H   UNL A   1      31.530  29.064  27.102  1.00  0.00     0.028 H 
ATOM     50  H   UNL A   1      31.179  28.613  25.412  1.00  0.00     0.028 H 
BRANCH  48  51
ATOM     51  C   UNL A   1      32.924  29.750  25.661  1.00  0.00     0.018 C 
ATOM     52  H   UNL A   1      32.882  29.772  24.592  1.00  0.00     0.049 H 
ATOM     53  H   UNL A   1      33.897  29.467  26.004  1.00  0.00     0.049 H 
BRANCH  51  54
ATOM     54  N   UNL A   1      32.638  31.082  26.171  1.00  0.00    -0.352 N 
ATOM     55  C   UNL A   1      33.243  31.768  27.191  1.00  0.00     0.251 C 
ATOM     56  H   UNL A   1      31.906  31.558  25.718  1.00  0.00     0.163 HD
ATOM     57  O   UNL A   1      32.742  32.804  27.626  1.00  0.00    -0.269 OA
BRANCH  55  58
ATOM     58  C   UNL A   1      34.489  31.249  27.791  1.00  0.00     0.039 A 
ATOM     59  C   UNL A   1      35.554  32.127  28.002  1.00  0.00    -0.049 A 
ATOM     60  C   UNL A   1      34.604  29.903  28.154  1.00  0.00    -0.049 A 
ATOM     61  C   UNL A   1      36.707  31.674  28.644  1.00  0.00    -0.053 A 
ATOM     62  H   UNL A   1      35.488  33.106  27.684  1.00  0.00     0.063 H 
ATOM     63  C   UNL A   1      35.726  29.469  28.856  1.00  0.00    -0.053 A 
ATOM     64  H   UNL A   1      33.859  29.234  27.902  1.00  0.00     0.063 H 
ATOM     65  C   UNL A   1      36.784  30.352  29.116  1.00  0.00    -0.014 A 
ATOM     66  H   UNL A   1      37.507  32.312  28.773  1.00  0.00     0.063 H 
ATOM     67  H   UNL A   1      35.778  28.493  29.186  1.00  0.00     0.063 H 
BRANCH  65  68
ATOM     68  C   UNL A   1      37.947  29.896  29.921  1.00  0.00     0.031 A 
ATOM     69  C   UNL A   1      38.154  30.404  31.320  1.00  0.00     0.074 A 
ATOM     70  C   UNL A   1      38.853  29.072  29.357  1.00  0.00     0.049 A 
ATOM     71  N   UNL A   1      39.141  30.166  32.146  1.00  0.00    -0.248 NA
ATOM     72  C   UNL A   1      37.131  31.316  31.856  1.00  0.00    -0.034 C 
ATOM     73  C   UNL A   1      38.788  28.553  27.989  1.00  0.00    -0.036 A 
ATOM     74  N   UNL A   1      40.014  28.537  29.859  1.00  0.00    -0.354 N 
ATOM     75  C   UNL A   1      38.866  30.903  33.289  1.00  0.00     0.074 A 
ATOM     76  C   UNL A   1      37.641  31.632  33.039  1.00  0.00    -0.034 C 
ATOM     77  H   UNL A   1      36.247  31.627  31.425  1.00  0.00     0.065 H 
ATOM     78  C   UNL A   1      39.850  27.763  27.766  1.00  0.00    -0.036 A 
ATOM     79  H   UNL A   1      38.044  28.761  27.306  1.00  0.00     0.065 H 
ATOM     80  C   UNL A   1      40.694  27.753  28.957  1.00  0.00     0.049 A 
ATOM     81  H   UNL A   1      40.329  28.699  30.777  1.00  0.00     0.167 HD
ATOM     82  C   UNL A   1      39.564  30.952  34.450  1.00  0.00     0.037 A 
ATOM     83  H   UNL A   1      37.220  32.308  33.694  1.00  0.00     0.065 H 
ATOM     84  H   UNL A   1      40.040  27.246  26.893  1.00  0.00     0.065 H 
ATOM     85  C   UNL A   1      41.874  27.114  29.072  1.00  0.00     0.037 A 
ATOM     86  C   UNL A   1      40.766  30.202  34.705  1.00  0.00     0.049 A 
ATOM     87  C   UNL A   1      42.630  27.198  30.371  1.00  0.00     0.074 A 
ATOM     88  C   UNL A   1      41.498  30.124  35.877  1.00  0.00    -0.036 A 
ATOM     89  N   UNL A   1      41.418  29.409  33.773  1.00  0.00    -0.354 N 
ATOM     90  N   UNL A   1      42.311  27.828  31.475  1.00  0.00    -0.248 NA
ATOM     91  C   UNL A   1      43.911  26.481  30.440  1.00  0.00    -0.034 C 
ATOM     92  C   UNL A   1      42.625  29.331  35.638  1.00  0.00    -0.036 A 
ATOM     93  H   UNL A   1      41.254  30.573  36.773  1.00  0.00     0.065 H 
ATOM     94  C   UNL A   1      42.564  28.868  34.334  1.00  0.00     0.049 A 
ATOM     95  H   UNL A   1      41.113  29.254  32.849  1.00  0.00     0.167 HD
ATOM     96  C   UNL A   1      43.333  27.560  32.376  1.00  0.00     0.074 A 
ATOM     97  C   UNL A   1      44.271  26.692  31.697  1.00  0.00    -0.034 C 
ATOM     98  H   UNL A   1      44.401  25.951  29.702  1.00  0.00     0.065 H 
ATOM     99  H   UNL A   1      43.375  29.127  36.318  1.00  0.00     0.065 H 
ATOM    100  C   UNL A   1      43.486  27.999  33.648  1.00  0.00     0.037 A 
ATOM    101  H   UNL A   1      45.113  26.289  32.137  1.00  0.00     0.065 H 
BRANCH  82 102
ATOM    102  C   UNL A   1      39.052  31.840  35.546  1.00  0.00     0.064 A 
ATOM    103  C   UNL A   1      38.226  31.347  36.566  1.00  0.00     0.173 A 
ATOM    104  C   UNL A   1      39.470  33.177  35.627  1.00  0.00     0.173 A 
ATOM    105  F   UNL A   1      37.793  30.078  36.531  1.00  0.00    -0.203 F 
ATOM    106  C   UNL A   1      37.830  32.164  37.623  1.00  0.00     0.198 A 
ATOM    107  C   UNL A   1      39.094  33.982  36.698  1.00  0.00     0.198 A 
ATOM    108  F   UNL A   1      40.266  33.696  34.679  1.00  0.00    -0.203 F 
ATOM    109  F   UNL A   1      37.019  31.679  38.573  1.00  0.00    -0.200 F 
ATOM    110  C   UNL A   1      38.273  33.476  37.694  1.00  0.00     0.200 A 
ATOM    111  F   UNL A   1      39.537  35.245  36.773  1.00  0.00    -0.200 F 
ATOM    112  F   UNL A   1      37.908  34.253  38.724  1.00  0.00    -0.200 F 
ENDBRANCH  82 102
BRANCH  85 113
ATOM    113  C   UNL A   1      42.425  26.340  27.925  1.00  0.00     0.064 A 
ATOM    114  C   UNL A   1      43.309  26.933  27.012  1.00  0.00     0.173 A 
ATOM    115  C   UNL A   1      42.046  25.010  27.694  1.00  0.00     0.173 A 
ATOM    116  F   UNL A   1      43.686  28.209  27.177  1.00  0.00    -0.203 F 
ATOM    117  C   UNL A   1      43.762  26.237  25.893  1.00  0.00     0.198 A 
ATOM    118  C   UNL A   1      42.528  24.304  26.594  1.00  0.00     0.198 A 
ATOM    119  F   UNL A   1      41.207  24.393  28.539  1.00  0.00    -0.203 F 
ATOM    120  F   UNL A   1      44.552  26.850  25.001  1.00  0.00    -0.200 F 
ATOM    121  C   UNL A   1      43.374  24.922  25.686  1.00  0.00     0.200 A 
ATOM    122  F   UNL A   1      42.162  23.029  26.407  1.00  0.00    -0.200 F 
ATOM    123  F   UNL A   1      43.805  24.256  24.607  1.00  0.00    -0.200 F 
ENDBRANCH  85 113
BRANCH 100 124
ATOM    124  C   UNL A   1      44.696  27.525  34.400  1.00  0.00     0.064 A 
ATOM    125  C   UNL A   1      44.685  26.331  35.134  1.00  0.00     0.173 A 
ATOM    126  C   UNL A   1      45.891  28.260  34.360  1.00  0.00     0.173 A 
ATOM    127  F   UNL A   1      43.562  25.599  35.217  1.00  0.00    -0.203 F 
ATOM    128  C   UNL A   1      45.817  25.902  35.823  1.00  0.00     0.198 A 
ATOM    129  C   UNL A   1      47.030  27.812  35.021  1.00  0.00     0.198 A 
ATOM    130  F   UNL A   1      45.958  29.408  33.667  1.00  0.00    -0.203 F 
ATOM    131  F   UNL A   1      45.767  24.785  36.560  1.00  0.00    -0.200 F 
ATOM    132  C   UNL A   1      46.990  26.639  35.759  1.00  0.00     0.200 A 
ATOM    133  F   UNL A   1      48.168  28.516  34.945  1.00  0.00    -0.200 F 
ATOM    134  F   UNL A   1      48.081  26.221  36.416  1.00  0.00    -0.200 F 
ENDBRANCH 100 124
ENDBRANCH  65  68
ENDBRANCH  55  58
ENDBRANCH  51  54
ENDBRANCH  48  51
ENDBRANCH  45  48
ENDBRANCH   1  45
TORSDOF 17
ENDMDL
MODEL 7
REMARK VINA RESULT:     -11.9      2.055      4.400
REMARK SMILES C[C@@H](C(=O)NCCCCCCNC(=O)c1ccc(-c2c3nc(c(-c4c(F)c(F)c(F)c(F)c4F)c4ccc([nH]4)c(-c4c(F)c(F)c(F)c(F)c4F)c4nc(c(-c5c(F)c(F)c(F)c(F)c5F)c5ccc2[nH]5)C=C4)C=C3)cc1)c1ccc(OC2CCCC2)cc1F
REMARK SMILES IDX 8 1 7 4 6 7 5 10 3 11 4 12 2 14 1 16 78 20 79 21 89 22 80 23
REMARK SMILES IDX 88 25 90 26 81 27 82 30 83 31 84 32 87 33 85 35 86 38 9 45
REMARK SMILES IDX 10 48 11 51 12 54 13 55 14 57 15 58 16 59 77 60 17 61 76 63
REMARK SMILES IDX 18 65 19 68 20 69 70 70 21 71 75 72 69 73 71 74 22 75 74 76
REMARK SMILES IDX 68 78 67 80 23 82 55 85 35 86 54 87 36 88 39 89 53 90 72 91
REMARK SMILES IDX 37 92 38 94 52 96 73 97 40 100 24 102 25 103 33 104 26 105
REMARK SMILES IDX 27 106 31 107 34 108 28 109 29 110 32 111 30 112 56 113
REMARK SMILES IDX 57 114 65 115 58 116 59 117 63 118 66 119 60 120 61 121
REMARK SMILES IDX 64 122 62 123 41 124 42 125 50 126 43 127 44 128 48 129
REMARK SMILES IDX 51 130 45 131 46 132 49 133 47 134
REMARK H PARENT 8 2 8 3 7 5 7 6 6 8 6 9 5 13 2 15 1 17 1 18 1 19 79 24 80 28
REMARK H PARENT 88 29 83 34 84 36 84 37 87 39 87 40 85 41 85 42 86 43 86 44
REMARK H PARENT 9 46 9 47 10 49 10 50 11 52 11 53 12 56 16 62 77 64 17 66
REMARK H PARENT 76 67 75 77 69 79 71 81 74 83 68 84 36 93 39 95 72 98 37 99
REMARK H PARENT 73 101
REMARK Flexibility Score: inf
ROOT
ATOM      1  C   UNL A   1      32.833  29.778  27.031  1.00  0.00    -0.052 C 
ATOM      2  H   UNL A   1      33.732  29.702  26.456  1.00  0.00     0.027 H 
ATOM      3  H   UNL A   1      32.952  30.342  27.933  1.00  0.00     0.027 H 
ENDROOT
BRANCH   1   4
ATOM      4  C   UNL A   1      32.419  28.364  27.459  1.00  0.00    -0.036 C 
ATOM      5  H   UNL A   1      33.305  27.810  27.691  1.00  0.00     0.028 H 
ATOM      6  H   UNL A   1      31.769  28.475  28.302  1.00  0.00     0.028 H 
BRANCH   4   7
ATOM      7  C   UNL A   1      31.635  27.595  26.395  1.00  0.00     0.017 C 
ATOM      8  H   UNL A   1      30.762  28.152  26.128  1.00  0.00     0.049 H 
ATOM      9  H   UNL A   1      32.258  27.458  25.535  1.00  0.00     0.049 H 
BRANCH   7  10
ATOM     10  N   UNL A   1      31.239  26.299  26.901  1.00  0.00    -0.356 N 
ATOM     11  C   UNL A   1      31.731  25.058  26.622  1.00  0.00     0.227 C 
ATOM     12  O   UNL A   1      31.083  24.107  27.060  1.00  0.00    -0.274 OA
ATOM     13  H   UNL A   1      30.499  26.316  27.550  1.00  0.00     0.163 HD
BRANCH  11  14
ATOM     14  C   UNL A   1      33.044  24.922  25.838  1.00  0.00     0.063 C 
ATOM     15  H   UNL A   1      33.765  25.361  26.494  1.00  0.00     0.045 H 
BRANCH  14  16
ATOM     16  C   UNL A   1      33.035  25.685  24.511  1.00  0.00    -0.049 C 
ATOM     17  H   UNL A   1      34.040  25.907  24.221  1.00  0.00     0.024 H 
ATOM     18  H   UNL A   1      32.487  26.597  24.628  1.00  0.00     0.024 H 
ATOM     19  H   UNL A   1      32.570  25.084  23.758  1.00  0.00     0.024 H 
ENDBRANCH  14  16
BRANCH  14  20
ATOM     20  C   UNL A   1      33.460  23.484  25.565  1.00  0.00     0.000 A 
ATOM     21  C   UNL A   1      33.239  22.853  24.334  1.00  0.00    -0.052 A 
ATOM     22  C   UNL A   1      34.161  22.777  26.544  1.00  0.00     0.130 A 
ATOM     23  C   UNL A   1      33.689  21.549  24.116  1.00  0.00    -0.019 A 
ATOM     24  H   UNL A   1      32.742  23.356  23.583  1.00  0.00     0.063 H 
ATOM     25  C   UNL A   1      34.626  21.484  26.324  1.00  0.00     0.016 A 
ATOM     26  F   UNL A   1      34.430  23.357  27.722  1.00  0.00    -0.207 F 
ATOM     27  C   UNL A   1      34.402  20.862  25.100  1.00  0.00     0.122 A 
ATOM     28  H   UNL A   1      33.491  21.087  23.215  1.00  0.00     0.066 H 
ATOM     29  H   UNL A   1      35.136  20.986  27.069  1.00  0.00     0.069 H 
BRANCH  27  30
ATOM     30  O   UNL A   1      34.802  19.614  24.731  1.00  0.00    -0.490 OA
BRANCH  30  31
ATOM     31  C   UNL A   1      33.879  18.573  24.442  1.00  0.00     0.099 C 
ATOM     32  C   UNL A   1      34.462  17.245  23.965  1.00  0.00    -0.016 C 
ATOM     33  C   UNL A   1      32.888  18.246  25.556  1.00  0.00    -0.016 C 
ATOM     34  H   UNL A   1      33.374  19.036  23.621  1.00  0.00     0.074 H 
ATOM     35  C   UNL A   1      33.320  16.263  24.163  1.00  0.00    -0.050 C 
ATOM     36  H   UNL A   1      35.312  16.967  24.554  1.00  0.00     0.030 H 
ATOM     37  H   UNL A   1      34.808  17.282  22.953  1.00  0.00     0.030 H 
ATOM     38  C   UNL A   1      32.520  16.778  25.358  1.00  0.00    -0.050 C 
ATOM     39  H   UNL A   1      32.018  18.864  25.475  1.00  0.00     0.030 H 
ATOM     40  H   UNL A   1      33.308  18.422  26.525  1.00  0.00     0.030 H 
ATOM     41  H   UNL A   1      33.703  15.285  24.366  1.00  0.00     0.027 H 
ATOM     42  H   UNL A   1      32.710  16.191  23.287  1.00  0.00     0.027 H 
ATOM     43  H   UNL A   1      32.769  16.217  26.235  1.00  0.00     0.027 H 
ATOM     44  H   UNL A   1      31.469  16.672  25.183  1.00  0.00     0.027 H 
ENDBRANCH  30  31
ENDBRANCH  27  30
ENDBRANCH  14  20
ENDBRANCH  11  14
ENDBRANCH   7  10
ENDBRANCH   4   7
ENDBRANCH   1   4
BRANCH   1  45
ATOM     45  C   UNL A   1      31.795  30.529  26.192  1.00  0.00    -0.052 C 
ATOM     46  H   UNL A   1      30.875  29.983  26.235  1.00  0.00     0.027 H 
ATOM     47  H   UNL A   1      32.198  30.597  25.203  1.00  0.00     0.027 H 
BRANCH  45  48
ATOM     48  C   UNL A   1      31.520  31.963  26.647  1.00  0.00    -0.036 C 
ATOM     49  H   UNL A   1      30.668  31.950  27.294  1.00  0.00     0.028 H 
ATOM     50  H   UNL A   1      31.362  32.540  25.760  1.00  0.00     0.028 H 
BRANCH  48  51
ATOM     51  C   UNL A   1      32.676  32.620  27.393  1.00  0.00     0.018 C 
ATOM     52  H   UNL A   1      33.565  32.525  26.805  1.00  0.00     0.049 H 
ATOM     53  H   UNL A   1      32.783  32.127  28.337  1.00  0.00     0.049 H 
BRANCH  51  54
ATOM     54  N   UNL A   1      32.430  34.030  27.648  1.00  0.00    -0.352 N 
ATOM     55  C   UNL A   1      33.009  34.859  28.573  1.00  0.00     0.251 C 
ATOM     56  H   UNL A   1      31.749  34.450  27.074  1.00  0.00     0.163 HD
ATOM     57  O   UNL A   1      32.537  35.974  28.791  1.00  0.00    -0.269 OA
BRANCH  55  58
ATOM     58  C   UNL A   1      34.191  34.402  29.333  1.00  0.00     0.039 A 
ATOM     59  C   UNL A   1      34.005  33.828  30.592  1.00  0.00    -0.049 A 
ATOM     60  C   UNL A   1      35.479  34.529  28.801  1.00  0.00    -0.049 A 
ATOM     61  C   UNL A   1      35.100  33.315  31.287  1.00  0.00    -0.053 A 
ATOM     62  H   UNL A   1      33.061  33.784  31.006  1.00  0.00     0.063 H 
ATOM     63  C   UNL A   1      36.561  33.955  29.463  1.00  0.00    -0.053 A 
ATOM     64  H   UNL A   1      35.626  35.048  27.920  1.00  0.00     0.063 H 
ATOM     65  C   UNL A   1      36.381  33.334  30.708  1.00  0.00    -0.014 A 
ATOM     66  H   UNL A   1      34.969  32.918  32.230  1.00  0.00     0.063 H 
ATOM     67  H   UNL A   1      37.500  33.987  29.036  1.00  0.00     0.063 H 
BRANCH  65  68
ATOM     68  C   UNL A   1      37.530  32.669  31.375  1.00  0.00     0.031 A 
ATOM     69  C   UNL A   1      38.218  31.499  30.727  1.00  0.00     0.074 A 
ATOM     70  C   UNL A   1      37.907  33.082  32.601  1.00  0.00     0.049 A 
ATOM     71  N   UNL A   1      39.192  30.757  31.187  1.00  0.00    -0.248 NA
ATOM     72  C   UNL A   1      37.733  31.096  29.397  1.00  0.00    -0.034 C 
ATOM     73  C   UNL A   1      37.283  34.173  33.355  1.00  0.00    -0.036 A 
ATOM     74  N   UNL A   1      38.897  32.627  33.438  1.00  0.00    -0.354 N 
ATOM     75  C   UNL A   1      39.431  29.797  30.214  1.00  0.00     0.074 A 
ATOM     76  C   UNL A   1      38.471  30.020  29.154  1.00  0.00    -0.034 C 
ATOM     77  H   UNL A   1      37.010  31.535  28.807  1.00  0.00     0.065 H 
ATOM     78  C   UNL A   1      37.914  34.313  34.531  1.00  0.00    -0.036 A 
ATOM     79  H   UNL A   1      36.487  34.743  33.032  1.00  0.00     0.065 H 
ATOM     80  C   UNL A   1      38.956  33.297  34.636  1.00  0.00     0.049 A 
ATOM     81  H   UNL A   1      39.506  31.891  33.201  1.00  0.00     0.167 HD
ATOM     82  C   UNL A   1      40.377  28.828  30.200  1.00  0.00     0.037 A 
ATOM     83  H   UNL A   1      38.373  29.422  28.319  1.00  0.00     0.065 H 
ATOM     84  H   UNL A   1      37.696  35.024  35.247  1.00  0.00     0.065 H 
ATOM     85  C   UNL A   1      39.750  33.101  35.707  1.00  0.00     0.037 A 
ATOM     86  C   UNL A   1      41.349  28.627  31.243  1.00  0.00     0.049 A 
ATOM     87  C   UNL A   1      40.783  32.008  35.663  1.00  0.00     0.074 A 
ATOM     88  C   UNL A   1      42.397  27.724  31.280  1.00  0.00    -0.036 A 
ATOM     89  N   UNL A   1      41.386  29.333  32.436  1.00  0.00    -0.354 N 
ATOM     90  N   UNL A   1      41.056  31.164  34.697  1.00  0.00    -0.248 NA
ATOM     91  C   UNL A   1      41.622  31.839  36.859  1.00  0.00    -0.034 C 
ATOM     92  C   UNL A   1      43.034  27.842  32.519  1.00  0.00    -0.036 A 
ATOM     93  H   UNL A   1      42.664  27.076  30.523  1.00  0.00     0.065 H 
ATOM     94  C   UNL A   1      42.418  28.859  33.231  1.00  0.00     0.049 A 
ATOM     95  H   UNL A   1      40.771  30.061  32.683  1.00  0.00     0.167 HD
ATOM     96  C   UNL A   1      42.112  30.388  35.156  1.00  0.00     0.074 A 
ATOM     97  C   UNL A   1      42.446  30.875  36.477  1.00  0.00    -0.034 C 
ATOM     98  H   UNL A   1      41.580  32.341  37.760  1.00  0.00     0.065 H 
ATOM     99  H   UNL A   1      43.827  27.269  32.848  1.00  0.00     0.065 H 
ATOM    100  C   UNL A   1      42.744  29.359  34.542  1.00  0.00     0.037 A 
ATOM    101  H   UNL A   1      43.227  30.517  37.049  1.00  0.00     0.065 H 
BRANCH  82 102
ATOM    102  C   UNL A   1      40.424  27.902  29.019  1.00  0.00     0.064 A 
ATOM    103  C   UNL A   1      39.668  26.722  28.979  1.00  0.00     0.173 A 
ATOM    104  C   UNL A   1      41.161  28.249  27.876  1.00  0.00     0.173 A 
ATOM    105  F   UNL A   1      38.952  26.342  30.048  1.00  0.00    -0.203 F 
ATOM    106  C   UNL A   1      39.656  25.918  27.842  1.00  0.00     0.198 A 
ATOM    107  C   UNL A   1      41.125  27.458  26.732  1.00  0.00     0.198 A 
ATOM    108  F   UNL A   1      41.896  29.372  27.860  1.00  0.00    -0.203 F 
ATOM    109  F   UNL A   1      38.947  24.781  27.836  1.00  0.00    -0.200 F 
ATOM    110  C   UNL A   1      40.374  26.292  26.716  1.00  0.00     0.200 A 
ATOM    111  F   UNL A   1      41.807  27.829  25.640  1.00  0.00    -0.200 F 
ATOM    112  F   UNL A   1      40.343  25.528  25.615  1.00  0.00    -0.200 F 
ENDBRANCH  82 102
BRANCH  85 113
ATOM    113  C   UNL A   1      39.600  33.951  36.920  1.00  0.00     0.064 A 
ATOM    114  C   UNL A   1      38.816  33.531  38.005  1.00  0.00     0.173 A 
ATOM    115  C   UNL A   1      40.199  35.216  37.002  1.00  0.00     0.173 A 
ATOM    116  F   UNL A   1      38.205  32.338  37.967  1.00  0.00    -0.203 F 
ATOM    117  C   UNL A   1      38.608  34.359  39.106  1.00  0.00     0.198 A 
ATOM    118  C   UNL A   1      40.019  36.028  38.119  1.00  0.00     0.198 A 
ATOM    119  F   UNL A   1      40.963  35.665  35.995  1.00  0.00    -0.203 F 
ATOM    120  F   UNL A   1      37.799  33.960  40.097  1.00  0.00    -0.200 F 
ATOM    121  C   UNL A   1      39.211  35.606  39.164  1.00  0.00     0.200 A 
ATOM    122  F   UNL A   1      40.617  37.227  38.177  1.00  0.00    -0.200 F 
ATOM    123  F   UNL A   1      39.006  36.404  40.220  1.00  0.00    -0.200 F 
ENDBRANCH  85 113
BRANCH 100 124
ATOM    124  C   UNL A   1      43.879  28.709  35.279  1.00  0.00     0.064 A 
ATOM    125  C   UNL A   1      45.196  29.175  35.161  1.00  0.00     0.173 A 
ATOM    126  C   UNL A   1      43.642  27.626  36.140  1.00  0.00     0.173 A 
ATOM    127  F   UNL A   1      45.479  30.198  34.339  1.00  0.00    -0.203 F 
ATOM    128  C   UNL A   1      46.238  28.565  35.854  1.00  0.00     0.198 A 
ATOM    129  C   UNL A   1      44.679  27.040  36.857  1.00  0.00     0.198 A 
ATOM    130  F   UNL A   1      42.399  27.144  36.295  1.00  0.00    -0.203 F 
ATOM    131  F   UNL A   1      47.496  28.994  35.684  1.00  0.00    -0.200 F 
ATOM    132  C   UNL A   1      45.977  27.503  36.708  1.00  0.00     0.200 A 
ATOM    133  F   UNL A   1      44.424  26.024  37.695  1.00  0.00    -0.200 F 
ATOM    134  F   UNL A   1      46.980  26.922  37.380  1.00  0.00    -0.200 F 
ENDBRANCH 100 124
ENDBRANCH  65  68
ENDBRANCH  55  58
ENDBRANCH  51  54
ENDBRANCH  48  51
ENDBRANCH  45  48
ENDBRANCH   1  45
TORSDOF 17
ENDMDL
MODEL 8
REMARK VINA RESULT:     -11.9      5.868     11.489
REMARK SMILES C[C@@H](C(=O)NCCCCCCNC(=O)c1ccc(-c2c3nc(c(-c4c(F)c(F)c(F)c(F)c4F)c4ccc([nH]4)c(-c4c(F)c(F)c(F)c(F)c4F)c4nc(c(-c5c(F)c(F)c(F)c(F)c5F)c5ccc2[nH]5)C=C4)C=C3)cc1)c1ccc(OC2CCCC2)cc1F
REMARK SMILES IDX 8 1 7 4 6 7 5 10 3 11 4 12 2 14 1 16 78 20 79 21 89 22 80 23
REMARK SMILES IDX 88 25 90 26 81 27 82 30 83 31 84 32 87 33 85 35 86 38 9 45
REMARK SMILES IDX 10 48 11 51 12 54 13 55 14 57 15 58 16 59 77 60 17 61 76 63
REMARK SMILES IDX 18 65 19 68 20 69 70 70 21 71 75 72 69 73 71 74 22 75 74 76
REMARK SMILES IDX 68 78 67 80 23 82 55 85 35 86 54 87 36 88 39 89 53 90 72 91
REMARK SMILES IDX 37 92 38 94 52 96 73 97 40 100 24 102 25 103 33 104 26 105
REMARK SMILES IDX 27 106 31 107 34 108 28 109 29 110 32 111 30 112 56 113
REMARK SMILES IDX 57 114 65 115 58 116 59 117 63 118 66 119 60 120 61 121
REMARK SMILES IDX 64 122 62 123 41 124 42 125 50 126 43 127 44 128 48 129
REMARK SMILES IDX 51 130 45 131 46 132 49 133 47 134
REMARK H PARENT 8 2 8 3 7 5 7 6 6 8 6 9 5 13 2 15 1 17 1 18 1 19 79 24 80 28
REMARK H PARENT 88 29 83 34 84 36 84 37 87 39 87 40 85 41 85 42 86 43 86 44
REMARK H PARENT 9 46 9 47 10 49 10 50 11 52 11 53 12 56 16 62 77 64 17 66
REMARK H PARENT 76 67 75 77 69 79 71 81 74 83 68 84 36 93 39 95 72 98 37 99
REMARK H PARENT 73 101
REMARK Flexibility Score: inf
ROOT
ATOM      1  C   UNL A   1      35.942  21.588  25.675  1.00  0.00    -0.052 C 
ATOM      2  H   UNL A   1      34.941  21.506  25.306  1.00  0.00     0.027 H 
ATOM      3  H   UNL A   1      36.128  20.979  26.536  1.00  0.00     0.027 H 
ENDROOT
BRANCH   1   4
ATOM      4  C   UNL A   1      36.169  23.040  26.119  1.00  0.00    -0.036 C 
ATOM      5  H   UNL A   1      35.545  23.234  26.966  1.00  0.00     0.028 H 
ATOM      6  H   UNL A   1      37.211  23.135  26.342  1.00  0.00     0.028 H 
BRANCH   4   7
ATOM      7  C   UNL A   1      35.852  24.078  25.040  1.00  0.00     0.017 C 
ATOM      8  H   UNL A   1      36.762  24.530  24.708  1.00  0.00     0.049 H 
ATOM      9  H   UNL A   1      35.365  23.591  24.221  1.00  0.00     0.049 H 
BRANCH   7  10
ATOM     10  N   UNL A   1      34.976  25.100  25.570  1.00  0.00    -0.356 N 
ATOM     11  C   UNL A   1      33.821  25.617  25.063  1.00  0.00     0.227 C 
ATOM     12  O   UNL A   1      33.374  26.611  25.635  1.00  0.00    -0.274 OA
ATOM     13  H   UNL A   1      35.258  25.482  26.432  1.00  0.00     0.163 HD
BRANCH  11  14
ATOM     14  C   UNL A   1      33.141  24.927  23.871  1.00  0.00     0.063 C 
ATOM     15  H   UNL A   1      33.875  25.003  23.096  1.00  0.00     0.045 H 
BRANCH  14  16
ATOM     16  C   UNL A   1      31.857  25.628  23.422  1.00  0.00    -0.049 C 
ATOM     17  H   UNL A   1      31.752  26.552  23.951  1.00  0.00     0.024 H 
ATOM     18  H   UNL A   1      31.016  24.999  23.630  1.00  0.00     0.024 H 
ATOM     19  H   UNL A   1      31.905  25.822  22.371  1.00  0.00     0.024 H 
ENDBRANCH  14  16
BRANCH  14  20
ATOM     20  C   UNL A   1      32.834  23.455  24.096  1.00  0.00     0.000 A 
ATOM     21  C   UNL A   1      32.217  22.980  25.260  1.00  0.00    -0.052 A 
ATOM     22  C   UNL A   1      33.098  22.537  23.078  1.00  0.00     0.130 A 
ATOM     23  C   UNL A   1      31.906  21.625  25.395  1.00  0.00    -0.019 A 
ATOM     24  H   UNL A   1      31.989  23.636  26.023  1.00  0.00     0.063 H 
ATOM     25  C   UNL A   1      32.774  21.189  23.202  1.00  0.00     0.016 A 
ATOM     26  F   UNL A   1      33.650  22.954  21.929  1.00  0.00    -0.207 F 
ATOM     27  C   UNL A   1      32.164  20.723  24.361  1.00  0.00     0.122 A 
ATOM     28  H   UNL A   1      31.481  21.286  26.272  1.00  0.00     0.066 H 
ATOM     29  H   UNL A   1      32.988  20.535  22.433  1.00  0.00     0.069 H 
BRANCH  27  30
ATOM     30  O   UNL A   1      31.777  19.445  24.626  1.00  0.00    -0.490 OA
BRANCH  30  31
ATOM     31  C   UNL A   1      32.664  18.341  24.508  1.00  0.00     0.099 C 
ATOM     32  C   UNL A   1      32.799  17.709  23.126  1.00  0.00    -0.016 C 
ATOM     33  C   UNL A   1      34.079  18.577  25.029  1.00  0.00    -0.016 C 
ATOM     34  H   UNL A   1      32.145  17.656  25.145  1.00  0.00     0.074 H 
ATOM     35  C   UNL A   1      34.079  16.896  23.231  1.00  0.00    -0.050 C 
ATOM     36  H   UNL A   1      32.885  18.460  22.368  1.00  0.00     0.030 H 
ATOM     37  H   UNL A   1      31.951  17.115  22.854  1.00  0.00     0.030 H 
ATOM     38  C   UNL A   1      34.972  17.636  24.224  1.00  0.00    -0.050 C 
ATOM     39  H   UNL A   1      34.137  18.347  26.072  1.00  0.00     0.030 H 
ATOM     40  H   UNL A   1      34.377  19.599  24.917  1.00  0.00     0.030 H 
ATOM     41  H   UNL A   1      34.558  16.832  22.276  1.00  0.00     0.027 H 
ATOM     42  H   UNL A   1      33.881  15.895  23.554  1.00  0.00     0.027 H 
ATOM     43  H   UNL A   1      35.716  18.199  23.699  1.00  0.00     0.027 H 
ATOM     44  H   UNL A   1      35.472  16.945  24.870  1.00  0.00     0.027 H 
ENDBRANCH  30  31
ENDBRANCH  27  30
ENDBRANCH  14  20
ENDBRANCH  11  14
ENDBRANCH   7  10
ENDBRANCH   4   7
ENDBRANCH   1   4
BRANCH   1  45
ATOM     45  C   UNL A   1      36.893  21.090  24.584  1.00  0.00    -0.052 C 
ATOM     46  H   UNL A   1      37.510  21.910  24.280  1.00  0.00     0.027 H 
ATOM     47  H   UNL A   1      36.277  20.712  23.795  1.00  0.00     0.027 H 
BRANCH  45  48
ATOM     48  C   UNL A   1      37.806  19.938  25.008  1.00  0.00    -0.036 C 
ATOM     49  H   UNL A   1      38.101  19.405  24.128  1.00  0.00     0.028 H 
ATOM     50  H   UNL A   1      37.244  19.337  25.691  1.00  0.00     0.028 H 
BRANCH  48  51
ATOM     51  C   UNL A   1      39.066  20.373  25.747  1.00  0.00     0.018 C 
ATOM     52  H   UNL A   1      38.789  20.751  26.709  1.00  0.00     0.049 H 
ATOM     53  H   UNL A   1      39.551  21.126  25.161  1.00  0.00     0.049 H 
BRANCH  51  54
ATOM     54  N   UNL A   1      40.001  19.273  25.926  1.00  0.00    -0.352 N 
ATOM     55  C   UNL A   1      41.356  19.310  26.127  1.00  0.00     0.251 C 
ATOM     56  H   UNL A   1      39.603  18.373  25.899  1.00  0.00     0.163 HD
ATOM     57  O   UNL A   1      42.024  18.279  26.054  1.00  0.00    -0.269 OA
BRANCH  55  58
ATOM     58  C   UNL A   1      42.024  20.598  26.408  1.00  0.00     0.039 A 
ATOM     59  C   UNL A   1      42.410  21.406  25.337  1.00  0.00    -0.049 A 
ATOM     60  C   UNL A   1      42.259  21.012  27.723  1.00  0.00    -0.049 A 
ATOM     61  C   UNL A   1      42.965  22.662  25.584  1.00  0.00    -0.053 A 
ATOM     62  H   UNL A   1      42.285  21.075  24.368  1.00  0.00     0.063 H 
ATOM     63  C   UNL A   1      42.749  22.293  27.968  1.00  0.00    -0.053 A 
ATOM     64  H   UNL A   1      42.072  20.370  28.510  1.00  0.00     0.063 H 
ATOM     65  C   UNL A   1      43.097  23.133  26.901  1.00  0.00    -0.014 A 
ATOM     66  H   UNL A   1      43.279  23.248  24.795  1.00  0.00     0.063 H 
ATOM     67  H   UNL A   1      42.856  22.624  28.939  1.00  0.00     0.063 H 
BRANCH  65  68
ATOM     68  C   UNL A   1      43.558  24.520  27.173  1.00  0.00     0.031 A 
ATOM     69  C   UNL A   1      42.595  25.561  27.673  1.00  0.00     0.074 A 
ATOM     70  C   UNL A   1      44.835  24.854  26.900  1.00  0.00     0.049 A 
ATOM     71  N   UNL A   1      42.802  26.832  27.905  1.00  0.00    -0.248 NA
ATOM     72  C   UNL A   1      41.213  25.122  27.926  1.00  0.00    -0.034 C 
ATOM     73  C   UNL A   1      45.850  23.945  26.362  1.00  0.00    -0.036 A 
ATOM     74  N   UNL A   1      45.496  26.051  27.025  1.00  0.00    -0.354 N 
ATOM     75  C   UNL A   1      41.581  27.346  28.318  1.00  0.00     0.074 A 
ATOM     76  C   UNL A   1      40.624  26.261  28.266  1.00  0.00    -0.034 C 
ATOM     77  H   UNL A   1      40.808  24.176  27.858  1.00  0.00     0.065 H 
ATOM     78  C   UNL A   1      47.007  24.611  26.219  1.00  0.00    -0.036 A 
ATOM     79  H   UNL A   1      45.699  22.951  26.131  1.00  0.00     0.065 H 
ATOM     80  C   UNL A   1      46.807  26.001  26.612  1.00  0.00     0.049 A 
ATOM     81  H   UNL A   1      45.073  26.866  27.376  1.00  0.00     0.167 HD
ATOM     82  C   UNL A   1      41.289  28.606  28.722  1.00  0.00     0.037 A 
ATOM     83  H   UNL A   1      39.618  26.360  28.468  1.00  0.00     0.065 H 
ATOM     84  H   UNL A   1      47.894  24.204  25.884  1.00  0.00     0.065 H 
ATOM     85  C   UNL A   1      47.737  26.973  26.541  1.00  0.00     0.037 A 
ATOM     86  C   UNL A   1      42.251  29.675  28.799  1.00  0.00     0.049 A 
ATOM     87  C   UNL A   1      47.377  28.366  26.987  1.00  0.00     0.074 A 
ATOM     88  C   UNL A   1      42.068  30.963  29.274  1.00  0.00    -0.036 A 
ATOM     89  N   UNL A   1      43.571  29.585  28.386  1.00  0.00    -0.354 N 
ATOM     90  N   UNL A   1      46.241  28.816  27.461  1.00  0.00    -0.248 NA
ATOM     91  C   UNL A   1      48.430  29.386  26.888  1.00  0.00    -0.034 C 
ATOM     92  C   UNL A   1      43.260  31.670  29.092  1.00  0.00    -0.036 A 
ATOM     93  H   UNL A   1      41.201  31.337  29.690  1.00  0.00     0.065 H 
ATOM     94  C   UNL A   1      44.203  30.806  28.560  1.00  0.00     0.049 A 
ATOM     95  H   UNL A   1      43.996  28.775  28.022  1.00  0.00     0.167 HD
ATOM     96  C   UNL A   1      46.451  30.159  27.743  1.00  0.00     0.074 A 
ATOM     97  C   UNL A   1      47.830  30.445  27.409  1.00  0.00    -0.034 C 
ATOM     98  H   UNL A   1      49.388  29.300  26.512  1.00  0.00     0.065 H 
ATOM     99  H   UNL A   1      43.412  32.666  29.316  1.00  0.00     0.065 H 
ATOM    100  C   UNL A   1      45.579  31.075  28.229  1.00  0.00     0.037 A 
ATOM    101  H   UNL A   1      48.286  31.359  27.558  1.00  0.00     0.065 H 
BRANCH  82 102
ATOM    102  C   UNL A   1      39.875  28.912  29.120  1.00  0.00     0.064 A 
ATOM    103  C   UNL A   1      38.921  29.329  28.181  1.00  0.00     0.173 A 
ATOM    104  C   UNL A   1      39.448  28.694  30.439  1.00  0.00     0.173 A 
ATOM    105  F   UNL A   1      39.279  29.558  26.909  1.00  0.00    -0.203 F 
ATOM    106  C   UNL A   1      37.592  29.526  28.551  1.00  0.00     0.198 A 
ATOM    107  C   UNL A   1      38.114  28.866  30.799  1.00  0.00     0.198 A 
ATOM    108  F   UNL A   1      40.321  28.289  31.375  1.00  0.00    -0.203 F 
ATOM    109  F   UNL A   1      36.702  29.950  27.643  1.00  0.00    -0.200 F 
ATOM    110  C   UNL A   1      37.188  29.283  29.855  1.00  0.00     0.200 A 
ATOM    111  F   UNL A   1      37.723  28.616  32.056  1.00  0.00    -0.200 F 
ATOM    112  F   UNL A   1      35.905  29.452  30.203  1.00  0.00    -0.200 F 
ENDBRANCH  82 102
BRANCH  85 113
ATOM    113  C   UNL A   1      49.100  26.674  26.022  1.00  0.00     0.064 A 
ATOM    114  C   UNL A   1      50.100  26.171  26.867  1.00  0.00     0.173 A 
ATOM    115  C   UNL A   1      49.442  26.927  24.686  1.00  0.00     0.173 A 
ATOM    116  F   UNL A   1      49.830  25.932  28.158  1.00  0.00    -0.203 F 
ATOM    117  C   UNL A   1      51.398  25.968  26.403  1.00  0.00     0.198 A 
ATOM    118  C   UNL A   1      50.731  26.689  24.216  1.00  0.00     0.198 A 
ATOM    119  F   UNL A   1      48.522  27.403  23.835  1.00  0.00    -0.203 F 
ATOM    120  F   UNL A   1      52.351  25.551  27.248  1.00  0.00    -0.200 F 
ATOM    121  C   UNL A   1      51.713  26.224  25.077  1.00  0.00     0.200 A 
ATOM    122  F   UNL A   1      51.026  26.924  22.929  1.00  0.00    -0.200 F 
ATOM    123  F   UNL A   1      52.962  26.034  24.634  1.00  0.00    -0.200 F 
ENDBRANCH  85 113
BRANCH 100 124
ATOM    124  C   UNL A   1      46.096  32.466  28.455  1.00  0.00     0.064 A 
ATOM    125  C   UNL A   1      46.006  33.455  27.465  1.00  0.00     0.173 A 
ATOM    126  C   UNL A   1      46.661  32.823  29.690  1.00  0.00     0.173 A 
ATOM    127  F   UNL A   1      45.488  33.161  26.262  1.00  0.00    -0.203 F 
ATOM    128  C   UNL A   1      46.486  34.742  27.692  1.00  0.00     0.198 A 
ATOM    129  C   UNL A   1      47.110  34.119  29.925  1.00  0.00     0.198 A 
ATOM    130  F   UNL A   1      46.766  31.917  30.674  1.00  0.00    -0.203 F 
ATOM    131  F   UNL A   1      46.437  35.656  26.713  1.00  0.00    -0.200 F 
ATOM    132  C   UNL A   1      47.030  35.075  28.924  1.00  0.00     0.200 A 
ATOM    133  F   UNL A   1      47.620  34.444  31.121  1.00  0.00    -0.200 F 
ATOM    134  F   UNL A   1      47.485  36.317  29.143  1.00  0.00    -0.200 F 
ENDBRANCH 100 124
ENDBRANCH  65  68
ENDBRANCH  55  58
ENDBRANCH  51  54
ENDBRANCH  48  51
ENDBRANCH  45  48
ENDBRANCH   1  45
TORSDOF 17
ENDMDL
MODEL 9
REMARK VINA RESULT:     -11.8      5.894     11.637
REMARK SMILES C[C@@H](C(=O)NCCCCCCNC(=O)c1ccc(-c2c3nc(c(-c4c(F)c(F)c(F)c(F)c4F)c4ccc([nH]4)c(-c4c(F)c(F)c(F)c(F)c4F)c4nc(c(-c5c(F)c(F)c(F)c(F)c5F)c5ccc2[nH]5)C=C4)C=C3)cc1)c1ccc(OC2CCCC2)cc1F
REMARK SMILES IDX 8 1 7 4 6 7 5 10 3 11 4 12 2 14 1 16 78 20 79 21 89 22 80 23
REMARK SMILES IDX 88 25 90 26 81 27 82 30 83 31 84 32 87 33 85 35 86 38 9 45
REMARK SMILES IDX 10 48 11 51 12 54 13 55 14 57 15 58 16 59 77 60 17 61 76 63
REMARK SMILES IDX 18 65 19 68 20 69 70 70 21 71 75 72 69 73 71 74 22 75 74 76
REMARK SMILES IDX 68 78 67 80 23 82 55 85 35 86 54 87 36 88 39 89 53 90 72 91
REMARK SMILES IDX 37 92 38 94 52 96 73 97 40 100 24 102 25 103 33 104 26 105
REMARK SMILES IDX 27 106 31 107 34 108 28 109 29 110 32 111 30 112 56 113
REMARK SMILES IDX 57 114 65 115 58 116 59 117 63 118 66 119 60 120 61 121
REMARK SMILES IDX 64 122 62 123 41 124 42 125 50 126 43 127 44 128 48 129
REMARK SMILES IDX 51 130 45 131 46 132 49 133 47 134
REMARK H PARENT 8 2 8 3 7 5 7 6 6 8 6 9 5 13 2 15 1 17 1 18 1 19 79 24 80 28
REMARK H PARENT 88 29 83 34 84 36 84 37 87 39 87 40 85 41 85 42 86 43 86 44
REMARK H PARENT 9 46 9 47 10 49 10 50 11 52 11 53 12 56 16 62 77 64 17 66
REMARK H PARENT 76 67 75 77 69 79 71 81 74 83 68 84 36 93 39 95 72 98 37 99
REMARK H PARENT 73 101
REMARK Flexibility Score: inf
ROOT
ATOM      1  C   UNL A   1      37.361  22.085  25.079  1.00  0.00    -0.052 C 
ATOM      2  H   UNL A   1      38.284  22.112  25.618  1.00  0.00     0.027 H 
ATOM      3  H   UNL A   1      37.442  22.454  24.077  1.00  0.00     0.027 H 
ENDROOT
BRANCH   1   4
ATOM      4  C   UNL A   1      36.362  23.004  25.796  1.00  0.00    -0.036 C 
ATOM      5  H   UNL A   1      35.554  22.404  26.159  1.00  0.00     0.028 H 
ATOM      6  H   UNL A   1      36.901  23.491  26.582  1.00  0.00     0.028 H 
BRANCH   4   7
ATOM      7  C   UNL A   1      35.782  24.107  24.908  1.00  0.00     0.017 C 
ATOM      8  H   UNL A   1      36.568  24.767  24.607  1.00  0.00     0.049 H 
ATOM      9  H   UNL A   1      35.330  23.660  24.048  1.00  0.00     0.049 H 
BRANCH   7  10
ATOM     10  N   UNL A   1      34.779  24.857  25.632  1.00  0.00    -0.356 N 
ATOM     11  C   UNL A   1      33.500  25.175  25.285  1.00  0.00     0.227 C 
ATOM     12  O   UNL A   1      32.925  25.983  26.015  1.00  0.00    -0.274 OA
ATOM     13  H   UNL A   1      35.065  25.190  26.513  1.00  0.00     0.163 HD
BRANCH  11  14
ATOM     14  C   UNL A   1      32.854  24.499  24.067  1.00  0.00     0.063 C 
ATOM     15  H   UNL A   1      33.549  24.703  23.280  1.00  0.00     0.045 H 
BRANCH  14  16
ATOM     16  C   UNL A   1      31.489  25.090  23.703  1.00  0.00    -0.049 C 
ATOM     17  H   UNL A   1      31.162  25.739  24.488  1.00  0.00     0.024 H 
ATOM     18  H   UNL A   1      30.781  24.298  23.576  1.00  0.00     0.024 H 
ATOM     19  H   UNL A   1      31.572  25.644  22.792  1.00  0.00     0.024 H 
ENDBRANCH  14  16
BRANCH  14  20
ATOM     20  C   UNL A   1      32.708  22.991  24.197  1.00  0.00     0.000 A 
ATOM     21  C   UNL A   1      32.490  22.355  25.426  1.00  0.00    -0.052 A 
ATOM     22  C   UNL A   1      32.708  22.201  23.046  1.00  0.00     0.130 A 
ATOM     23  C   UNL A   1      32.307  20.972  25.486  1.00  0.00    -0.019 A 
ATOM     24  H   UNL A   1      32.463  22.913  26.293  1.00  0.00     0.063 H 
ATOM     25  C   UNL A   1      32.510  20.825  23.100  1.00  0.00     0.016 A 
ATOM     26  F   UNL A   1      32.872  22.773  21.844  1.00  0.00    -0.207 F 
ATOM     27  C   UNL A   1      32.296  20.199  24.323  1.00  0.00     0.122 A 
ATOM     28  H   UNL A   1      32.180  20.515  26.401  1.00  0.00     0.066 H 
ATOM     29  H   UNL A   1      32.522  20.268  22.231  1.00  0.00     0.069 H 
BRANCH  27  30
ATOM     30  O   UNL A   1      32.076  18.872  24.537  1.00  0.00    -0.490 OA
BRANCH  30  31
ATOM     31  C   UNL A   1      33.060  18.019  25.104  1.00  0.00     0.099 C 
ATOM     32  C   UNL A   1      32.623  16.598  25.453  1.00  0.00    -0.016 C 
ATOM     33  C   UNL A   1      34.362  17.901  24.316  1.00  0.00    -0.016 C 
ATOM     34  H   UNL A   1      33.225  18.556  26.015  1.00  0.00     0.074 H 
ATOM     35  C   UNL A   1      33.937  15.852  25.611  1.00  0.00    -0.050 C 
ATOM     36  H   UNL A   1      32.035  16.175  24.666  1.00  0.00     0.030 H 
ATOM     37  H   UNL A   1      32.012  16.554  26.331  1.00  0.00     0.030 H 
ATOM     38  C   UNL A   1      34.925  16.525  24.662  1.00  0.00    -0.050 C 
ATOM     39  H   UNL A   1      35.045  18.671  24.609  1.00  0.00     0.030 H 
ATOM     40  H   UNL A   1      34.199  18.010  23.264  1.00  0.00     0.030 H 
ATOM     41  H   UNL A   1      33.812  14.822  25.348  1.00  0.00     0.027 H 
ATOM     42  H   UNL A   1      34.285  15.881  26.623  1.00  0.00     0.027 H 
ATOM     43  H   UNL A   1      35.035  15.941  23.772  1.00  0.00     0.027 H 
ATOM     44  H   UNL A   1      35.888  16.616  25.121  1.00  0.00     0.027 H 
ENDBRANCH  30  31
ENDBRANCH  27  30
ENDBRANCH  14  20
ENDBRANCH  11  14
ENDBRANCH   7  10
ENDBRANCH   4   7
ENDBRANCH   1   4
BRANCH   1  45
ATOM     45  C   UNL A   1      36.922  20.623  24.961  1.00  0.00    -0.052 C 
ATOM     46  H   UNL A   1      36.380  20.510  24.044  1.00  0.00     0.027 H 
ATOM     47  H   UNL A   1      36.330  20.413  25.827  1.00  0.00     0.027 H 
BRANCH  45  48
ATOM     48  C   UNL A   1      38.067  19.609  24.964  1.00  0.00    -0.036 C 
ATOM     49  H   UNL A   1      38.346  19.417  23.949  1.00  0.00     0.028 H 
ATOM     50  H   UNL A   1      37.703  18.738  25.469  1.00  0.00     0.028 H 
BRANCH  48  51
ATOM     51  C   UNL A   1      39.309  20.064  25.722  1.00  0.00     0.018 C 
ATOM     52  H   UNL A   1      39.018  20.386  26.700  1.00  0.00     0.049 H 
ATOM     53  H   UNL A   1      39.759  20.862  25.170  1.00  0.00     0.049 H 
BRANCH  51  54
ATOM     54  N   UNL A   1      40.291  18.998  25.851  1.00  0.00    -0.352 N 
ATOM     55  C   UNL A   1      41.642  19.084  26.061  1.00  0.00     0.251 C 
ATOM     56  H   UNL A   1      39.932  18.084  25.778  1.00  0.00     0.163 HD
ATOM     57  O   UNL A   1      42.354  18.089  25.940  1.00  0.00    -0.269 OA
BRANCH  55  58
ATOM     58  C   UNL A   1      42.252  20.384  26.408  1.00  0.00     0.039 A 
ATOM     59  C   UNL A   1      42.811  21.161  25.390  1.00  0.00    -0.049 A 
ATOM     60  C   UNL A   1      42.264  20.841  27.729  1.00  0.00    -0.049 A 
ATOM     61  C   UNL A   1      43.315  22.428  25.686  1.00  0.00    -0.053 A 
ATOM     62  H   UNL A   1      42.850  20.799  24.425  1.00  0.00     0.063 H 
ATOM     63  C   UNL A   1      42.705  22.132  28.011  1.00  0.00    -0.053 A 
ATOM     64  H   UNL A   1      41.948  20.224  28.494  1.00  0.00     0.063 H 
ATOM     65  C   UNL A   1      43.225  22.941  26.991  1.00  0.00    -0.014 A 
ATOM     66  H   UNL A   1      43.756  22.991  24.942  1.00  0.00     0.063 H 
ATOM     67  H   UNL A   1      42.647  22.495  28.976  1.00  0.00     0.063 H 
BRANCH  65  68
ATOM     68  C   UNL A   1      43.632  24.339  27.291  1.00  0.00     0.031 A 
ATOM     69  C   UNL A   1      42.622  25.342  27.773  1.00  0.00     0.074 A 
ATOM     70  C   UNL A   1      44.905  24.716  27.061  1.00  0.00     0.049 A 
ATOM     71  N   UNL A   1      42.780  26.617  28.024  1.00  0.00    -0.248 NA
ATOM     72  C   UNL A   1      41.248  24.857  27.980  1.00  0.00    -0.034 C 
ATOM     73  C   UNL A   1      45.965  23.846  26.544  1.00  0.00    -0.036 A 
ATOM     74  N   UNL A   1      45.524  25.933  27.218  1.00  0.00    -0.354 N 
ATOM     75  C   UNL A   1      41.531  27.087  28.405  1.00  0.00     0.074 A 
ATOM     76  C   UNL A   1      40.613  25.972  28.314  1.00  0.00    -0.034 C 
ATOM     77  H   UNL A   1      40.876  23.899  27.889  1.00  0.00     0.065 H 
ATOM     78  C   UNL A   1      47.103  24.551  26.443  1.00  0.00    -0.036 A 
ATOM     79  H   UNL A   1      45.854  22.851  26.298  1.00  0.00     0.065 H 
ATOM     80  C   UNL A   1      46.847  25.930  26.844  1.00  0.00     0.049 A 
ATOM     81  H   UNL A   1      45.064  26.730  27.565  1.00  0.00     0.167 HD
ATOM     82  C   UNL A   1      41.187  28.332  28.814  1.00  0.00     0.037 A 
ATOM     83  H   UNL A   1      39.597  26.036  28.485  1.00  0.00     0.065 H 
ATOM     84  H   UNL A   1      48.013  24.177  26.131  1.00  0.00     0.065 H 
ATOM     85  C   UNL A   1      47.747  26.932  26.812  1.00  0.00     0.037 A 
ATOM     86  C   UNL A   1      42.111  29.431  28.931  1.00  0.00     0.049 A 
ATOM     87  C   UNL A   1      47.328  28.307  27.261  1.00  0.00     0.074 A 
ATOM     88  C   UNL A   1      41.872  30.706  29.413  1.00  0.00    -0.036 A 
ATOM     89  N   UNL A   1      43.445  29.388  28.557  1.00  0.00    -0.354 N 
ATOM     90  N   UNL A   1      46.165  28.715  27.705  1.00  0.00    -0.248 NA
ATOM     91  C   UNL A   1      48.351  29.362  27.205  1.00  0.00    -0.034 C 
ATOM     92  C   UNL A   1      43.046  31.453  29.275  1.00  0.00    -0.036 A 
ATOM     93  H   UNL A   1      40.981  31.047  29.807  1.00  0.00     0.065 H 
ATOM     94  C   UNL A   1      44.032  30.626  28.763  1.00  0.00     0.049 A 
ATOM     95  H   UNL A   1      43.906  28.595  28.197  1.00  0.00     0.167 HD
ATOM     96  C   UNL A   1      46.323  30.061  28.008  1.00  0.00     0.074 A 
ATOM     97  C   UNL A   1      47.701  30.395  27.718  1.00  0.00    -0.034 C 
ATOM     98  H   UNL A   1      49.321  29.310  26.857  1.00  0.00     0.065 H 
ATOM     99  H   UNL A   1      43.159  32.451  29.515  1.00  0.00     0.065 H 
ATOM    100  C   UNL A   1      45.408  30.943  28.476  1.00  0.00     0.037 A 
ATOM    101  H   UNL A   1      48.123  31.321  27.890  1.00  0.00     0.065 H 
BRANCH  82 102
ATOM    102  C   UNL A   1      39.753  28.588  29.172  1.00  0.00     0.064 A 
ATOM    103  C   UNL A   1      39.274  28.391  30.476  1.00  0.00     0.173 A 
ATOM    104  C   UNL A   1      38.870  29.126  28.223  1.00  0.00     0.173 A 
ATOM    105  F   UNL A   1      40.075  27.872  31.418  1.00  0.00    -0.203 F 
ATOM    106  C   UNL A   1      37.961  28.714  30.812  1.00  0.00     0.198 A 
ATOM    107  C   UNL A   1      37.568  29.473  28.570  1.00  0.00     0.198 A 
ATOM    108  F   UNL A   1      39.281  29.340  26.963  1.00  0.00    -0.203 F 
ATOM    109  F   UNL A   1      37.518  28.493  32.057  1.00  0.00    -0.200 F 
ATOM    110  C   UNL A   1      37.114  29.265  29.863  1.00  0.00     0.200 A 
ATOM    111  F   UNL A   1      36.756  30.020  27.655  1.00  0.00    -0.200 F 
ATOM    112  F   UNL A   1      35.858  29.597  30.195  1.00  0.00    -0.200 F 
ENDBRANCH  82 102
BRANCH  85 113
ATOM    113  C   UNL A   1      49.133  26.683  26.331  1.00  0.00     0.064 A 
ATOM    114  C   UNL A   1      49.488  26.919  24.995  1.00  0.00     0.173 A 
ATOM    115  C   UNL A   1      50.118  26.163  27.184  1.00  0.00     0.173 A 
ATOM    116  F   UNL A   1      48.578  27.395  24.134  1.00  0.00    -0.203 F 
ATOM    117  C   UNL A   1      50.762  26.609  24.523  1.00  0.00     0.198 A 
ATOM    118  C   UNL A   1      51.402  25.888  26.719  1.00  0.00     0.198 A 
ATOM    119  F   UNL A   1      49.833  25.924  28.473  1.00  0.00    -0.203 F 
ATOM    120  F   UNL A   1      51.053  26.780  23.226  1.00  0.00    -0.200 F 
ATOM    121  C   UNL A   1      51.719  26.097  25.386  1.00  0.00     0.200 A 
ATOM    122  F   UNL A   1      52.327  25.407  27.561  1.00  0.00    -0.200 F 
ATOM    123  F   UNL A   1      52.942  25.794  24.930  1.00  0.00    -0.200 F 
ENDBRANCH  85 113
BRANCH 100 124
ATOM    124  C   UNL A   1      45.873  32.347  28.733  1.00  0.00     0.064 A 
ATOM    125  C   UNL A   1      46.431  32.724  29.963  1.00  0.00     0.173 A 
ATOM    126  C   UNL A   1      45.788  33.321  27.725  1.00  0.00     0.173 A 
ATOM    127  F   UNL A   1      46.521  31.835  30.965  1.00  0.00    -0.203 F 
ATOM    128  C   UNL A   1      46.862  34.030  30.184  1.00  0.00     0.198 A 
ATOM    129  C   UNL A   1      46.250  34.615  27.938  1.00  0.00     0.198 A 
ATOM    130  F   UNL A   1      45.267  33.011  26.527  1.00  0.00    -0.203 F 
ATOM    131  F   UNL A   1      47.344  34.379  31.384  1.00  0.00    -0.200 F 
ATOM    132  C   UNL A   1      46.778  34.971  29.169  1.00  0.00     0.200 A 
ATOM    133  F   UNL A   1      46.184  35.520  26.951  1.00  0.00    -0.200 F 
ATOM    134  F   UNL A   1      47.201  36.226  29.382  1.00  0.00    -0.200 F 
ENDBRANCH 100 124
ENDBRANCH  65  68
ENDBRANCH  55  58
ENDBRANCH  51  54
ENDBRANCH  48  51
ENDBRANCH  45  48
ENDBRANCH   1  45
TORSDOF 17
ENDMDL
MODEL 10
REMARK VINA RESULT:     -11.8      2.047      4.679
REMARK SMILES C[C@@H](C(=O)NCCCCCCNC(=O)c1ccc(-c2c3nc(c(-c4c(F)c(F)c(F)c(F)c4F)c4ccc([nH]4)c(-c4c(F)c(F)c(F)c(F)c4F)c4nc(c(-c5c(F)c(F)c(F)c(F)c5F)c5ccc2[nH]5)C=C4)C=C3)cc1)c1ccc(OC2CCCC2)cc1F
REMARK SMILES IDX 8 1 7 4 6 7 5 10 3 11 4 12 2 14 1 16 78 20 79 21 89 22 80 23
REMARK SMILES IDX 88 25 90 26 81 27 82 30 83 31 84 32 87 33 85 35 86 38 9 45
REMARK SMILES IDX 10 48 11 51 12 54 13 55 14 57 15 58 16 59 77 60 17 61 76 63
REMARK SMILES IDX 18 65 19 68 20 69 70 70 21 71 75 72 69 73 71 74 22 75 74 76
REMARK SMILES IDX 68 78 67 80 23 82 55 85 35 86 54 87 36 88 39 89 53 90 72 91
REMARK SMILES IDX 37 92 38 94 52 96 73 97 40 100 24 102 25 103 33 104 26 105
REMARK SMILES IDX 27 106 31 107 34 108 28 109 29 110 32 111 30 112 56 113
REMARK SMILES IDX 57 114 65 115 58 116 59 117 63 118 66 119 60 120 61 121
REMARK SMILES IDX 64 122 62 123 41 124 42 125 50 126 43 127 44 128 48 129
REMARK SMILES IDX 51 130 45 131 46 132 49 133 47 134
REMARK H PARENT 8 2 8 3 7 5 7 6 6 8 6 9 5 13 2 15 1 17 1 18 1 19 79 24 80 28
REMARK H PARENT 88 29 83 34 84 36 84 37 87 39 87 40 85 41 85 42 86 43 86 44
REMARK H PARENT 9 46 9 47 10 49 10 50 11 52 11 53 12 56 16 62 77 64 17 66
REMARK H PARENT 76 67 75 77 69 79 71 81 74 83 68 84 36 93 39 95 72 98 37 99
REMARK H PARENT 73 101
REMARK Flexibility Score: inf
ROOT
ATOM      1  C   UNL A   1      32.659  29.866  27.272  1.00  0.00    -0.052 C 
ATOM      2  H   UNL A   1      33.641  29.980  26.863  1.00  0.00     0.027 H 
ATOM      3  H   UNL A   1      32.538  30.341  28.224  1.00  0.00     0.027 H 
ENDROOT
BRANCH   1   4
ATOM      4  C   UNL A   1      32.409  28.369  27.504  1.00  0.00    -0.036 C 
ATOM      5  H   UNL A   1      33.344  27.905  27.741  1.00  0.00     0.028 H 
ATOM      6  H   UNL A   1      31.698  28.295  28.300  1.00  0.00     0.028 H 
BRANCH   4   7
ATOM      7  C   UNL A   1      31.804  27.645  26.300  1.00  0.00     0.017 C 
ATOM      8  H   UNL A   1      31.012  28.237  25.893  1.00  0.00     0.049 H 
ATOM      9  H   UNL A   1      32.566  27.497  25.564  1.00  0.00     0.049 H 
BRANCH   7  10
ATOM     10  N   UNL A   1      31.280  26.358  26.701  1.00  0.00    -0.356 N 
ATOM     11  C   UNL A   1      31.788  25.106  26.518  1.00  0.00     0.227 C 
ATOM     12  O   UNL A   1      31.041  24.170  26.803  1.00  0.00    -0.274 OA
ATOM     13  H   UNL A   1      30.422  26.390  27.182  1.00  0.00     0.163 HD
BRANCH  11  14
ATOM     14  C   UNL A   1      33.233  24.939  26.023  1.00  0.00     0.063 C 
ATOM     15  H   UNL A   1      33.815  25.268  26.858  1.00  0.00     0.045 H 
BRANCH  14  16
ATOM     16  C   UNL A   1      33.556  25.808  24.805  1.00  0.00    -0.049 C 
ATOM     17  H   UNL A   1      34.352  26.480  25.049  1.00  0.00     0.024 H 
ATOM     18  H   UNL A   1      32.687  26.369  24.527  1.00  0.00     0.024 H 
ATOM     19  H   UNL A   1      33.852  25.182  23.990  1.00  0.00     0.024 H 
ENDBRANCH  14  16
BRANCH  14  20
ATOM     20  C   UNL A   1      33.619  23.502  25.707  1.00  0.00     0.000 A 
ATOM     21  C   UNL A   1      33.388  22.914  24.457  1.00  0.00    -0.052 A 
ATOM     22  C   UNL A   1      34.305  22.752  26.663  1.00  0.00     0.130 A 
ATOM     23  C   UNL A   1      33.812  21.608  24.199  1.00  0.00    -0.019 A 
ATOM     24  H   UNL A   1      32.902  23.449  23.721  1.00  0.00     0.063 H 
ATOM     25  C   UNL A   1      34.745  21.456  26.404  1.00  0.00     0.016 A 
ATOM     26  F   UNL A   1      34.585  23.289  27.860  1.00  0.00    -0.207 F 
ATOM     27  C   UNL A   1      34.510  20.877  25.162  1.00  0.00     0.122 A 
ATOM     28  H   UNL A   1      33.606  21.178  23.284  1.00  0.00     0.066 H 
ATOM     29  H   UNL A   1      35.244  20.926  27.134  1.00  0.00     0.069 H 
BRANCH  27  30
ATOM     30  O   UNL A   1      34.885  19.633  24.755  1.00  0.00    -0.490 OA
BRANCH  30  31
ATOM     31  C   UNL A   1      33.943  18.625  24.418  1.00  0.00     0.099 C 
ATOM     32  C   UNL A   1      34.502  17.278  23.970  1.00  0.00    -0.016 C 
ATOM     33  C   UNL A   1      32.884  18.335  25.478  1.00  0.00    -0.016 C 
ATOM     34  H   UNL A   1      33.497  19.106  23.572  1.00  0.00     0.074 H 
ATOM     35  C   UNL A   1      33.317  16.337  24.107  1.00  0.00    -0.050 C 
ATOM     36  H   UNL A   1      35.310  16.970  24.601  1.00  0.00     0.030 H 
ATOM     37  H   UNL A   1      34.901  17.301  22.977  1.00  0.00     0.030 H 
ATOM     38  C   UNL A   1      32.475  16.881  25.259  1.00  0.00    -0.050 C 
ATOM     39  H   UNL A   1      32.042  18.984  25.352  1.00  0.00     0.030 H 
ATOM     40  H   UNL A   1      33.258  18.497  26.467  1.00  0.00     0.030 H 
ATOM     41  H   UNL A   1      33.654  15.346  24.328  1.00  0.00     0.027 H 
ATOM     42  H   UNL A   1      32.751  16.286  23.200  1.00  0.00     0.027 H 
ATOM     43  H   UNL A   1      32.658  16.312  26.147  1.00  0.00     0.027 H 
ATOM     44  H   UNL A   1      31.431  16.812  25.029  1.00  0.00     0.027 H 
ENDBRANCH  30  31
ENDBRANCH  27  30
ENDBRANCH  14  20
ENDBRANCH  11  14
ENDBRANCH   7  10
ENDBRANCH   4   7
ENDBRANCH   1   4
BRANCH   1  45
ATOM     45  C   UNL A   1      31.667  30.547  26.325  1.00  0.00    -0.052 C 
ATOM     46  H   UNL A   1      30.706  30.097  26.469  1.00  0.00     0.027 H 
ATOM     47  H   UNL A   1      32.051  30.409  25.335  1.00  0.00     0.027 H 
BRANCH  45  48
ATOM     48  C   UNL A   1      31.523  32.056  26.526  1.00  0.00    -0.036 C 
ATOM     49  H   UNL A   1      30.578  32.241  26.994  1.00  0.00     0.028 H 
ATOM     50  H   UNL A   1      31.603  32.503  25.558  1.00  0.00     0.028 H 
BRANCH  48  51
ATOM     51  C   UNL A   1      32.613  32.684  27.387  1.00  0.00     0.018 C 
ATOM     52  H   UNL A   1      33.554  32.566  26.892  1.00  0.00     0.049 H 
ATOM     53  H   UNL A   1      32.611  32.190  28.336  1.00  0.00     0.049 H 
BRANCH  51  54
ATOM     54  N   UNL A   1      32.378  34.100  27.618  1.00  0.00    -0.352 N 
ATOM     55  C   UNL A   1      32.963  34.940  28.531  1.00  0.00     0.251 C 
ATOM     56  H   UNL A   1      31.702  34.516  27.036  1.00  0.00     0.163 HD
ATOM     57  O   UNL A   1      32.499  36.062  28.729  1.00  0.00    -0.269 OA
BRANCH  55  58
ATOM     58  C   UNL A   1      34.139  34.486  29.299  1.00  0.00     0.039 A 
ATOM     59  C   UNL A   1      33.948  33.961  30.579  1.00  0.00    -0.049 A 
ATOM     60  C   UNL A   1      35.426  34.568  28.757  1.00  0.00    -0.049 A 
ATOM     61  C   UNL A   1      35.037  33.450  31.286  1.00  0.00    -0.053 A 
ATOM     62  H   UNL A   1      33.006  33.951  30.999  1.00  0.00     0.063 H 
ATOM     63  C   UNL A   1      36.500  33.996  29.434  1.00  0.00    -0.053 A 
ATOM     64  H   UNL A   1      35.579  35.052  27.858  1.00  0.00     0.063 H 
ATOM     65  C   UNL A   1      36.314  33.423  30.700  1.00  0.00    -0.014 A 
ATOM     66  H   UNL A   1      34.904  33.089  32.244  1.00  0.00     0.063 H 
ATOM     67  H   UNL A   1      37.437  33.993  29.001  1.00  0.00     0.063 H 
BRANCH  65  68
ATOM     68  C   UNL A   1      37.454  32.758  31.385  1.00  0.00     0.031 A 
ATOM     69  C   UNL A   1      38.140  31.577  30.757  1.00  0.00     0.074 A 
ATOM     70  C   UNL A   1      37.824  33.183  32.610  1.00  0.00     0.049 A 
ATOM     71  N   UNL A   1      39.106  30.835  31.233  1.00  0.00    -0.248 NA
ATOM     72  C   UNL A   1      37.665  31.161  29.427  1.00  0.00    -0.034 C 
ATOM     73  C   UNL A   1      37.200  34.286  33.345  1.00  0.00    -0.036 A 
ATOM     74  N   UNL A   1      38.803  32.732  33.460  1.00  0.00    -0.354 N 
ATOM     75  C   UNL A   1      39.347  29.861  30.274  1.00  0.00     0.074 A 
ATOM     76  C   UNL A   1      38.397  30.079  29.203  1.00  0.00    -0.034 C 
ATOM     77  H   UNL A   1      36.949  31.598  28.826  1.00  0.00     0.065 H 
ATOM     78  C   UNL A   1      37.821  34.436  34.526  1.00  0.00    -0.036 A 
ATOM     79  H   UNL A   1      36.410  34.857  33.009  1.00  0.00     0.065 H 
ATOM     80  C   UNL A   1      38.856  33.415  34.651  1.00  0.00     0.049 A 
ATOM     81  H   UNL A   1      39.410  31.990  33.237  1.00  0.00     0.167 HD
ATOM     82  C   UNL A   1      40.287  28.887  30.278  1.00  0.00     0.037 A 
ATOM     83  H   UNL A   1      38.303  29.472  28.374  1.00  0.00     0.065 H 
ATOM     84  H   UNL A   1      37.602  35.156  35.231  1.00  0.00     0.065 H 
ATOM     85  C   UNL A   1      39.640  33.227  35.731  1.00  0.00     0.037 A 
ATOM     86  C   UNL A   1      41.249  28.692  31.332  1.00  0.00     0.049 A 
ATOM     87  C   UNL A   1      40.667  32.126  35.708  1.00  0.00     0.074 A 
ATOM     88  C   UNL A   1      42.291  27.783  31.388  1.00  0.00    -0.036 A 
ATOM     89  N   UNL A   1      41.281  29.411  32.518  1.00  0.00    -0.354 N 
ATOM     90  N   UNL A   1      40.943  31.270  34.755  1.00  0.00    -0.248 NA
ATOM     91  C   UNL A   1      41.494  31.967  36.913  1.00  0.00    -0.034 C 
ATOM     92  C   UNL A   1      42.918  27.912  32.631  1.00  0.00    -0.036 A 
ATOM     93  H   UNL A   1      42.560  27.125  30.641  1.00  0.00     0.065 H 
ATOM     94  C   UNL A   1      42.303  28.940  33.326  1.00  0.00     0.049 A 
ATOM     95  H   UNL A   1      40.668  30.146  32.750  1.00  0.00     0.167 HD
ATOM     96  C   UNL A   1      41.990  30.493  35.231  1.00  0.00     0.074 A 
ATOM     97  C   UNL A   1      42.315  30.993  36.549  1.00  0.00    -0.034 C 
ATOM     98  H   UNL A   1      41.447  32.479  37.808  1.00  0.00     0.065 H 
ATOM     99  H   UNL A   1      43.705  27.338  32.973  1.00  0.00     0.065 H 
ATOM    100  C   UNL A   1      42.621  29.453  34.634  1.00  0.00     0.037 A 
ATOM    101  H   UNL A   1      43.089  30.637  37.132  1.00  0.00     0.065 H 
BRANCH  82 102
ATOM    102  C   UNL A   1      40.338  27.948  29.108  1.00  0.00     0.064 A 
ATOM    103  C   UNL A   1      39.592  26.761  29.085  1.00  0.00     0.173 A 
ATOM    104  C   UNL A   1      41.069  28.287  27.959  1.00  0.00     0.173 A 
ATOM    105  F   UNL A   1      38.884  26.387  30.161  1.00  0.00    -0.203 F 
ATOM    106  C   UNL A   1      39.584  25.943  27.958  1.00  0.00     0.198 A 
ATOM    107  C   UNL A   1      41.036  27.482  26.825  1.00  0.00     0.198 A 
ATOM    108  F   UNL A   1      41.794  29.416  27.928  1.00  0.00    -0.203 F 
ATOM    109  F   UNL A   1      38.885  24.799  27.968  1.00  0.00    -0.200 F 
ATOM    110  C   UNL A   1      40.296  26.309  26.826  1.00  0.00     0.200 A 
ATOM    111  F   UNL A   1      41.712  27.846  25.726  1.00  0.00    -0.200 F 
ATOM    112  F   UNL A   1      40.268  25.532  25.734  1.00  0.00    -0.200 F 
ENDBRANCH  82 102
BRANCH  85 113
ATOM    113  C   UNL A   1      39.485  34.091  36.933  1.00  0.00     0.064 A 
ATOM    114  C   UNL A   1      40.140  35.328  37.022  1.00  0.00     0.173 A 
ATOM    115  C   UNL A   1      38.717  33.681  38.032  1.00  0.00     0.173 A 
ATOM    116  F   UNL A   1      40.903  35.757  36.007  1.00  0.00    -0.203 F 
ATOM    117  C   UNL A   1      40.063  36.102  38.179  1.00  0.00     0.198 A 
ATOM    118  C   UNL A   1      38.612  34.472  39.174  1.00  0.00     0.198 A 
ATOM    119  F   UNL A   1      38.066  32.509  37.997  1.00  0.00    -0.203 F 
ATOM    120  F   UNL A   1      40.754  37.247  38.263  1.00  0.00    -0.200 F 
ATOM    121  C   UNL A   1      39.297  35.675  39.253  1.00  0.00     0.200 A 
ATOM    122  F   UNL A   1      37.858  34.062  40.203  1.00  0.00    -0.200 F 
ATOM    123  F   UNL A   1      39.228  36.416  40.366  1.00  0.00    -0.200 F 
ENDBRANCH  85 113
BRANCH 100 124
ATOM    124  C   UNL A   1      43.745  28.805  35.388  1.00  0.00     0.064 A 
ATOM    125  C   UNL A   1      43.524  27.722  36.252  1.00  0.00     0.173 A 
ATOM    126  C   UNL A   1      45.066  29.252  35.220  1.00  0.00     0.173 A 
ATOM    127  F   UNL A   1      42.279  27.267  36.460  1.00  0.00    -0.203 F 
ATOM    128  C   UNL A   1      44.579  27.129  36.941  1.00  0.00     0.198 A 
ATOM    129  C   UNL A   1      46.121  28.635  35.885  1.00  0.00     0.198 A 
ATOM    130  F   UNL A   1      45.333  30.280  34.401  1.00  0.00    -0.203 F 
ATOM    131  F   UNL A   1      44.337  26.130  37.801  1.00  0.00    -0.200 F 
ATOM    132  C   UNL A   1      45.876  27.580  36.751  1.00  0.00     0.200 A 
ATOM    133  F   UNL A   1      47.376  29.061  35.687  1.00  0.00    -0.200 F 
ATOM    134  F   UNL A   1      46.891  27.002  37.409  1.00  0.00    -0.200 F 
ENDBRANCH 100 124
ENDBRANCH  65  68
ENDBRANCH  55  58
ENDBRANCH  51  54
ENDBRANCH  48  51
ENDBRANCH  45  48
ENDBRANCH   1  45
TORSDOF 17
ENDMDL
