MODEL 1
REMARK VINA RESULT:     -13.3      0.000      0.000
REMARK SMILES C[C@@H](C(=O)NCCCCCCNC(=O)c1ccc(-c2c3nc(c(-c4c(F)c(F)c(F)c(F)c4F)c4ccc([nH]4)c(-c4c(F)c(F)c(F)c(F)c4F)c4nc(c(-c5c(F)c(F)c(F)c(F)c5F)c5ccc2[nH]5)C=C4)C=C3)cc1)c1ccc2c3cc(Cl)ccc3n(C(=O)c3cocn3)c2c1
REMARK SMILES IDX 8 1 7 4 6 7 5 10 3 11 4 12 2 14 1 16 78 20 79 21 98 22 80 23
REMARK SMILES IDX 97 25 81 27 89 29 82 30 88 31 83 32 87 33 84 34 86 36 85 38
REMARK SMILES IDX 90 40 91 41 92 42 93 43 96 44 94 45 95 47 9 49 10 52 11 55
REMARK SMILES IDX 12 58 13 59 14 61 15 62 16 63 77 64 17 65 76 67 18 69 19 72
REMARK SMILES IDX 20 73 70 74 21 75 75 76 69 77 71 78 22 79 74 80 68 82 67 84
REMARK SMILES IDX 23 86 55 89 35 90 54 91 36 92 39 93 53 94 72 95 37 96 38 98
REMARK SMILES IDX 52 100 73 101 40 104 24 106 25 107 33 108 26 109 27 110
REMARK SMILES IDX 31 111 34 112 28 113 29 114 32 115 30 116 56 117 57 118
REMARK SMILES IDX 65 119 58 120 59 121 63 122 66 123 60 124 61 125 64 126
REMARK SMILES IDX 62 127 41 128 42 129 50 130 43 131 44 132 48 133 51 134
REMARK SMILES IDX 45 135 46 136 49 137 47 138
REMARK H PARENT 8 2 8 3 7 5 7 6 6 8 6 9 5 13 2 15 1 17 1 18 1 19 79 24 98 26
REMARK H PARENT 80 28 83 35 87 37 86 39 93 46 95 48 9 50 9 51 10 53 10 54
REMARK H PARENT 11 56 11 57 12 60 16 66 77 68 17 70 76 71 75 81 69 83 71 85
REMARK H PARENT 74 87 68 88 36 97 39 99 72 102 37 103 73 105
REMARK Flexibility Score: inf
ROOT
ATOM      1  C   UNL A   1      32.407  30.012  26.882  1.00  0.00    -0.052 C 
ATOM      2  H   UNL A   1      33.272  29.878  26.268  1.00  0.00     0.027 H 
ATOM      3  H   UNL A   1      32.609  30.549  27.786  1.00  0.00     0.027 H 
ENDROOT
BRANCH   1   4
ATOM      4  C   UNL A   1      31.905  28.626  27.309  1.00  0.00    -0.036 C 
ATOM      5  H   UNL A   1      32.716  28.100  27.769  1.00  0.00     0.028 H 
ATOM      6  H   UNL A   1      31.085  28.784  27.978  1.00  0.00     0.028 H 
BRANCH   4   7
ATOM      7  C   UNL A   1      31.375  27.775  26.153  1.00  0.00     0.017 C 
ATOM      8  H   UNL A   1      30.612  28.317  25.637  1.00  0.00     0.049 H 
ATOM      9  H   UNL A   1      32.183  27.552  25.486  1.00  0.00     0.049 H 
BRANCH   7  10
ATOM     10  N   UNL A   1      30.825  26.538  26.654  1.00  0.00    -0.356 N 
ATOM     11  C   UNL A   1      30.696  25.330  26.043  1.00  0.00     0.227 C 
ATOM     12  O   UNL A   1      30.068  24.472  26.666  1.00  0.00    -0.274 OA
ATOM     13  H   UNL A   1      30.494  26.574  27.580  1.00  0.00     0.163 HD
BRANCH  11  14
ATOM     14  C   UNL A   1      31.368  25.081  24.677  1.00  0.00     0.060 C 
ATOM     15  H   UNL A   1      31.476  26.050  24.236  1.00  0.00     0.045 H 
BRANCH  14  16
ATOM     16  C   UNL A   1      30.522  24.224  23.725  1.00  0.00    -0.049 C 
ATOM     17  H   UNL A   1      31.104  23.397  23.377  1.00  0.00     0.024 H 
ATOM     18  H   UNL A   1      30.212  24.818  22.891  1.00  0.00     0.024 H 
ATOM     19  H   UNL A   1      29.660  23.861  24.244  1.00  0.00     0.024 H 
ENDBRANCH  14  16
BRANCH  14  20
ATOM     20  C   UNL A   1      32.731  24.423  24.848  1.00  0.00    -0.034 A 
ATOM     21  C   UNL A   1      33.871  25.174  25.133  1.00  0.00    -0.057 A 
ATOM     22  C   UNL A   1      32.836  23.030  24.714  1.00  0.00    -0.033 A 
ATOM     23  C   UNL A   1      35.106  24.546  25.323  1.00  0.00    -0.052 A 
ATOM     24  H   UNL A   1      33.801  26.202  25.206  1.00  0.00     0.063 H 
ATOM     25  C   UNL A   1      34.087  22.410  24.844  1.00  0.00     0.058 A 
ATOM     26  H   UNL A   1      31.996  22.463  24.522  1.00  0.00     0.065 H 
ATOM     27  C   UNL A   1      35.213  23.143  25.191  1.00  0.00     0.008 A 
ATOM     28  H   UNL A   1      35.940  25.107  25.559  1.00  0.00     0.063 H 
ATOM     29  N   UNL A   1      34.442  21.064  24.706  1.00  0.00    -0.274 N 
ATOM     30  C   UNL A   1      36.286  22.221  25.321  1.00  0.00     0.009 A 
ATOM     31  C   UNL A   1      35.815  20.949  24.962  1.00  0.00     0.057 A 
ATOM     32  C   UNL A   1      37.643  22.392  25.671  1.00  0.00    -0.033 A 
ATOM     33  C   UNL A   1      36.710  19.869  24.831  1.00  0.00    -0.036 A 
ATOM     34  C   UNL A   1      38.511  21.308  25.590  1.00  0.00     0.041 A 
ATOM     35  H   UNL A   1      37.987  23.314  25.984  1.00  0.00     0.065 H 
ATOM     36  C   UNL A   1      38.059  20.069  25.155  1.00  0.00    -0.041 A 
ATOM     37  H   UNL A   1      36.379  18.949  24.502  1.00  0.00     0.065 H 
ATOM     38  Cl  UNL A   1      40.171  21.524  25.992  1.00  0.00    -0.084 Cl
ATOM     39  H   UNL A   1      38.724  19.285  25.071  1.00  0.00     0.064 H 
BRANCH  29  40
ATOM     40  C   UNL A   1      33.533  20.056  24.288  1.00  0.00     0.284 C 
ATOM     41  O   UNL A   1      32.688  20.412  23.461  1.00  0.00    -0.266 OA
BRANCH  40  42
ATOM     42  C   UNL A   1      33.504  18.682  24.780  1.00  0.00     0.167 A 
ATOM     43  C   UNL A   1      32.766  18.129  25.806  1.00  0.00     0.124 A 
ATOM     44  N   UNL A   1      34.183  17.655  24.132  1.00  0.00    -0.211 NA
ATOM     45  O   UNL A   1      32.981  16.781  25.817  1.00  0.00    -0.451 OA
ATOM     46  H   UNL A   1      32.154  18.648  26.455  1.00  0.00     0.107 H 
ATOM     47  C   UNL A   1      33.827  16.572  24.774  1.00  0.00     0.181 A 
ATOM     48  H   UNL A   1      34.162  15.631  24.509  1.00  0.00     0.127 H 
ENDBRANCH  40  42
ENDBRANCH  29  40
ENDBRANCH  14  20
ENDBRANCH  11  14
ENDBRANCH   7  10
ENDBRANCH   4   7
ENDBRANCH   1   4
BRANCH   1  49
ATOM     49  C   UNL A   1      31.393  30.852  26.100  1.00  0.00    -0.052 C 
ATOM     50  H   UNL A   1      30.425  30.419  26.237  1.00  0.00     0.027 H 
ATOM     51  H   UNL A   1      31.718  30.844  25.080  1.00  0.00     0.027 H 
BRANCH  49  52
ATOM     52  C   UNL A   1      31.321  32.321  26.519  1.00  0.00    -0.036 C 
ATOM     53  H   UNL A   1      30.553  32.422  27.258  1.00  0.00     0.028 H 
ATOM     54  H   UNL A   1      31.120  32.885  25.632  1.00  0.00     0.028 H 
BRANCH  52  55
ATOM     55  C   UNL A   1      32.616  32.869  27.100  1.00  0.00     0.018 C 
ATOM     56  H   UNL A   1      33.358  32.895  26.328  1.00  0.00     0.049 H 
ATOM     57  H   UNL A   1      32.918  32.227  27.902  1.00  0.00     0.049 H 
BRANCH  55  58
ATOM     58  N   UNL A   1      32.447  34.207  27.635  1.00  0.00    -0.352 N 
ATOM     59  C   UNL A   1      33.071  34.796  28.706  1.00  0.00     0.251 C 
ATOM     60  H   UNL A   1      31.793  34.771  27.163  1.00  0.00     0.163 HD
ATOM     61  O   UNL A   1      32.663  35.861  29.149  1.00  0.00    -0.269 OA
BRANCH  59  62
ATOM     62  C   UNL A   1      34.236  34.132  29.331  1.00  0.00     0.039 A 
ATOM     63  C   UNL A   1      35.518  34.503  28.922  1.00  0.00    -0.049 A 
ATOM     64  C   UNL A   1      34.066  33.129  30.289  1.00  0.00    -0.049 A 
ATOM     65  C   UNL A   1      36.631  33.879  29.489  1.00  0.00    -0.053 A 
ATOM     66  H   UNL A   1      35.643  35.234  28.204  1.00  0.00     0.063 H 
ATOM     67  C   UNL A   1      35.174  32.567  30.912  1.00  0.00    -0.053 A 
ATOM     68  H   UNL A   1      33.117  32.804  30.533  1.00  0.00     0.063 H 
ATOM     69  C   UNL A   1      36.468  32.914  30.496  1.00  0.00    -0.014 A 
ATOM     70  H   UNL A   1      37.579  34.127  29.165  1.00  0.00     0.063 H 
ATOM     71  H   UNL A   1      35.046  31.893  31.683  1.00  0.00     0.063 H 
BRANCH  69  72
ATOM     72  C   UNL A   1      37.640  32.214  31.078  1.00  0.00     0.031 A 
ATOM     73  C   UNL A   1      38.119  32.579  32.458  1.00  0.00     0.074 A 
ATOM     74  C   UNL A   1      38.294  31.284  30.358  1.00  0.00     0.049 A 
ATOM     75  N   UNL A   1      39.135  32.108  33.136  1.00  0.00    -0.248 NA
ATOM     76  C   UNL A   1      37.372  33.636  33.160  1.00  0.00    -0.034 C 
ATOM     77  C   UNL A   1      37.954  30.877  28.994  1.00  0.00    -0.036 A 
ATOM     78  N   UNL A   1      39.382  30.510  30.675  1.00  0.00    -0.354 N 
ATOM     79  C   UNL A   1      39.159  32.823  34.326  1.00  0.00     0.074 A 
ATOM     80  C   UNL A   1      38.097  33.800  34.255  1.00  0.00    -0.034 C 
ATOM     81  H   UNL A   1      36.509  34.123  32.872  1.00  0.00     0.065 H 
ATOM     82  C   UNL A   1      38.795  29.906  28.604  1.00  0.00    -0.036 A 
ATOM     83  H   UNL A   1      37.190  31.273  28.424  1.00  0.00     0.065 H 
ATOM     84  C   UNL A   1      39.752  29.645  29.675  1.00  0.00     0.049 A 
ATOM     85  H   UNL A   1      39.853  30.570  31.537  1.00  0.00     0.167 HD
ATOM     86  C   UNL A   1      39.977  32.662  35.394  1.00  0.00     0.037 A 
ATOM     87  H   UNL A   1      37.926  34.529  34.965  1.00  0.00     0.065 H 
ATOM     88  H   UNL A   1      38.769  29.422  27.692  1.00  0.00     0.065 H 
ATOM     89  C   UNL A   1      40.748  28.741  29.633  1.00  0.00     0.037 A 
ATOM     90  C   UNL A   1      41.010  31.662  35.474  1.00  0.00     0.049 A 
ATOM     91  C   UNL A   1      41.636  28.573  30.838  1.00  0.00     0.074 A 
ATOM     92  C   UNL A   1      41.850  31.371  36.534  1.00  0.00    -0.036 A 
ATOM     93  N   UNL A   1      41.341  30.789  34.448  1.00  0.00    -0.354 N 
ATOM     94  N   UNL A   1      41.603  29.203  31.988  1.00  0.00    -0.248 NA
ATOM     95  C   UNL A   1      42.692  27.555  30.743  1.00  0.00    -0.034 C 
ATOM     96  C   UNL A   1      42.723  30.354  36.132  1.00  0.00    -0.036 A 
ATOM     97  H   UNL A   1      41.835  31.825  37.460  1.00  0.00     0.065 H 
ATOM     98  C   UNL A   1      42.387  29.971  34.843  1.00  0.00     0.049 A 
ATOM     99  H   UNL A   1      40.898  30.755  33.569  1.00  0.00     0.167 HD
ATOM    100  C   UNL A   1      42.602  28.632  32.765  1.00  0.00     0.074 A 
ATOM    101  C   UNL A   1      43.217  27.598  31.959  1.00  0.00    -0.034 C 
ATOM    102  H   UNL A   1      42.955  26.964  29.940  1.00  0.00     0.065 H 
ATOM    103  H   UNL A   1      43.489  29.958  36.699  1.00  0.00     0.065 H 
ATOM    104  C   UNL A   1      42.974  28.933  34.033  1.00  0.00     0.037 A 
ATOM    105  H   UNL A   1      43.969  26.973  32.289  1.00  0.00     0.065 H 
BRANCH  86 106
ATOM    106  C   UNL A   1      39.788  33.589  36.561  1.00  0.00     0.064 A 
ATOM    107  C   UNL A   1      38.942  33.267  37.633  1.00  0.00     0.173 A 
ATOM    108  C   UNL A   1      40.482  34.807  36.619  1.00  0.00     0.173 A 
ATOM    109  F   UNL A   1      38.245  32.120  37.623  1.00  0.00    -0.203 F 
ATOM    110  C   UNL A   1      38.770  34.144  38.701  1.00  0.00     0.198 A 
ATOM    111  C   UNL A   1      40.335  35.667  37.706  1.00  0.00     0.198 A 
ATOM    112  F   UNL A   1      41.309  35.164  35.624  1.00  0.00    -0.203 F 
ATOM    113  F   UNL A   1      37.912  33.840  39.685  1.00  0.00    -0.200 F 
ATOM    114  C   UNL A   1      39.472  35.339  38.740  1.00  0.00     0.200 A 
ATOM    115  F   UNL A   1      41.025  36.815  37.749  1.00  0.00    -0.200 F 
ATOM    116  F   UNL A   1      39.310  36.179  39.771  1.00  0.00    -0.200 F 
ENDBRANCH  86 106
BRANCH  89 117
ATOM    117  C   UNL A   1      40.933  27.889  28.429  1.00  0.00     0.064 A 
ATOM    118  C   UNL A   1      41.741  28.316  27.366  1.00  0.00     0.173 A 
ATOM    119  C   UNL A   1      40.301  26.644  28.309  1.00  0.00     0.173 A 
ATOM    120  F   UNL A   1      42.351  29.508  27.425  1.00  0.00    -0.203 F 
ATOM    121  C   UNL A   1      41.889  27.542  26.217  1.00  0.00     0.198 A 
ATOM    122  C   UNL A   1      40.473  25.856  27.172  1.00  0.00     0.198 A 
ATOM    123  F   UNL A   1      39.523  26.186  29.301  1.00  0.00    -0.203 F 
ATOM    124  F   UNL A   1      42.626  27.997  25.195  1.00  0.00    -0.200 F 
ATOM    125  C   UNL A   1      41.258  26.310  26.123  1.00  0.00     0.200 A 
ATOM    126  F   UNL A   1      39.875  24.660  27.092  1.00  0.00    -0.200 F 
ATOM    127  F   UNL A   1      41.401  25.565  25.019  1.00  0.00    -0.200 F 
ENDBRANCH  89 117
BRANCH 104 128
ATOM    128  C   UNL A   1      44.057  28.095  34.651  1.00  0.00     0.064 A 
ATOM    129  C   UNL A   1      45.404  28.487  34.628  1.00  0.00     0.173 A 
ATOM    130  C   UNL A   1      43.733  26.895  35.303  1.00  0.00     0.173 A 
ATOM    131  F   UNL A   1      45.766  29.619  34.006  1.00  0.00    -0.203 F 
ATOM    132  C   UNL A   1      46.391  27.691  35.203  1.00  0.00     0.198 A 
ATOM    133  C   UNL A   1      44.718  26.119  35.907  1.00  0.00     0.198 A 
ATOM    134  F   UNL A   1      42.460  26.479  35.362  1.00  0.00    -0.203 F 
ATOM    135  F   UNL A   1      47.677  28.056  35.118  1.00  0.00    -0.200 F 
ATOM    136  C   UNL A   1      46.047  26.512  35.848  1.00  0.00     0.200 A 
ATOM    137  F   UNL A   1      44.382  24.988  36.543  1.00  0.00    -0.200 F 
ATOM    138  F   UNL A   1      46.997  25.749  36.405  1.00  0.00    -0.200 F 
ENDBRANCH 104 128
ENDBRANCH  69  72
ENDBRANCH  59  62
ENDBRANCH  55  58
ENDBRANCH  52  55
ENDBRANCH  49  52
ENDBRANCH   1  49
TORSDOF 17
ENDMDL
MODEL 2
REMARK VINA RESULT:     -13.2      0.627      7.078
REMARK SMILES C[C@@H](C(=O)NCCCCCCNC(=O)c1ccc(-c2c3nc(c(-c4c(F)c(F)c(F)c(F)c4F)c4ccc([nH]4)c(-c4c(F)c(F)c(F)c(F)c4F)c4nc(c(-c5c(F)c(F)c(F)c(F)c5F)c5ccc2[nH]5)C=C4)C=C3)cc1)c1ccc2c3cc(Cl)ccc3n(C(=O)c3cocn3)c2c1
REMARK SMILES IDX 8 1 7 4 6 7 5 10 3 11 4 12 2 14 1 16 78 20 79 21 98 22 80 23
REMARK SMILES IDX 97 25 81 27 89 29 82 30 88 31 83 32 87 33 84 34 86 36 85 38
REMARK SMILES IDX 90 40 91 41 92 42 93 43 96 44 94 45 95 47 9 49 10 52 11 55
REMARK SMILES IDX 12 58 13 59 14 61 15 62 16 63 77 64 17 65 76 67 18 69 19 72
REMARK SMILES IDX 20 73 70 74 21 75 75 76 69 77 71 78 22 79 74 80 68 82 67 84
REMARK SMILES IDX 23 86 55 89 35 90 54 91 36 92 39 93 53 94 72 95 37 96 38 98
REMARK SMILES IDX 52 100 73 101 40 104 24 106 25 107 33 108 26 109 27 110
REMARK SMILES IDX 31 111 34 112 28 113 29 114 32 115 30 116 56 117 57 118
REMARK SMILES IDX 65 119 58 120 59 121 63 122 66 123 60 124 61 125 64 126
REMARK SMILES IDX 62 127 41 128 42 129 50 130 43 131 44 132 48 133 51 134
REMARK SMILES IDX 45 135 46 136 49 137 47 138
REMARK H PARENT 8 2 8 3 7 5 7 6 6 8 6 9 5 13 2 15 1 17 1 18 1 19 79 24 98 26
REMARK H PARENT 80 28 83 35 87 37 86 39 93 46 95 48 9 50 9 51 10 53 10 54
REMARK H PARENT 11 56 11 57 12 60 16 66 77 68 17 70 76 71 75 81 69 83 71 85
REMARK H PARENT 74 87 68 88 36 97 39 99 72 102 37 103 73 105
REMARK Flexibility Score: inf
ROOT
ATOM      1  C   UNL A   1      32.306  29.954  26.849  1.00  0.00    -0.052 C 
ATOM      2  H   UNL A   1      33.181  29.709  26.282  1.00  0.00     0.027 H 
ATOM      3  H   UNL A   1      32.522  30.491  27.749  1.00  0.00     0.027 H 
ENDROOT
BRANCH   1   4
ATOM      4  C   UNL A   1      31.637  28.642  27.282  1.00  0.00    -0.036 C 
ATOM      5  H   UNL A   1      32.262  28.168  28.010  1.00  0.00     0.028 H 
ATOM      6  H   UNL A   1      30.674  28.898  27.672  1.00  0.00     0.028 H 
BRANCH   4   7
ATOM      7  C   UNL A   1      31.403  27.657  26.134  1.00  0.00     0.017 C 
ATOM      8  H   UNL A   1      30.709  28.082  25.441  1.00  0.00     0.049 H 
ATOM      9  H   UNL A   1      32.336  27.462  25.648  1.00  0.00     0.049 H 
BRANCH   7  10
ATOM     10  N   UNL A   1      30.869  26.416  26.643  1.00  0.00    -0.356 N 
ATOM     11  C   UNL A   1      30.765  25.200  26.042  1.00  0.00     0.227 C 
ATOM     12  O   UNL A   1      30.146  24.338  26.668  1.00  0.00    -0.274 OA
ATOM     13  H   UNL A   1      30.529  26.456  27.566  1.00  0.00     0.163 HD
BRANCH  11  14
ATOM     14  C   UNL A   1      31.453  24.949  24.684  1.00  0.00     0.060 C 
ATOM     15  H   UNL A   1      31.557  25.917  24.239  1.00  0.00     0.045 H 
BRANCH  14  16
ATOM     16  C   UNL A   1      30.624  24.081  23.728  1.00  0.00    -0.049 C 
ATOM     17  H   UNL A   1      29.909  24.694  23.219  1.00  0.00     0.024 H 
ATOM     18  H   UNL A   1      30.113  23.325  24.286  1.00  0.00     0.024 H 
ATOM     19  H   UNL A   1      31.272  23.620  23.013  1.00  0.00     0.024 H 
ENDBRANCH  14  16
BRANCH  14  20
ATOM     20  C   UNL A   1      32.820  24.304  24.873  1.00  0.00    -0.034 A 
ATOM     21  C   UNL A   1      33.946  25.065  25.187  1.00  0.00    -0.057 A 
ATOM     22  C   UNL A   1      32.943  22.914  24.725  1.00  0.00    -0.033 A 
ATOM     23  C   UNL A   1      35.184  24.447  25.392  1.00  0.00    -0.052 A 
ATOM     24  H   UNL A   1      33.864  26.090  25.269  1.00  0.00     0.063 H 
ATOM     25  C   UNL A   1      34.198  22.306  24.871  1.00  0.00     0.058 A 
ATOM     26  H   UNL A   1      32.112  22.341  24.512  1.00  0.00     0.065 H 
ATOM     27  C   UNL A   1      35.310  23.047  25.246  1.00  0.00     0.008 A 
ATOM     28  H   UNL A   1      36.008  25.014  25.650  1.00  0.00     0.063 H 
ATOM     29  N   UNL A   1      34.570  20.966  24.724  1.00  0.00    -0.274 N 
ATOM     30  C   UNL A   1      36.390  22.135  25.385  1.00  0.00     0.009 A 
ATOM     31  C   UNL A   1      35.939  20.862  25.003  1.00  0.00     0.057 A 
ATOM     32  C   UNL A   1      37.738  22.316  25.762  1.00  0.00    -0.033 A 
ATOM     33  C   UNL A   1      36.848  19.793  24.877  1.00  0.00    -0.036 A 
ATOM     34  C   UNL A   1      38.619  21.243  25.684  1.00  0.00     0.041 A 
ATOM     35  H   UNL A   1      38.067  23.238  26.092  1.00  0.00     0.065 H 
ATOM     36  C   UNL A   1      38.188  20.004  25.228  1.00  0.00    -0.041 A 
ATOM     37  H   UNL A   1      36.533  18.873  24.531  1.00  0.00     0.065 H 
ATOM     38  Cl  UNL A   1      40.269  21.471  26.119  1.00  0.00    -0.084 Cl
ATOM     39  H   UNL A   1      38.863  19.228  25.146  1.00  0.00     0.064 H 
BRANCH  29  40
ATOM     40  C   UNL A   1      33.679  19.952  24.278  1.00  0.00     0.284 C 
ATOM     41  O   UNL A   1      32.843  20.310  23.442  1.00  0.00    -0.266 OA
BRANCH  40  42
ATOM     42  C   UNL A   1      33.658  18.572  24.752  1.00  0.00     0.167 A 
ATOM     43  C   UNL A   1      32.902  17.995  25.752  1.00  0.00     0.124 A 
ATOM     44  N   UNL A   1      34.369  17.564  24.109  1.00  0.00    -0.211 NA
ATOM     45  O   UNL A   1      33.137  16.650  25.752  1.00  0.00    -0.451 OA
ATOM     46  H   UNL A   1      32.267  18.497  26.391  1.00  0.00     0.107 H 
ATOM     47  C   UNL A   1      34.012  16.467  24.728  1.00  0.00     0.181 A 
ATOM     48  H   UNL A   1      34.368  15.535  24.460  1.00  0.00     0.127 H 
ENDBRANCH  40  42
ENDBRANCH  29  40
ENDBRANCH  14  20
ENDBRANCH  11  14
ENDBRANCH   7  10
ENDBRANCH   4   7
ENDBRANCH   1   4
BRANCH   1  49
ATOM     49  C   UNL A   1      31.429  30.875  25.996  1.00  0.00    -0.052 C 
ATOM     50  H   UNL A   1      30.451  30.446  25.941  1.00  0.00     0.027 H 
ATOM     51  H   UNL A   1      31.909  30.952  25.043  1.00  0.00     0.027 H 
BRANCH  49  52
ATOM     52  C   UNL A   1      31.294  32.302  26.530  1.00  0.00    -0.036 C 
ATOM     53  H   UNL A   1      30.469  32.329  27.211  1.00  0.00     0.028 H 
ATOM     54  H   UNL A   1      31.150  32.936  25.679  1.00  0.00     0.028 H 
BRANCH  52  55
ATOM     55  C   UNL A   1      32.529  32.817  27.255  1.00  0.00     0.018 C 
ATOM     56  H   UNL A   1      33.378  32.706  26.612  1.00  0.00     0.049 H 
ATOM     57  H   UNL A   1      32.648  32.248  28.153  1.00  0.00     0.049 H 
BRANCH  55  58
ATOM     58  N   UNL A   1      32.397  34.215  27.623  1.00  0.00    -0.352 N 
ATOM     59  C   UNL A   1      33.014  34.904  28.635  1.00  0.00     0.251 C 
ATOM     60  H   UNL A   1      31.779  34.741  27.067  1.00  0.00     0.163 HD
ATOM     61  O   UNL A   1      32.636  36.027  28.938  1.00  0.00    -0.269 OA
BRANCH  59  62
ATOM     62  C   UNL A   1      34.135  34.279  29.371  1.00  0.00     0.039 A 
ATOM     63  C   UNL A   1      35.442  34.559  28.968  1.00  0.00    -0.049 A 
ATOM     64  C   UNL A   1      33.900  33.395  30.429  1.00  0.00    -0.049 A 
ATOM     65  C   UNL A   1      36.514  33.968  29.638  1.00  0.00    -0.053 A 
ATOM     66  H   UNL A   1      35.615  35.200  28.177  1.00  0.00     0.063 H 
ATOM     67  C   UNL A   1      34.969  32.873  31.148  1.00  0.00    -0.053 A 
ATOM     68  H   UNL A   1      32.934  33.130  30.675  1.00  0.00     0.063 H 
ATOM     69  C   UNL A   1      36.286  33.129  30.741  1.00  0.00    -0.014 A 
ATOM     70  H   UNL A   1      37.480  34.148  29.321  1.00  0.00     0.063 H 
ATOM     71  H   UNL A   1      34.793  32.295  31.985  1.00  0.00     0.063 H 
BRANCH  69  72
ATOM     72  C   UNL A   1      37.415  32.462  31.438  1.00  0.00     0.031 A 
ATOM     73  C   UNL A   1      38.136  31.323  30.770  1.00  0.00     0.074 A 
ATOM     74  C   UNL A   1      37.765  32.853  32.677  1.00  0.00     0.049 A 
ATOM     75  N   UNL A   1      39.127  30.592  31.216  1.00  0.00    -0.248 NA
ATOM     76  C   UNL A   1      37.662  30.932  29.432  1.00  0.00    -0.034 C 
ATOM     77  C   UNL A   1      37.112  33.914  33.445  1.00  0.00    -0.036 A 
ATOM     78  N   UNL A   1      38.759  32.403  33.508  1.00  0.00    -0.354 N 
ATOM     79  C   UNL A   1      39.376  29.649  30.227  1.00  0.00     0.074 A 
ATOM     80  C   UNL A   1      38.397  29.858  29.185  1.00  0.00    -0.034 C 
ATOM     81  H   UNL A   1      36.943  31.377  28.842  1.00  0.00     0.065 H 
ATOM     82  C   UNL A   1      37.744  34.056  34.621  1.00  0.00    -0.036 A 
ATOM     83  H   UNL A   1      36.298  34.466  33.132  1.00  0.00     0.065 H 
ATOM     84  C   UNL A   1      38.823  33.075  34.704  1.00  0.00     0.049 A 
ATOM     85  H   UNL A   1      39.368  31.667  33.271  1.00  0.00     0.167 HD
ATOM     86  C   UNL A   1      40.351  28.709  30.180  1.00  0.00     0.037 A 
ATOM     87  H   UNL A   1      38.285  29.251  28.358  1.00  0.00     0.065 H 
ATOM     88  H   UNL A   1      37.505  34.746  35.351  1.00  0.00     0.065 H 
ATOM     89  C   UNL A   1      39.662  32.919  35.744  1.00  0.00     0.037 A 
ATOM     90  C   UNL A   1      41.346  28.530  31.204  1.00  0.00     0.049 A 
ATOM     91  C   UNL A   1      40.745  31.875  35.662  1.00  0.00     0.074 A 
ATOM     92  C   UNL A   1      42.417  27.653  31.224  1.00  0.00    -0.036 A 
ATOM     93  N   UNL A   1      41.392  29.245  32.392  1.00  0.00    -0.354 N 
ATOM     94  N   UNL A   1      41.019  31.039  34.690  1.00  0.00    -0.248 NA
ATOM     95  C   UNL A   1      41.645  31.766  36.818  1.00  0.00    -0.034 C 
ATOM     96  C   UNL A   1      43.080  27.803  32.447  1.00  0.00    -0.036 A 
ATOM     97  H   UNL A   1      42.679  27.002  30.469  1.00  0.00     0.065 H 
ATOM     98  C   UNL A   1      42.460  28.815  33.162  1.00  0.00     0.049 A 
ATOM     99  H   UNL A   1      40.758  29.954  32.650  1.00  0.00     0.167 HD
ATOM    100  C   UNL A   1      42.144  30.334  35.098  1.00  0.00     0.074 A 
ATOM    101  C   UNL A   1      42.507  30.849  36.402  1.00  0.00    -0.034 C 
ATOM    102  H   UNL A   1      41.614  32.270  37.717  1.00  0.00     0.065 H 
ATOM    103  H   UNL A   1      43.894  27.252  32.762  1.00  0.00     0.065 H 
ATOM    104  C   UNL A   1      42.818  29.353  34.450  1.00  0.00     0.037 A 
ATOM    105  H   UNL A   1      43.332  30.541  36.939  1.00  0.00     0.065 H 
BRANCH  86 106
ATOM    106  C   UNL A   1      40.385  27.804  28.982  1.00  0.00     0.064 A 
ATOM    107  C   UNL A   1      41.156  28.104  27.848  1.00  0.00     0.173 A 
ATOM    108  C   UNL A   1      39.657  26.605  28.977  1.00  0.00     0.173 A 
ATOM    109  F   UNL A   1      41.863  29.244  27.795  1.00  0.00    -0.203 F 
ATOM    110  C   UNL A   1      41.167  27.258  26.742  1.00  0.00     0.198 A 
ATOM    111  C   UNL A   1      39.698  25.743  27.883  1.00  0.00     0.198 A 
ATOM    112  F   UNL A   1      38.908  26.264  30.037  1.00  0.00    -0.203 F 
ATOM    113  F   UNL A   1      41.865  27.597  25.649  1.00  0.00    -0.200 F 
ATOM    114  C   UNL A   1      40.445  26.076  26.764  1.00  0.00     0.200 A 
ATOM    115  F   UNL A   1      39.010  24.593  27.911  1.00  0.00    -0.200 F 
ATOM    116  F   UNL A   1      40.461  25.260  25.701  1.00  0.00    -0.200 F 
ENDBRANCH  86 106
BRANCH  89 117
ATOM    117  C   UNL A   1      39.547  33.801  36.935  1.00  0.00     0.064 A 
ATOM    118  C   UNL A   1      38.789  33.408  38.048  1.00  0.00     0.173 A 
ATOM    119  C   UNL A   1      40.176  35.052  36.984  1.00  0.00     0.173 A 
ATOM    120  F   UNL A   1      38.153  32.228  38.042  1.00  0.00    -0.203 F 
ATOM    121  C   UNL A   1      38.644  34.245  39.152  1.00  0.00     0.198 A 
ATOM    122  C   UNL A   1      40.055  35.876  38.101  1.00  0.00     0.198 A 
ATOM    123  F   UNL A   1      40.919  35.472  35.949  1.00  0.00    -0.203 F 
ATOM    124  F   UNL A   1      37.872  33.866  40.180  1.00  0.00    -0.200 F 
ATOM    125  C   UNL A   1      39.281  35.477  39.180  1.00  0.00     0.200 A 
ATOM    126  F   UNL A   1      40.684  37.059  38.131  1.00  0.00    -0.200 F 
ATOM    127  F   UNL A   1      39.142  36.280  40.243  1.00  0.00    -0.200 F 
ENDBRANCH  89 117
BRANCH 104 128
ATOM    128  C   UNL A   1      44.053  28.812  35.112  1.00  0.00     0.064 A 
ATOM    129  C   UNL A   1      45.318  29.384  34.906  1.00  0.00     0.173 A 
ATOM    130  C   UNL A   1      43.962  27.721  35.991  1.00  0.00     0.173 A 
ATOM    131  F   UNL A   1      45.460  30.419  34.065  1.00  0.00    -0.203 F 
ATOM    132  C   UNL A   1      46.449  28.862  35.526  1.00  0.00     0.198 A 
ATOM    133  C   UNL A   1      45.090  27.225  36.638  1.00  0.00     0.198 A 
ATOM    134  F   UNL A   1      42.776  27.143  36.232  1.00  0.00    -0.203 F 
ATOM    135  F   UNL A   1      47.655  29.388  35.269  1.00  0.00    -0.200 F 
ATOM    136  C   UNL A   1      46.334  27.788  36.397  1.00  0.00     0.200 A 
ATOM    137  F   UNL A   1      44.974  26.197  37.490  1.00  0.00    -0.200 F 
ATOM    138  F   UNL A   1      47.423  27.290  36.997  1.00  0.00    -0.200 F 
ENDBRANCH 104 128
ENDBRANCH  69  72
ENDBRANCH  59  62
ENDBRANCH  55  58
ENDBRANCH  52  55
ENDBRANCH  49  52
ENDBRANCH   1  49
TORSDOF 17
ENDMDL
MODEL 3
REMARK VINA RESULT:     -13.0      5.106     10.971
REMARK SMILES C[C@@H](C(=O)NCCCCCCNC(=O)c1ccc(-c2c3nc(c(-c4c(F)c(F)c(F)c(F)c4F)c4ccc([nH]4)c(-c4c(F)c(F)c(F)c(F)c4F)c4nc(c(-c5c(F)c(F)c(F)c(F)c5F)c5ccc2[nH]5)C=C4)C=C3)cc1)c1ccc2c3cc(Cl)ccc3n(C(=O)c3cocn3)c2c1
REMARK SMILES IDX 8 1 7 4 6 7 5 10 3 11 4 12 2 14 1 16 78 20 79 21 98 22 80 23
REMARK SMILES IDX 97 25 81 27 89 29 82 30 88 31 83 32 87 33 84 34 86 36 85 38
REMARK SMILES IDX 90 40 91 41 92 42 93 43 96 44 94 45 95 47 9 49 10 52 11 55
REMARK SMILES IDX 12 58 13 59 14 61 15 62 16 63 77 64 17 65 76 67 18 69 19 72
REMARK SMILES IDX 20 73 70 74 21 75 75 76 69 77 71 78 22 79 74 80 68 82 67 84
REMARK SMILES IDX 23 86 55 89 35 90 54 91 36 92 39 93 53 94 72 95 37 96 38 98
REMARK SMILES IDX 52 100 73 101 40 104 24 106 25 107 33 108 26 109 27 110
REMARK SMILES IDX 31 111 34 112 28 113 29 114 32 115 30 116 56 117 57 118
REMARK SMILES IDX 65 119 58 120 59 121 63 122 66 123 60 124 61 125 64 126
REMARK SMILES IDX 62 127 41 128 42 129 50 130 43 131 44 132 48 133 51 134
REMARK SMILES IDX 45 135 46 136 49 137 47 138
REMARK H PARENT 8 2 8 3 7 5 7 6 6 8 6 9 5 13 2 15 1 17 1 18 1 19 79 24 98 26
REMARK H PARENT 80 28 83 35 87 37 86 39 93 46 95 48 9 50 9 51 10 53 10 54
REMARK H PARENT 11 56 11 57 12 60 16 66 77 68 17 70 76 71 75 81 69 83 71 85
REMARK H PARENT 74 87 68 88 36 97 39 99 72 102 37 103 73 105
REMARK Flexibility Score: inf
ROOT
ATOM      1  C   UNL A   1      37.787  21.644  25.015  1.00  0.00    -0.052 C 
ATOM      2  H   UNL A   1      38.157  21.694  26.018  1.00  0.00     0.027 H 
ATOM      3  H   UNL A   1      38.517  21.915  24.281  1.00  0.00     0.027 H 
ENDROOT
BRANCH   1   4
ATOM      4  C   UNL A   1      36.643  22.658  24.877  1.00  0.00    -0.036 C 
ATOM      5  H   UNL A   1      36.481  23.116  25.831  1.00  0.00     0.028 H 
ATOM      6  H   UNL A   1      36.940  23.363  24.129  1.00  0.00     0.028 H 
BRANCH   4   7
ATOM      7  C   UNL A   1      35.323  22.044  24.409  1.00  0.00     0.017 C 
ATOM      8  H   UNL A   1      35.451  20.991  24.275  1.00  0.00     0.049 H 
ATOM      9  H   UNL A   1      34.570  22.232  25.147  1.00  0.00     0.049 H 
BRANCH   7  10
ATOM     10  N   UNL A   1      34.912  22.636  23.158  1.00  0.00    -0.356 N 
ATOM     11  C   UNL A   1      33.714  23.171  22.798  1.00  0.00     0.227 C 
ATOM     12  O   UNL A   1      33.599  23.494  21.614  1.00  0.00    -0.274 OA
ATOM     13  H   UNL A   1      35.605  22.658  22.460  1.00  0.00     0.163 HD
BRANCH  11  14
ATOM     14  C   UNL A   1      32.619  23.396  23.860  1.00  0.00     0.060 C 
ATOM     15  H   UNL A   1      32.785  22.639  24.599  1.00  0.00     0.045 H 
BRANCH  14  16
ATOM     16  C   UNL A   1      31.194  23.217  23.319  1.00  0.00    -0.049 C 
ATOM     17  H   UNL A   1      31.134  23.627  22.332  1.00  0.00     0.024 H 
ATOM     18  H   UNL A   1      30.503  23.724  23.959  1.00  0.00     0.024 H 
ATOM     19  H   UNL A   1      30.953  22.175  23.288  1.00  0.00     0.024 H 
ENDBRANCH  14  16
BRANCH  14  20
ATOM     20  C   UNL A   1      32.737  24.780  24.485  1.00  0.00    -0.034 A 
ATOM     21  C   UNL A   1      33.750  25.084  25.393  1.00  0.00    -0.057 A 
ATOM     22  C   UNL A   1      31.801  25.766  24.136  1.00  0.00    -0.033 A 
ATOM     23  C   UNL A   1      33.861  26.373  25.926  1.00  0.00    -0.052 A 
ATOM     24  H   UNL A   1      34.423  24.353  25.672  1.00  0.00     0.063 H 
ATOM     25  C   UNL A   1      31.879  27.039  24.720  1.00  0.00     0.058 A 
ATOM     26  H   UNL A   1      31.059  25.556  23.451  1.00  0.00     0.065 H 
ATOM     27  C   UNL A   1      32.922  27.368  25.575  1.00  0.00     0.008 A 
ATOM     28  H   UNL A   1      34.630  26.597  26.578  1.00  0.00     0.063 H 
ATOM     29  N   UNL A   1      31.044  28.150  24.568  1.00  0.00    -0.274 N 
ATOM     30  C   UNL A   1      32.759  28.735  25.922  1.00  0.00     0.009 A 
ATOM     31  C   UNL A   1      31.564  29.194  25.345  1.00  0.00     0.057 A 
ATOM     32  C   UNL A   1      33.521  29.602  26.735  1.00  0.00    -0.033 A 
ATOM     33  C   UNL A   1      31.061  30.469  25.668  1.00  0.00    -0.036 A 
ATOM     34  C   UNL A   1      33.044  30.880  27.007  1.00  0.00     0.041 A 
ATOM     35  H   UNL A   1      34.425  29.290  27.123  1.00  0.00     0.065 H 
ATOM     36  C   UNL A   1      31.821  31.302  26.500  1.00  0.00    -0.041 A 
ATOM     37  H   UNL A   1      30.150  30.784  25.298  1.00  0.00     0.065 H 
ATOM     38  Cl  UNL A   1      33.962  31.927  28.019  1.00  0.00    -0.084 Cl
ATOM     39  H   UNL A   1      31.468  32.241  26.739  1.00  0.00     0.064 H 
BRANCH  29  40
ATOM     40  C   UNL A   1      29.842  28.126  23.811  1.00  0.00     0.284 C 
ATOM     41  O   UNL A   1      29.095  27.168  24.030  1.00  0.00    -0.266 OA
BRANCH  40  42
ATOM     42  C   UNL A   1      29.459  29.103  22.795  1.00  0.00     0.167 A 
ATOM     43  C   UNL A   1      30.246  29.807  21.909  1.00  0.00     0.124 A 
ATOM     44  N   UNL A   1      28.126  29.363  22.494  1.00  0.00    -0.211 NA
ATOM     45  O   UNL A   1      29.432  30.510  21.069  1.00  0.00    -0.451 OA
ATOM     46  H   UNL A   1      31.278  29.802  21.885  1.00  0.00     0.107 H 
ATOM     47  C   UNL A   1      28.177  30.179  21.471  1.00  0.00     0.181 A 
ATOM     48  H   UNL A   1      27.329  30.542  21.006  1.00  0.00     0.127 H 
ENDBRANCH  40  42
ENDBRANCH  29  40
ENDBRANCH  14  20
ENDBRANCH  11  14
ENDBRANCH   7  10
ENDBRANCH   4   7
ENDBRANCH   1   4
BRANCH   1  49
ATOM     49  C   UNL A   1      37.400  20.191  24.722  1.00  0.00    -0.052 C 
ATOM     50  H   UNL A   1      37.217  20.100  23.673  1.00  0.00     0.027 H 
ATOM     51  H   UNL A   1      36.537  19.983  25.320  1.00  0.00     0.027 H 
BRANCH  49  52
ATOM     52  C   UNL A   1      38.456  19.157  25.114  1.00  0.00    -0.036 C 
ATOM     53  H   UNL A   1      38.881  18.755  24.218  1.00  0.00     0.028 H 
ATOM     54  H   UNL A   1      37.958  18.417  25.705  1.00  0.00     0.028 H 
BRANCH  52  55
ATOM     55  C   UNL A   1      39.585  19.712  25.971  1.00  0.00     0.018 C 
ATOM     56  H   UNL A   1      39.240  19.802  26.981  1.00  0.00     0.049 H 
ATOM     57  H   UNL A   1      39.866  20.664  25.574  1.00  0.00     0.049 H 
BRANCH  55  58
ATOM     58  N   UNL A   1      40.754  18.852  25.949  1.00  0.00    -0.352 N 
ATOM     59  C   UNL A   1      42.080  19.194  26.030  1.00  0.00     0.251 C 
ATOM     60  H   UNL A   1      40.569  17.889  25.864  1.00  0.00     0.163 HD
ATOM     61  O   UNL A   1      42.947  18.366  25.788  1.00  0.00    -0.269 OA
BRANCH  59  62
ATOM     62  C   UNL A   1      42.460  20.575  26.402  1.00  0.00     0.039 A 
ATOM     63  C   UNL A   1      42.407  20.947  27.746  1.00  0.00    -0.049 A 
ATOM     64  C   UNL A   1      42.833  21.507  25.429  1.00  0.00    -0.049 A 
ATOM     65  C   UNL A   1      42.746  22.249  28.117  1.00  0.00    -0.053 A 
ATOM     66  H   UNL A   1      42.117  20.263  28.463  1.00  0.00     0.063 H 
ATOM     67  C   UNL A   1      43.251  22.777  25.807  1.00  0.00    -0.053 A 
ATOM     68  H   UNL A   1      42.798  21.251  24.429  1.00  0.00     0.063 H 
ATOM     69  C   UNL A   1      43.182  23.171  27.152  1.00  0.00    -0.014 A 
ATOM     70  H   UNL A   1      42.676  22.536  29.106  1.00  0.00     0.063 H 
ATOM     71  H   UNL A   1      43.613  23.433  25.097  1.00  0.00     0.063 H 
BRANCH  69  72
ATOM     72  C   UNL A   1      43.508  24.570  27.526  1.00  0.00     0.031 A 
ATOM     73  C   UNL A   1      44.940  25.030  27.521  1.00  0.00     0.074 A 
ATOM     74  C   UNL A   1      42.527  25.411  27.904  1.00  0.00     0.049 A 
ATOM     75  N   UNL A   1      45.438  26.199  27.838  1.00  0.00    -0.248 NA
ATOM     76  C   UNL A   1      45.954  24.035  27.135  1.00  0.00    -0.034 C 
ATOM     77  C   UNL A   1      41.107  25.068  27.993  1.00  0.00    -0.036 A 
ATOM     78  N   UNL A   1      42.576  26.728  28.284  1.00  0.00    -0.354 N 
ATOM     79  C   UNL A   1      46.816  26.071  27.711  1.00  0.00     0.074 A 
ATOM     80  C   UNL A   1      47.081  24.697  27.347  1.00  0.00    -0.034 C 
ATOM     81  H   UNL A   1      45.821  23.072  26.790  1.00  0.00     0.065 H 
ATOM     82  C   UNL A   1      40.416  26.156  28.369  1.00  0.00    -0.036 A 
ATOM     83  H   UNL A   1      40.701  24.139  27.798  1.00  0.00     0.065 H 
ATOM     84  C   UNL A   1      41.346  27.262  28.580  1.00  0.00     0.049 A 
ATOM     85  H   UNL A   1      43.414  27.242  28.340  1.00  0.00     0.167 HD
ATOM     86  C   UNL A   1      47.771  27.019  27.858  1.00  0.00     0.037 A 
ATOM     87  H   UNL A   1      48.024  24.288  27.262  1.00  0.00     0.065 H 
ATOM     88  H   UNL A   1      39.392  26.204  28.490  1.00  0.00     0.065 H 
ATOM     89  C   UNL A   1      41.010  28.506  28.969  1.00  0.00     0.037 A 
ATOM     90  C   UNL A   1      47.498  28.394  28.185  1.00  0.00     0.049 A 
ATOM     91  C   UNL A   1      42.091  29.545  29.114  1.00  0.00     0.074 A 
ATOM     92  C   UNL A   1      48.386  29.449  28.293  1.00  0.00    -0.036 A 
ATOM     93  N   UNL A   1      46.236  28.903  28.456  1.00  0.00    -0.354 N 
ATOM     94  N   UNL A   1      43.382  29.433  28.918  1.00  0.00    -0.248 NA
ATOM     95  C   UNL A   1      41.662  30.890  29.521  1.00  0.00    -0.034 C 
ATOM     96  C   UNL A   1      47.668  30.586  28.678  1.00  0.00    -0.036 A 
ATOM     97  H   UNL A   1      49.401  29.405  28.119  1.00  0.00     0.065 H 
ATOM     98  C   UNL A   1      46.324  30.253  28.751  1.00  0.00     0.049 A 
ATOM     99  H   UNL A   1      45.401  28.381  28.440  1.00  0.00     0.167 HD
ATOM    100  C   UNL A   1      43.914  30.697  29.136  1.00  0.00     0.074 A 
ATOM    101  C   UNL A   1      42.802  31.564  29.470  1.00  0.00    -0.034 C 
ATOM    102  H   UNL A   1      40.720  31.223  29.779  1.00  0.00     0.065 H 
ATOM    103  H   UNL A   1      48.070  31.516  28.876  1.00  0.00     0.065 H 
ATOM    104  C   UNL A   1      45.204  31.105  29.063  1.00  0.00     0.037 A 
ATOM    105  H   UNL A   1      42.888  32.576  29.647  1.00  0.00     0.065 H 
BRANCH  86 106
ATOM    106  C   UNL A   1      49.201  26.600  27.668  1.00  0.00     0.064 A 
ATOM    107  C   UNL A   1      49.764  26.442  26.392  1.00  0.00     0.173 A 
ATOM    108  C   UNL A   1      50.029  26.377  28.778  1.00  0.00     0.173 A 
ATOM    109  F   UNL A   1      49.013  26.631  25.295  1.00  0.00    -0.203 F 
ATOM    110  C   UNL A   1      51.088  26.042  26.234  1.00  0.00     0.198 A 
ATOM    111  C   UNL A   1      51.364  26.011  28.618  1.00  0.00     0.198 A 
ATOM    112  F   UNL A   1      49.547  26.519  30.022  1.00  0.00    -0.203 F 
ATOM    113  F   UNL A   1      51.584  25.841  25.006  1.00  0.00    -0.200 F 
ATOM    114  C   UNL A   1      51.889  25.834  27.347  1.00  0.00     0.200 A 
ATOM    115  F   UNL A   1      52.140  25.824  29.694  1.00  0.00    -0.200 F 
ATOM    116  F   UNL A   1      53.164  25.455  27.194  1.00  0.00    -0.200 F 
ENDBRANCH  86 106
BRANCH  89 117
ATOM    117  C   UNL A   1      39.585  28.854  29.206  1.00  0.00     0.064 A 
ATOM    118  C   UNL A   1      38.783  29.339  28.163  1.00  0.00     0.173 A 
ATOM    119  C   UNL A   1      38.999  28.723  30.472  1.00  0.00     0.173 A 
ATOM    120  F   UNL A   1      39.302  29.500  26.938  1.00  0.00    -0.203 F 
ATOM    121  C   UNL A   1      37.456  29.704  28.384  1.00  0.00     0.198 A 
ATOM    122  C   UNL A   1      37.664  29.060  30.686  1.00  0.00     0.198 A 
ATOM    123  F   UNL A   1      39.721  28.257  31.502  1.00  0.00    -0.203 F 
ATOM    124  F   UNL A   1      36.727  30.213  27.381  1.00  0.00    -0.200 F 
ATOM    125  C   UNL A   1      36.897  29.560  29.645  1.00  0.00     0.200 A 
ATOM    126  F   UNL A   1      37.122  28.905  31.902  1.00  0.00    -0.200 F 
ATOM    127  F   UNL A   1      35.621  29.910  29.857  1.00  0.00    -0.200 F 
ENDBRANCH  89 117
BRANCH 104 128
ATOM    128  C   UNL A   1      45.479  32.564  29.288  1.00  0.00     0.064 A 
ATOM    129  C   UNL A   1      45.820  33.069  30.552  1.00  0.00     0.173 A 
ATOM    130  C   UNL A   1      45.429  33.465  28.213  1.00  0.00     0.173 A 
ATOM    131  F   UNL A   1      45.868  32.252  31.615  1.00  0.00    -0.203 F 
ATOM    132  C   UNL A   1      46.065  34.427  30.738  1.00  0.00     0.198 A 
ATOM    133  C   UNL A   1      45.710  34.816  28.395  1.00  0.00     0.198 A 
ATOM    134  F   UNL A   1      45.118  33.034  26.982  1.00  0.00    -0.203 F 
ATOM    135  F   UNL A   1      46.331  34.896  31.965  1.00  0.00    -0.200 F 
ATOM    136  C   UNL A   1      46.017  35.298  29.659  1.00  0.00     0.200 A 
ATOM    137  F   UNL A   1      45.678  35.653  27.349  1.00  0.00    -0.200 F 
ATOM    138  F   UNL A   1      46.258  36.604  29.838  1.00  0.00    -0.200 F 
ENDBRANCH 104 128
ENDBRANCH  69  72
ENDBRANCH  59  62
ENDBRANCH  55  58
ENDBRANCH  52  55
ENDBRANCH  49  52
ENDBRANCH   1  49
TORSDOF 17
ENDMDL
MODEL 4
REMARK VINA RESULT:     -12.9      5.298     10.263
REMARK SMILES C[C@@H](C(=O)NCCCCCCNC(=O)c1ccc(-c2c3nc(c(-c4c(F)c(F)c(F)c(F)c4F)c4ccc([nH]4)c(-c4c(F)c(F)c(F)c(F)c4F)c4nc(c(-c5c(F)c(F)c(F)c(F)c5F)c5ccc2[nH]5)C=C4)C=C3)cc1)c1ccc2c3cc(Cl)ccc3n(C(=O)c3cocn3)c2c1
REMARK SMILES IDX 8 1 7 4 6 7 5 10 3 11 4 12 2 14 1 16 78 20 79 21 98 22 80 23
REMARK SMILES IDX 97 25 81 27 89 29 82 30 88 31 83 32 87 33 84 34 86 36 85 38
REMARK SMILES IDX 90 40 91 41 92 42 93 43 96 44 94 45 95 47 9 49 10 52 11 55
REMARK SMILES IDX 12 58 13 59 14 61 15 62 16 63 77 64 17 65 76 67 18 69 19 72
REMARK SMILES IDX 20 73 70 74 21 75 75 76 69 77 71 78 22 79 74 80 68 82 67 84
REMARK SMILES IDX 23 86 55 89 35 90 54 91 36 92 39 93 53 94 72 95 37 96 38 98
REMARK SMILES IDX 52 100 73 101 40 104 24 106 25 107 33 108 26 109 27 110
REMARK SMILES IDX 31 111 34 112 28 113 29 114 32 115 30 116 56 117 57 118
REMARK SMILES IDX 65 119 58 120 59 121 63 122 66 123 60 124 61 125 64 126
REMARK SMILES IDX 62 127 41 128 42 129 50 130 43 131 44 132 48 133 51 134
REMARK SMILES IDX 45 135 46 136 49 137 47 138
REMARK H PARENT 8 2 8 3 7 5 7 6 6 8 6 9 5 13 2 15 1 17 1 18 1 19 79 24 98 26
REMARK H PARENT 80 28 83 35 87 37 86 39 93 46 95 48 9 50 9 51 10 53 10 54
REMARK H PARENT 11 56 11 57 12 60 16 66 77 68 17 70 76 71 75 81 69 83 71 85
REMARK H PARENT 74 87 68 88 36 97 39 99 72 102 37 103 73 105
REMARK Flexibility Score: inf
ROOT
ATOM      1  C   UNL A   1      37.822  21.667  25.235  1.00  0.00    -0.052 C 
ATOM      2  H   UNL A   1      37.969  21.763  26.290  1.00  0.00     0.027 H 
ATOM      3  H   UNL A   1      38.700  21.888  24.664  1.00  0.00     0.027 H 
ENDROOT
BRANCH   1   4
ATOM      4  C   UNL A   1      36.762  22.691  24.806  1.00  0.00    -0.036 C 
ATOM      5  H   UNL A   1      36.564  23.340  25.635  1.00  0.00     0.028 H 
ATOM      6  H   UNL A   1      37.158  23.214  23.961  1.00  0.00     0.028 H 
BRANCH   4   7
ATOM      7  C   UNL A   1      35.439  22.065  24.361  1.00  0.00     0.017 C 
ATOM      8  H   UNL A   1      35.571  21.012  24.237  1.00  0.00     0.049 H 
ATOM      9  H   UNL A   1      34.695  22.257  25.106  1.00  0.00     0.049 H 
BRANCH   7  10
ATOM     10  N   UNL A   1      35.010  22.643  23.109  1.00  0.00    -0.356 N 
ATOM     11  C   UNL A   1      33.800  23.156  22.754  1.00  0.00     0.227 C 
ATOM     12  O   UNL A   1      33.672  23.468  21.569  1.00  0.00    -0.274 OA
ATOM     13  H   UNL A   1      35.697  22.671  22.406  1.00  0.00     0.163 HD
BRANCH  11  14
ATOM     14  C   UNL A   1      32.709  23.369  23.824  1.00  0.00     0.060 C 
ATOM     15  H   UNL A   1      32.882  22.608  24.557  1.00  0.00     0.045 H 
BRANCH  14  16
ATOM     16  C   UNL A   1      31.283  23.188  23.288  1.00  0.00    -0.049 C 
ATOM     17  H   UNL A   1      31.005  24.049  22.716  1.00  0.00     0.024 H 
ATOM     18  H   UNL A   1      30.606  23.071  24.107  1.00  0.00     0.024 H 
ATOM     19  H   UNL A   1      31.243  22.319  22.666  1.00  0.00     0.024 H 
ENDBRANCH  14  16
BRANCH  14  20
ATOM     20  C   UNL A   1      32.825  24.750  24.457  1.00  0.00    -0.034 A 
ATOM     21  C   UNL A   1      33.850  25.056  25.351  1.00  0.00    -0.057 A 
ATOM     22  C   UNL A   1      31.875  25.730  24.130  1.00  0.00    -0.033 A 
ATOM     23  C   UNL A   1      33.958  26.342  25.892  1.00  0.00    -0.052 A 
ATOM     24  H   UNL A   1      34.534  24.329  25.614  1.00  0.00     0.063 H 
ATOM     25  C   UNL A   1      31.951  26.999  24.722  1.00  0.00     0.058 A 
ATOM     26  H   UNL A   1      31.124  25.518  23.455  1.00  0.00     0.065 H 
ATOM     27  C   UNL A   1      33.004  27.331  25.563  1.00  0.00     0.008 A 
ATOM     28  H   UNL A   1      34.735  26.568  26.533  1.00  0.00     0.063 H 
ATOM     29  N   UNL A   1      31.104  28.104  24.591  1.00  0.00    -0.274 N 
ATOM     30  C   UNL A   1      32.835  28.694  25.923  1.00  0.00     0.009 A 
ATOM     31  C   UNL A   1      31.627  29.147  25.368  1.00  0.00     0.057 A 
ATOM     32  C   UNL A   1      33.602  29.562  26.730  1.00  0.00    -0.033 A 
ATOM     33  C   UNL A   1      31.118  30.415  25.708  1.00  0.00    -0.036 A 
ATOM     34  C   UNL A   1      33.118  30.833  27.019  1.00  0.00     0.041 A 
ATOM     35  H   UNL A   1      34.515  29.255  27.102  1.00  0.00     0.065 H 
ATOM     36  C   UNL A   1      31.884  31.248  26.534  1.00  0.00    -0.041 A 
ATOM     37  H   UNL A   1      30.199  30.724  25.355  1.00  0.00     0.065 H 
ATOM     38  Cl  UNL A   1      34.042  31.881  28.024  1.00  0.00    -0.084 Cl
ATOM     39  H   UNL A   1      31.526  32.183  26.786  1.00  0.00     0.064 H 
BRANCH  29  40
ATOM     40  C   UNL A   1      29.891  28.075  23.853  1.00  0.00     0.284 C 
ATOM     41  O   UNL A   1      29.159  27.105  24.071  1.00  0.00    -0.266 OA
BRANCH  40  42
ATOM     42  C   UNL A   1      29.479  29.060  22.857  1.00  0.00     0.167 A 
ATOM     43  C   UNL A   1      30.237  29.744  21.929  1.00  0.00     0.124 A 
ATOM     44  N   UNL A   1      28.140  29.352  22.624  1.00  0.00    -0.211 NA
ATOM     45  O   UNL A   1      29.397  30.466  21.131  1.00  0.00    -0.451 OA
ATOM     46  H   UNL A   1      31.266  29.714  21.853  1.00  0.00     0.107 H 
ATOM     47  C   UNL A   1      28.157  30.166  21.598  1.00  0.00     0.181 A 
ATOM     48  H   UNL A   1      27.295  30.549  21.176  1.00  0.00     0.127 H 
ENDBRANCH  40  42
ENDBRANCH  29  40
ENDBRANCH  14  20
ENDBRANCH  11  14
ENDBRANCH   7  10
ENDBRANCH   4   7
ENDBRANCH   1   4
BRANCH   1  49
ATOM     49  C   UNL A   1      37.467  20.208  24.934  1.00  0.00    -0.052 C 
ATOM     50  H   UNL A   1      37.254  20.126  23.889  1.00  0.00     0.027 H 
ATOM     51  H   UNL A   1      36.630  19.967  25.555  1.00  0.00     0.027 H 
BRANCH  49  52
ATOM     52  C   UNL A   1      38.565  19.199  25.277  1.00  0.00    -0.036 C 
ATOM     53  H   UNL A   1      38.917  18.764  24.365  1.00  0.00     0.028 H 
ATOM     54  H   UNL A   1      38.126  18.481  25.938  1.00  0.00     0.028 H 
BRANCH  52  55
ATOM     55  C   UNL A   1      39.755  19.799  26.011  1.00  0.00     0.018 C 
ATOM     56  H   UNL A   1      39.460  20.037  27.012  1.00  0.00     0.049 H 
ATOM     57  H   UNL A   1      40.064  20.676  25.482  1.00  0.00     0.049 H 
BRANCH  55  58
ATOM     58  N   UNL A   1      40.880  18.882  26.058  1.00  0.00    -0.352 N 
ATOM     59  C   UNL A   1      42.222  19.163  26.111  1.00  0.00     0.251 C 
ATOM     60  H   UNL A   1      40.646  17.926  26.051  1.00  0.00     0.163 HD
ATOM     61  O   UNL A   1      43.045  18.274  25.937  1.00  0.00    -0.269 OA
BRANCH  59  62
ATOM     62  C   UNL A   1      42.672  20.548  26.370  1.00  0.00     0.039 A 
ATOM     63  C   UNL A   1      42.619  21.037  27.676  1.00  0.00    -0.049 A 
ATOM     64  C   UNL A   1      43.111  21.370  25.328  1.00  0.00    -0.049 A 
ATOM     65  C   UNL A   1      43.025  22.346  27.940  1.00  0.00    -0.053 A 
ATOM     66  H   UNL A   1      42.282  20.434  28.443  1.00  0.00     0.063 H 
ATOM     67  C   UNL A   1      43.593  22.644  25.604  1.00  0.00    -0.053 A 
ATOM     68  H   UNL A   1      43.076  21.031  24.354  1.00  0.00     0.063 H 
ATOM     69  C   UNL A   1      43.526  23.157  26.908  1.00  0.00    -0.014 A 
ATOM     70  H   UNL A   1      42.956  22.722  28.900  1.00  0.00     0.063 H 
ATOM     71  H   UNL A   1      44.001  23.216  24.848  1.00  0.00     0.063 H 
BRANCH  69  72
ATOM     72  C   UNL A   1      43.923  24.563  27.167  1.00  0.00     0.031 A 
ATOM     73  C   UNL A   1      42.888  25.562  27.610  1.00  0.00     0.074 A 
ATOM     74  C   UNL A   1      45.197  24.949  26.971  1.00  0.00     0.049 A 
ATOM     75  N   UNL A   1      43.022  26.840  27.863  1.00  0.00    -0.248 NA
ATOM     76  C   UNL A   1      41.510  25.066  27.760  1.00  0.00    -0.034 C 
ATOM     77  C   UNL A   1      46.280  24.084  26.501  1.00  0.00    -0.036 A 
ATOM     78  N   UNL A   1      45.798  26.170  27.145  1.00  0.00    -0.354 N 
ATOM     79  C   UNL A   1      41.749  27.298  28.179  1.00  0.00     0.074 A 
ATOM     80  C   UNL A   1      40.847  26.180  28.028  1.00  0.00    -0.034 C 
ATOM     81  H   UNL A   1      41.154  24.101  27.676  1.00  0.00     0.065 H 
ATOM     82  C   UNL A   1      47.419  24.793  26.455  1.00  0.00    -0.036 A 
ATOM     83  H   UNL A   1      46.184  23.088  26.246  1.00  0.00     0.065 H 
ATOM     84  C   UNL A   1      47.141  26.169  26.859  1.00  0.00     0.049 A 
ATOM     85  H   UNL A   1      45.312  26.972  27.443  1.00  0.00     0.167 HD
ATOM     86  C   UNL A   1      41.372  28.534  28.585  1.00  0.00     0.037 A 
ATOM     87  H   UNL A   1      39.820  26.242  28.117  1.00  0.00     0.065 H 
ATOM     88  H   UNL A   1      48.343  24.426  26.177  1.00  0.00     0.065 H 
ATOM     89  C   UNL A   1      48.044  27.164  26.925  1.00  0.00     0.037 A 
ATOM     90  C   UNL A   1      42.281  29.634  28.769  1.00  0.00     0.049 A 
ATOM     91  C   UNL A   1      47.601  28.526  27.391  1.00  0.00     0.074 A 
ATOM     92  C   UNL A   1      42.013  30.907  29.240  1.00  0.00    -0.036 A 
ATOM     93  N   UNL A   1      43.640  29.588  28.491  1.00  0.00    -0.354 N 
ATOM     94  N   UNL A   1      46.409  28.930  27.759  1.00  0.00    -0.248 NA
ATOM     95  C   UNL A   1      48.635  29.567  27.463  1.00  0.00    -0.034 C 
ATOM     96  C   UNL A   1      43.200  31.647  29.199  1.00  0.00    -0.036 A 
ATOM     97  H   UNL A   1      41.097  31.251  29.564  1.00  0.00     0.065 H 
ATOM     98  C   UNL A   1      44.220  30.816  28.761  1.00  0.00     0.049 A 
ATOM     99  H   UNL A   1      44.121  28.798  28.153  1.00  0.00     0.167 HD
ATOM    100  C   UNL A   1      46.556  30.255  28.146  1.00  0.00     0.074 A 
ATOM    101  C   UNL A   1      47.957  30.585  27.976  1.00  0.00    -0.034 C 
ATOM    102  H   UNL A   1      49.628  29.519  27.187  1.00  0.00     0.065 H 
ATOM    103  H   UNL A   1      43.299  32.642  29.452  1.00  0.00     0.065 H 
ATOM    104  C   UNL A   1      45.619  31.121  28.604  1.00  0.00     0.037 A 
ATOM    105  H   UNL A   1      48.374  31.495  28.222  1.00  0.00     0.065 H 
BRANCH  86 106
ATOM    106  C   UNL A   1      39.911  28.760  28.855  1.00  0.00     0.064 A 
ATOM    107  C   UNL A   1      39.351  28.549  30.124  1.00  0.00     0.173 A 
ATOM    108  C   UNL A   1      39.064  29.220  27.836  1.00  0.00     0.173 A 
ATOM    109  F   UNL A   1      40.114  28.098  31.133  1.00  0.00    -0.203 F 
ATOM    110  C   UNL A   1      37.993  28.753  30.354  1.00  0.00     0.198 A 
ATOM    111  C   UNL A   1      37.712  29.457  28.077  1.00  0.00     0.198 A 
ATOM    112  F   UNL A   1      39.546  29.445  26.604  1.00  0.00    -0.203 F 
ATOM    113  F   UNL A   1      37.471  28.487  31.560  1.00  0.00    -0.200 F 
ATOM    114  C   UNL A   1      37.177  29.214  29.333  1.00  0.00     0.200 A 
ATOM    115  F   UNL A   1      36.927  29.916  27.093  1.00  0.00    -0.200 F 
ATOM    116  F   UNL A   1      35.871  29.415  29.556  1.00  0.00    -0.200 F 
ENDBRANCH  86 106
BRANCH  89 117
ATOM    117  C   UNL A   1      49.468  26.904  26.586  1.00  0.00     0.064 A 
ATOM    118  C   UNL A   1      49.937  27.077  25.277  1.00  0.00     0.173 A 
ATOM    119  C   UNL A   1      50.383  26.467  27.555  1.00  0.00     0.173 A 
ATOM    120  F   UNL A   1      49.097  27.475  24.312  1.00  0.00    -0.203 F 
ATOM    121  C   UNL A   1      51.261  26.798  24.943  1.00  0.00     0.198 A 
ATOM    122  C   UNL A   1      51.714  26.217  27.226  1.00  0.00     0.198 A 
ATOM    123  F   UNL A   1      49.986  26.292  28.824  1.00  0.00    -0.203 F 
ATOM    124  F   UNL A   1      51.670  26.923  23.673  1.00  0.00    -0.200 F 
ATOM    125  C   UNL A   1      52.149  26.372  25.919  1.00  0.00     0.200 A 
ATOM    126  F   UNL A   1      52.573  25.821  28.175  1.00  0.00    -0.200 F 
ATOM    127  F   UNL A   1      53.422  26.105  25.598  1.00  0.00    -0.200 F 
ENDBRANCH  89 117
BRANCH 104 128
ATOM    128  C   UNL A   1      46.086  32.489  29.012  1.00  0.00     0.064 A 
ATOM    129  C   UNL A   1      46.113  33.564  28.111  1.00  0.00     0.173 A 
ATOM    130  C   UNL A   1      46.484  32.732  30.336  1.00  0.00     0.173 A 
ATOM    131  F   UNL A   1      45.756  33.381  26.831  1.00  0.00    -0.203 F 
ATOM    132  C   UNL A   1      46.555  34.822  28.512  1.00  0.00     0.198 A 
ATOM    133  C   UNL A   1      46.891  34.000  30.742  1.00  0.00     0.198 A 
ATOM    134  F   UNL A   1      46.468  31.742  31.240  1.00  0.00    -0.203 F 
ATOM    135  F   UNL A   1      46.628  35.820  27.619  1.00  0.00    -0.200 F 
ATOM    136  C   UNL A   1      46.936  35.041  29.828  1.00  0.00     0.200 A 
ATOM    137  F   UNL A   1      47.244  34.212  32.017  1.00  0.00    -0.200 F 
ATOM    138  F   UNL A   1      47.357  36.253  30.212  1.00  0.00    -0.200 F 
ENDBRANCH 104 128
ENDBRANCH  69  72
ENDBRANCH  59  62
ENDBRANCH  55  58
ENDBRANCH  52  55
ENDBRANCH  49  52
ENDBRANCH   1  49
TORSDOF 17
ENDMDL
MODEL 5
REMARK VINA RESULT:     -12.9      0.911      7.191
REMARK SMILES C[C@@H](C(=O)NCCCCCCNC(=O)c1ccc(-c2c3nc(c(-c4c(F)c(F)c(F)c(F)c4F)c4ccc([nH]4)c(-c4c(F)c(F)c(F)c(F)c4F)c4nc(c(-c5c(F)c(F)c(F)c(F)c5F)c5ccc2[nH]5)C=C4)C=C3)cc1)c1ccc2c3cc(Cl)ccc3n(C(=O)c3cocn3)c2c1
REMARK SMILES IDX 8 1 7 4 6 7 5 10 3 11 4 12 2 14 1 16 78 20 79 21 98 22 80 23
REMARK SMILES IDX 97 25 81 27 89 29 82 30 88 31 83 32 87 33 84 34 86 36 85 38
REMARK SMILES IDX 90 40 91 41 92 42 93 43 96 44 94 45 95 47 9 49 10 52 11 55
REMARK SMILES IDX 12 58 13 59 14 61 15 62 16 63 77 64 17 65 76 67 18 69 19 72
REMARK SMILES IDX 20 73 70 74 21 75 75 76 69 77 71 78 22 79 74 80 68 82 67 84
REMARK SMILES IDX 23 86 55 89 35 90 54 91 36 92 39 93 53 94 72 95 37 96 38 98
REMARK SMILES IDX 52 100 73 101 40 104 24 106 25 107 33 108 26 109 27 110
REMARK SMILES IDX 31 111 34 112 28 113 29 114 32 115 30 116 56 117 57 118
REMARK SMILES IDX 65 119 58 120 59 121 63 122 66 123 60 124 61 125 64 126
REMARK SMILES IDX 62 127 41 128 42 129 50 130 43 131 44 132 48 133 51 134
REMARK SMILES IDX 45 135 46 136 49 137 47 138
REMARK H PARENT 8 2 8 3 7 5 7 6 6 8 6 9 5 13 2 15 1 17 1 18 1 19 79 24 98 26
REMARK H PARENT 80 28 83 35 87 37 86 39 93 46 95 48 9 50 9 51 10 53 10 54
REMARK H PARENT 11 56 11 57 12 60 16 66 77 68 17 70 76 71 75 81 69 83 71 85
REMARK H PARENT 74 87 68 88 36 97 39 99 72 102 37 103 73 105
REMARK Flexibility Score: inf
ROOT
ATOM      1  C   UNL A   1      32.274  29.826  26.386  1.00  0.00    -0.052 C 
ATOM      2  H   UNL A   1      32.542  29.195  25.564  1.00  0.00     0.027 H 
ATOM      3  H   UNL A   1      33.118  30.275  26.868  1.00  0.00     0.027 H 
ENDROOT
BRANCH   1   4
ATOM      4  C   UNL A   1      31.583  28.959  27.448  1.00  0.00    -0.036 C 
ATOM      5  H   UNL A   1      31.841  29.339  28.414  1.00  0.00     0.028 H 
ATOM      6  H   UNL A   1      30.532  29.008  27.254  1.00  0.00     0.028 H 
BRANCH   4   7
ATOM      7  C   UNL A   1      31.976  27.481  27.392  1.00  0.00     0.017 C 
ATOM      8  H   UNL A   1      32.779  27.355  26.698  1.00  0.00     0.049 H 
ATOM      9  H   UNL A   1      32.281  27.165  28.368  1.00  0.00     0.049 H 
BRANCH   7  10
ATOM     10  N   UNL A   1      30.850  26.681  26.970  1.00  0.00    -0.356 N 
ATOM     11  C   UNL A   1      30.502  26.253  25.727  1.00  0.00     0.227 C 
ATOM     12  O   UNL A   1      29.411  25.687  25.636  1.00  0.00    -0.274 OA
ATOM     13  H   UNL A   1      30.243  26.402  27.693  1.00  0.00     0.163 HD
BRANCH  11  14
ATOM     14  C   UNL A   1      31.477  26.436  24.546  1.00  0.00     0.060 C 
ATOM     15  H   UNL A   1      31.704  27.482  24.529  1.00  0.00     0.045 H 
BRANCH  14  16
ATOM     16  C   UNL A   1      30.869  26.066  23.186  1.00  0.00    -0.049 C 
ATOM     17  H   UNL A   1      29.898  26.506  23.099  1.00  0.00     0.024 H 
ATOM     18  H   UNL A   1      30.788  25.002  23.110  1.00  0.00     0.024 H 
ATOM     19  H   UNL A   1      31.499  26.433  22.403  1.00  0.00     0.024 H 
ENDBRANCH  14  16
BRANCH  14  20
ATOM     20  C   UNL A   1      32.748  25.623  24.754  1.00  0.00    -0.034 A 
ATOM     21  C   UNL A   1      33.935  26.222  25.174  1.00  0.00    -0.057 A 
ATOM     22  C   UNL A   1      32.718  24.240  24.515  1.00  0.00    -0.033 A 
ATOM     23  C   UNL A   1      35.080  25.449  25.393  1.00  0.00    -0.052 A 
ATOM     24  H   UNL A   1      33.967  27.242  25.324  1.00  0.00     0.063 H 
ATOM     25  C   UNL A   1      33.884  23.479  24.677  1.00  0.00     0.058 A 
ATOM     26  H   UNL A   1      31.839  23.784  24.222  1.00  0.00     0.065 H 
ATOM     27  C   UNL A   1      35.051  24.057  25.155  1.00  0.00     0.008 A 
ATOM     28  H   UNL A   1      35.948  25.897  25.730  1.00  0.00     0.063 H 
ATOM     29  N   UNL A   1      34.106  22.116  24.453  1.00  0.00    -0.274 N 
ATOM     30  C   UNL A   1      36.010  23.016  25.282  1.00  0.00     0.009 A 
ATOM     31  C   UNL A   1      35.437  21.833  24.790  1.00  0.00     0.057 A 
ATOM     32  C   UNL A   1      37.347  23.011  25.734  1.00  0.00    -0.033 A 
ATOM     33  C   UNL A   1      36.222  20.674  24.632  1.00  0.00    -0.036 A 
ATOM     34  C   UNL A   1      38.102  21.848  25.623  1.00  0.00     0.041 A 
ATOM     35  H   UNL A   1      37.761  23.864  26.143  1.00  0.00     0.065 H 
ATOM     36  C   UNL A   1      37.556  20.701  25.060  1.00  0.00    -0.041 A 
ATOM     37  H   UNL A   1      35.823  19.822  24.208  1.00  0.00     0.065 H 
ATOM     38  Cl  UNL A   1      39.740  21.851  26.150  1.00  0.00    -0.084 Cl
ATOM     39  H   UNL A   1      38.141  19.858  24.957  1.00  0.00     0.064 H 
BRANCH  29  40
ATOM     40  C   UNL A   1      33.131  21.247  23.896  1.00  0.00     0.284 C 
ATOM     41  O   UNL A   1      32.553  21.672  22.891  1.00  0.00    -0.266 OA
BRANCH  40  42
ATOM     42  C   UNL A   1      32.749  19.944  24.432  1.00  0.00     0.167 A 
ATOM     43  C   UNL A   1      32.263  18.831  23.780  1.00  0.00     0.124 A 
ATOM     44  N   UNL A   1      32.971  19.605  25.763  1.00  0.00    -0.211 NA
ATOM     45  O   UNL A   1      32.166  17.808  24.680  1.00  0.00    -0.451 OA
ATOM     46  H   UNL A   1      32.015  18.780  22.779  1.00  0.00     0.107 H 
ATOM     47  C   UNL A   1      32.625  18.344  25.841  1.00  0.00     0.181 A 
ATOM     48  H   UNL A   1      32.696  17.801  26.716  1.00  0.00     0.127 H 
ENDBRANCH  40  42
ENDBRANCH  29  40
ENDBRANCH  14  20
ENDBRANCH  11  14
ENDBRANCH   7  10
ENDBRANCH   4   7
ENDBRANCH   1   4
BRANCH   1  49
ATOM     49  C   UNL A   1      31.424  30.979  25.843  1.00  0.00    -0.052 C 
ATOM     50  H   UNL A   1      30.444  30.603  25.638  1.00  0.00     0.027 H 
ATOM     51  H   UNL A   1      31.928  31.341  24.971  1.00  0.00     0.027 H 
BRANCH  49  52
ATOM     52  C   UNL A   1      31.287  32.173  26.790  1.00  0.00    -0.036 C 
ATOM     53  H   UNL A   1      30.850  31.828  27.704  1.00  0.00     0.028 H 
ATOM     54  H   UNL A   1      30.680  32.896  26.287  1.00  0.00     0.028 H 
BRANCH  52  55
ATOM     55  C   UNL A   1      32.603  32.862  27.120  1.00  0.00     0.018 C 
ATOM     56  H   UNL A   1      33.223  32.860  26.247  1.00  0.00     0.049 H 
ATOM     57  H   UNL A   1      33.066  32.325  27.922  1.00  0.00     0.049 H 
BRANCH  55  58
ATOM     58  N   UNL A   1      32.403  34.233  27.552  1.00  0.00    -0.352 N 
ATOM     59  C   UNL A   1      32.975  34.899  28.606  1.00  0.00     0.251 C 
ATOM     60  H   UNL A   1      31.768  34.757  27.014  1.00  0.00     0.163 HD
ATOM     61  O   UNL A   1      32.542  35.988  28.956  1.00  0.00    -0.269 OA
BRANCH  59  62
ATOM     62  C   UNL A   1      34.114  34.290  29.327  1.00  0.00     0.039 A 
ATOM     63  C   UNL A   1      35.407  34.513  28.850  1.00  0.00    -0.049 A 
ATOM     64  C   UNL A   1      33.909  33.477  30.446  1.00  0.00    -0.049 A 
ATOM     65  C   UNL A   1      36.495  33.935  29.506  1.00  0.00    -0.053 A 
ATOM     66  H   UNL A   1      35.558  35.101  28.015  1.00  0.00     0.063 H 
ATOM     67  C   UNL A   1      34.997  32.972  31.148  1.00  0.00    -0.053 A 
ATOM     68  H   UNL A   1      32.948  33.252  30.751  1.00  0.00     0.063 H 
ATOM     69  C   UNL A   1      36.299  33.169  30.667  1.00  0.00    -0.014 A 
ATOM     70  H   UNL A   1      37.449  34.071  29.136  1.00  0.00     0.063 H 
ATOM     71  H   UNL A   1      34.846  32.449  32.025  1.00  0.00     0.063 H 
BRANCH  69  72
ATOM     72  C   UNL A   1      37.443  32.517  31.351  1.00  0.00     0.031 A 
ATOM     73  C   UNL A   1      38.159  31.373  30.685  1.00  0.00     0.074 A 
ATOM     74  C   UNL A   1      37.813  32.924  32.580  1.00  0.00     0.049 A 
ATOM     75  N   UNL A   1      39.162  30.653  31.122  1.00  0.00    -0.248 NA
ATOM     76  C   UNL A   1      37.664  30.964  29.360  1.00  0.00    -0.034 C 
ATOM     77  C   UNL A   1      37.168  33.991  33.347  1.00  0.00    -0.036 A 
ATOM     78  N   UNL A   1      38.824  32.489  33.399  1.00  0.00    -0.354 N 
ATOM     79  C   UNL A   1      39.399  29.699  30.140  1.00  0.00     0.074 A 
ATOM     80  C   UNL A   1      38.400  29.892  29.113  1.00  0.00    -0.034 C 
ATOM     81  H   UNL A   1      36.933  31.399  28.777  1.00  0.00     0.065 H 
ATOM     82  C   UNL A   1      37.819  34.149  34.510  1.00  0.00    -0.036 A 
ATOM     83  H   UNL A   1      36.346  34.534  33.042  1.00  0.00     0.065 H 
ATOM     84  C   UNL A   1      38.905  33.175  34.586  1.00  0.00     0.049 A 
ATOM     85  H   UNL A   1      39.433  31.753  33.160  1.00  0.00     0.167 HD
ATOM     86  C   UNL A   1      40.378  28.765  30.087  1.00  0.00     0.037 A 
ATOM     87  H   UNL A   1      38.278  29.275  28.295  1.00  0.00     0.065 H 
ATOM     88  H   UNL A   1      37.590  34.847  35.236  1.00  0.00     0.065 H 
ATOM     89  C   UNL A   1      39.763  33.035  35.613  1.00  0.00     0.037 A 
ATOM     90  C   UNL A   1      41.391  28.602  31.095  1.00  0.00     0.049 A 
ATOM     91  C   UNL A   1      40.850  31.996  35.524  1.00  0.00     0.074 A 
ATOM     92  C   UNL A   1      42.467  27.731  31.107  1.00  0.00    -0.036 A 
ATOM     93  N   UNL A   1      41.454  29.331  32.274  1.00  0.00    -0.354 N 
ATOM     94  N   UNL A   1      41.111  31.150  34.557  1.00  0.00    -0.248 NA
ATOM     95  C   UNL A   1      41.770  31.905  36.665  1.00  0.00    -0.034 C 
ATOM     96  C   UNL A   1      43.151  27.899  32.316  1.00  0.00    -0.036 A 
ATOM     97  H   UNL A   1      42.719  27.073  30.355  1.00  0.00     0.065 H 
ATOM     98  C   UNL A   1      42.537  28.916  33.030  1.00  0.00     0.049 A 
ATOM     99  H   UNL A   1      40.821  30.040  32.534  1.00  0.00     0.167 HD
ATOM    100  C   UNL A   1      42.247  30.456  34.953  1.00  0.00     0.074 A 
ATOM    101  C   UNL A   1      42.630  30.988  36.245  1.00  0.00    -0.034 C 
ATOM    102  H   UNL A   1      41.752  32.419  37.559  1.00  0.00     0.065 H 
ATOM    103  H   UNL A   1      43.972  27.356  32.623  1.00  0.00     0.065 H 
ATOM    104  C   UNL A   1      42.915  29.470  34.306  1.00  0.00     0.037 A 
ATOM    105  H   UNL A   1      43.466  30.690  36.771  1.00  0.00     0.065 H 
BRANCH  86 106
ATOM    106  C   UNL A   1      40.396  27.845  28.899  1.00  0.00     0.064 A 
ATOM    107  C   UNL A   1      41.134  28.143  27.743  1.00  0.00     0.173 A 
ATOM    108  C   UNL A   1      39.686  26.635  28.926  1.00  0.00     0.173 A 
ATOM    109  F   UNL A   1      41.822  29.293  27.658  1.00  0.00    -0.203 F 
ATOM    110  C   UNL A   1      41.131  27.284  26.646  1.00  0.00     0.198 A 
ATOM    111  C   UNL A   1      39.713  25.762  27.841  1.00  0.00     0.198 A 
ATOM    112  F   UNL A   1      38.968  26.296  30.008  1.00  0.00    -0.203 F 
ATOM    113  F   UNL A   1      41.796  27.620  25.532  1.00  0.00    -0.200 F 
ATOM    114  C   UNL A   1      40.427  26.092  26.700  1.00  0.00     0.200 A 
ATOM    115  F   UNL A   1      39.044  24.602  27.900  1.00  0.00    -0.200 F 
ATOM    116  F   UNL A   1      40.429  25.263  25.647  1.00  0.00    -0.200 F 
ENDBRANCH  86 106
BRANCH  89 117
ATOM    117  C   UNL A   1      39.663  33.930  36.795  1.00  0.00     0.064 A 
ATOM    118  C   UNL A   1      38.913  33.554  37.919  1.00  0.00     0.173 A 
ATOM    119  C   UNL A   1      40.301  35.178  36.825  1.00  0.00     0.173 A 
ATOM    120  F   UNL A   1      38.270  32.378  37.931  1.00  0.00    -0.203 F 
ATOM    121  C   UNL A   1      38.783  34.403  39.016  1.00  0.00     0.198 A 
ATOM    122  C   UNL A   1      40.194  36.015  37.935  1.00  0.00     0.198 A 
ATOM    123  F   UNL A   1      41.036  35.583  35.779  1.00  0.00    -0.203 F 
ATOM    124  F   UNL A   1      38.018  34.040  40.054  1.00  0.00    -0.200 F 
ATOM    125  C   UNL A   1      39.427  35.631  39.025  1.00  0.00     0.200 A 
ATOM    126  F   UNL A   1      40.830  37.194  37.946  1.00  0.00    -0.200 F 
ATOM    127  F   UNL A   1      39.303  36.447  40.080  1.00  0.00    -0.200 F 
ENDBRANCH  89 117
BRANCH 104 128
ATOM    128  C   UNL A   1      44.164  28.944  34.952  1.00  0.00     0.064 A 
ATOM    129  C   UNL A   1      44.141  27.851  35.832  1.00  0.00     0.173 A 
ATOM    130  C   UNL A   1      45.408  29.528  34.662  1.00  0.00     0.173 A 
ATOM    131  F   UNL A   1      42.977  27.267  36.152  1.00  0.00    -0.203 F 
ATOM    132  C   UNL A   1      45.312  27.384  36.424  1.00  0.00     0.198 A 
ATOM    133  C   UNL A   1      46.580  29.035  35.228  1.00  0.00     0.198 A 
ATOM    134  F   UNL A   1      45.487  30.568  33.821  1.00  0.00    -0.203 F 
ATOM    135  F   UNL A   1      45.258  26.376  37.305  1.00  0.00    -0.200 F 
ATOM    136  C   UNL A   1      46.531  27.972  36.116  1.00  0.00     0.200 A 
ATOM    137  F   UNL A   1      47.758  29.595  34.918  1.00  0.00    -0.200 F 
ATOM    138  F   UNL A   1      47.657  27.518  36.683  1.00  0.00    -0.200 F 
ENDBRANCH 104 128
ENDBRANCH  69  72
ENDBRANCH  59  62
ENDBRANCH  55  58
ENDBRANCH  52  55
ENDBRANCH  49  52
ENDBRANCH   1  49
TORSDOF 17
ENDMDL
MODEL 6
REMARK VINA RESULT:     -12.9      2.284      3.407
REMARK SMILES C[C@@H](C(=O)NCCCCCCNC(=O)c1ccc(-c2c3nc(c(-c4c(F)c(F)c(F)c(F)c4F)c4ccc([nH]4)c(-c4c(F)c(F)c(F)c(F)c4F)c4nc(c(-c5c(F)c(F)c(F)c(F)c5F)c5ccc2[nH]5)C=C4)C=C3)cc1)c1ccc2c3cc(Cl)ccc3n(C(=O)c3cocn3)c2c1
REMARK SMILES IDX 8 1 7 4 6 7 5 10 3 11 4 12 2 14 1 16 78 20 79 21 98 22 80 23
REMARK SMILES IDX 97 25 81 27 89 29 82 30 88 31 83 32 87 33 84 34 86 36 85 38
REMARK SMILES IDX 90 40 91 41 92 42 93 43 96 44 94 45 95 47 9 49 10 52 11 55
REMARK SMILES IDX 12 58 13 59 14 61 15 62 16 63 77 64 17 65 76 67 18 69 19 72
REMARK SMILES IDX 20 73 70 74 21 75 75 76 69 77 71 78 22 79 74 80 68 82 67 84
REMARK SMILES IDX 23 86 55 89 35 90 54 91 36 92 39 93 53 94 72 95 37 96 38 98
REMARK SMILES IDX 52 100 73 101 40 104 24 106 25 107 33 108 26 109 27 110
REMARK SMILES IDX 31 111 34 112 28 113 29 114 32 115 30 116 56 117 57 118
REMARK SMILES IDX 65 119 58 120 59 121 63 122 66 123 60 124 61 125 64 126
REMARK SMILES IDX 62 127 41 128 42 129 50 130 43 131 44 132 48 133 51 134
REMARK SMILES IDX 45 135 46 136 49 137 47 138
REMARK H PARENT 8 2 8 3 7 5 7 6 6 8 6 9 5 13 2 15 1 17 1 18 1 19 79 24 98 26
REMARK H PARENT 80 28 83 35 87 37 86 39 93 46 95 48 9 50 9 51 10 53 10 54
REMARK H PARENT 11 56 11 57 12 60 16 66 77 68 17 70 76 71 75 81 69 83 71 85
REMARK H PARENT 74 87 68 88 36 97 39 99 72 102 37 103 73 105
REMARK Flexibility Score: inf
ROOT
ATOM      1  C   UNL A   1      30.216  29.699  23.876  1.00  0.00    -0.052 C 
ATOM      2  H   UNL A   1      29.544  29.155  24.507  1.00  0.00     0.027 H 
ATOM      3  H   UNL A   1      29.936  30.723  23.743  1.00  0.00     0.027 H 
ENDROOT
BRANCH   1   4
ATOM      4  C   UNL A   1      30.182  29.059  22.481  1.00  0.00    -0.036 C 
ATOM      5  H   UNL A   1      29.250  29.308  22.017  1.00  0.00     0.028 H 
ATOM      6  H   UNL A   1      31.024  29.443  21.942  1.00  0.00     0.028 H 
BRANCH   4   7
ATOM      7  C   UNL A   1      30.322  27.536  22.493  1.00  0.00     0.017 C 
ATOM      8  H   UNL A   1      30.335  27.191  23.504  1.00  0.00     0.049 H 
ATOM      9  H   UNL A   1      29.493  27.107  21.969  1.00  0.00     0.049 H 
BRANCH   7  10
ATOM     10  N   UNL A   1      31.546  27.141  21.838  1.00  0.00    -0.356 N 
ATOM     11  C   UNL A   1      32.720  26.708  22.372  1.00  0.00     0.227 C 
ATOM     12  O   UNL A   1      33.653  26.560  21.580  1.00  0.00    -0.274 OA
ATOM     13  H   UNL A   1      31.529  27.193  20.856  1.00  0.00     0.163 HD
BRANCH  11  14
ATOM     14  C   UNL A   1      32.808  26.377  23.876  1.00  0.00     0.060 C 
ATOM     15  H   UNL A   1      31.930  26.808  24.310  1.00  0.00     0.045 H 
BRANCH  14  16
ATOM     16  C   UNL A   1      34.028  26.998  24.570  1.00  0.00    -0.049 C 
ATOM     17  H   UNL A   1      34.647  26.220  24.966  1.00  0.00     0.024 H 
ATOM     18  H   UNL A   1      33.701  27.633  25.365  1.00  0.00     0.024 H 
ATOM     19  H   UNL A   1      34.587  27.572  23.861  1.00  0.00     0.024 H 
ENDBRANCH  14  16
BRANCH  14  20
ATOM     20  C   UNL A   1      32.826  24.871  24.106  1.00  0.00    -0.034 A 
ATOM     21  C   UNL A   1      31.665  24.171  24.431  1.00  0.00    -0.057 A 
ATOM     22  C   UNL A   1      34.042  24.179  23.986  1.00  0.00    -0.033 A 
ATOM     23  C   UNL A   1      31.699  22.783  24.602  1.00  0.00    -0.052 A 
ATOM     24  H   UNL A   1      30.776  24.681  24.546  1.00  0.00     0.063 H 
ATOM     25  C   UNL A   1      34.082  22.797  24.218  1.00  0.00     0.058 A 
ATOM     26  H   UNL A   1      34.902  24.685  23.727  1.00  0.00     0.065 H 
ATOM     27  C   UNL A   1      32.921  22.084  24.480  1.00  0.00     0.008 A 
ATOM     28  H   UNL A   1      30.829  22.268  24.817  1.00  0.00     0.063 H 
ATOM     29  N   UNL A   1      35.168  21.915  24.207  1.00  0.00    -0.274 N 
ATOM     30  C   UNL A   1      33.287  20.715  24.583  1.00  0.00     0.009 A 
ATOM     31  C   UNL A   1      34.683  20.627  24.473  1.00  0.00     0.057 A 
ATOM     32  C   UNL A   1      32.528  19.548  24.816  1.00  0.00    -0.033 A 
ATOM     33  C   UNL A   1      35.340  19.405  24.713  1.00  0.00    -0.036 A 
ATOM     34  C   UNL A   1      33.181  18.334  25.000  1.00  0.00     0.041 A 
ATOM     35  H   UNL A   1      31.497  19.596  24.849  1.00  0.00     0.065 H 
ATOM     36  C   UNL A   1      34.568  18.265  24.972  1.00  0.00    -0.041 A 
ATOM     37  H   UNL A   1      36.371  19.350  24.700  1.00  0.00     0.065 H 
ATOM     38  Cl  UNL A   1      32.256  16.916  25.310  1.00  0.00    -0.084 Cl
ATOM     39  H   UNL A   1      35.036  17.361  25.143  1.00  0.00     0.064 H 
BRANCH  29  40
ATOM     40  C   UNL A   1      36.514  22.336  24.037  1.00  0.00     0.284 C 
ATOM     41  O   UNL A   1      36.852  22.578  22.874  1.00  0.00    -0.266 OA
BRANCH  40  42
ATOM     42  C   UNL A   1      37.505  22.460  25.101  1.00  0.00     0.167 A 
ATOM     43  C   UNL A   1      38.396  21.527  25.589  1.00  0.00     0.124 A 
ATOM     44  N   UNL A   1      37.776  23.680  25.713  1.00  0.00    -0.211 NA
ATOM     45  O   UNL A   1      39.208  22.138  26.501  1.00  0.00    -0.451 OA
ATOM     46  H   UNL A   1      38.440  20.534  25.311  1.00  0.00     0.107 H 
ATOM     47  C   UNL A   1      38.787  23.430  26.507  1.00  0.00     0.181 A 
ATOM     48  H   UNL A   1      39.228  24.157  27.092  1.00  0.00     0.127 H 
ENDBRANCH  40  42
ENDBRANCH  29  40
ENDBRANCH  14  20
ENDBRANCH  11  14
ENDBRANCH   7  10
ENDBRANCH   4   7
ENDBRANCH   1   4
BRANCH   1  49
ATOM     49  C   UNL A   1      31.593  29.711  24.546  1.00  0.00    -0.052 C 
ATOM     50  H   UNL A   1      31.972  30.710  24.509  1.00  0.00     0.027 H 
ATOM     51  H   UNL A   1      32.197  29.011  24.008  1.00  0.00     0.027 H 
BRANCH  49  52
ATOM     52  C   UNL A   1      31.597  29.254  26.006  1.00  0.00    -0.036 C 
ATOM     53  H   UNL A   1      31.677  28.187  26.023  1.00  0.00     0.028 H 
ATOM     54  H   UNL A   1      30.687  29.609  26.442  1.00  0.00     0.028 H 
BRANCH  52  55
ATOM     55  C   UNL A   1      32.734  29.831  26.837  1.00  0.00     0.018 C 
ATOM     56  H   UNL A   1      33.665  29.494  26.431  1.00  0.00     0.049 H 
ATOM     57  H   UNL A   1      32.610  29.496  27.846  1.00  0.00     0.049 H 
BRANCH  55  58
ATOM     58  N   UNL A   1      32.719  31.282  26.840  1.00  0.00    -0.352 N 
ATOM     59  C   UNL A   1      33.541  32.153  27.509  1.00  0.00     0.251 C 
ATOM     60  H   UNL A   1      32.024  31.699  26.282  1.00  0.00     0.163 HD
ATOM     61  O   UNL A   1      33.263  33.344  27.565  1.00  0.00    -0.269 OA
BRANCH  59  62
ATOM     62  C   UNL A   1      34.761  31.647  28.175  1.00  0.00     0.039 A 
ATOM     63  C   UNL A   1      34.768  30.336  28.657  1.00  0.00    -0.049 A 
ATOM     64  C   UNL A   1      35.879  32.467  28.354  1.00  0.00    -0.049 A 
ATOM     65  C   UNL A   1      35.903  29.843  29.301  1.00  0.00    -0.053 A 
ATOM     66  H   UNL A   1      33.937  29.735  28.537  1.00  0.00     0.063 H 
ATOM     67  C   UNL A   1      37.037  31.949  28.921  1.00  0.00    -0.053 A 
ATOM     68  H   UNL A   1      35.843  33.458  28.066  1.00  0.00     0.063 H 
ATOM     69  C   UNL A   1      37.051  30.642  29.429  1.00  0.00    -0.014 A 
ATOM     70  H   UNL A   1      35.899  28.886  29.688  1.00  0.00     0.063 H 
ATOM     71  H   UNL A   1      37.891  32.528  28.969  1.00  0.00     0.063 H 
BRANCH  69  72
ATOM     72  C   UNL A   1      38.250  30.144  30.147  1.00  0.00     0.031 A 
ATOM     73  C   UNL A   1      38.502  30.573  31.568  1.00  0.00     0.074 A 
ATOM     74  C   UNL A   1      39.127  29.342  29.516  1.00  0.00     0.049 A 
ATOM     75  N   UNL A   1      39.499  30.273  32.361  1.00  0.00    -0.248 NA
ATOM     76  C   UNL A   1      37.515  31.485  32.169  1.00  0.00    -0.034 C 
ATOM     77  C   UNL A   1      39.016  28.894  28.127  1.00  0.00    -0.036 A 
ATOM     78  N   UNL A   1      40.286  28.759  29.962  1.00  0.00    -0.354 N 
ATOM     79  C   UNL A   1      39.270  30.974  33.539  1.00  0.00     0.074 A 
ATOM     80  C   UNL A   1      38.073  31.760  33.337  1.00  0.00    -0.034 C 
ATOM     81  H   UNL A   1      36.621  31.822  31.780  1.00  0.00     0.065 H 
ATOM     82  C   UNL A   1      40.046  28.081  27.845  1.00  0.00    -0.036 A 
ATOM     83  H   UNL A   1      38.266  29.161  27.470  1.00  0.00     0.065 H 
ATOM     84  C   UNL A   1      40.907  27.976  29.020  1.00  0.00     0.049 A 
ATOM     85  H   UNL A   1      40.641  28.890  30.871  1.00  0.00     0.167 HD
ATOM     86  C   UNL A   1      39.977  30.944  34.693  1.00  0.00     0.037 A 
ATOM     87  H   UNL A   1      37.704  32.445  34.015  1.00  0.00     0.065 H 
ATOM     88  H   UNL A   1      40.205  27.606  26.942  1.00  0.00     0.065 H 
ATOM     89  C   UNL A   1      42.038  27.251  29.101  1.00  0.00     0.037 A 
ATOM     90  C   UNL A   1      41.147  30.131  34.900  1.00  0.00     0.049 A 
ATOM     91  C   UNL A   1      42.800  27.225  30.400  1.00  0.00     0.074 A 
ATOM     92  C   UNL A   1      41.898  29.976  36.052  1.00  0.00    -0.036 A 
ATOM     93  N   UNL A   1      41.733  29.333  33.928  1.00  0.00    -0.354 N 
ATOM     94  N   UNL A   1      42.533  27.832  31.531  1.00  0.00    -0.248 NA
ATOM     95  C   UNL A   1      44.015  26.400  30.436  1.00  0.00    -0.034 C 
ATOM     96  C   UNL A   1      42.969  29.123  35.762  1.00  0.00    -0.036 A 
ATOM     97  H   UNL A   1      41.703  30.414  36.964  1.00  0.00     0.065 H 
ATOM     98  C   UNL A   1      42.849  28.699  34.447  1.00  0.00     0.049 A 
ATOM     99  H   UNL A   1      41.403  29.232  33.006  1.00  0.00     0.167 HD
ATOM    100  C   UNL A   1      43.518  27.430  32.423  1.00  0.00     0.074 A 
ATOM    101  C   UNL A   1      44.385  26.520  31.703  1.00  0.00    -0.034 C 
ATOM    102  H   UNL A   1      44.462  25.866  29.675  1.00  0.00     0.065 H 
ATOM    103  H   UNL A   1      43.721  28.856  36.416  1.00  0.00     0.065 H 
ATOM    104  C   UNL A   1      43.690  27.780  33.721  1.00  0.00     0.037 A 
ATOM    105  H   UNL A   1      45.188  26.027  32.123  1.00  0.00     0.065 H 
BRANCH  86 106
ATOM    106  C   UNL A   1      39.505  31.817  35.821  1.00  0.00     0.064 A 
ATOM    107  C   UNL A   1      40.040  33.096  36.041  1.00  0.00     0.173 A 
ATOM    108  C   UNL A   1      38.484  31.380  36.678  1.00  0.00     0.173 A 
ATOM    109  F   UNL A   1      41.026  33.559  35.258  1.00  0.00    -0.203 F 
ATOM    110  C   UNL A   1      39.597  33.888  37.098  1.00  0.00     0.198 A 
ATOM    111  C   UNL A   1      38.019  32.189  37.713  1.00  0.00     0.198 A 
ATOM    112  F   UNL A   1      37.931  30.169  36.510  1.00  0.00    -0.203 F 
ATOM    113  F   UNL A   1      40.166  35.081  37.323  1.00  0.00    -0.200 F 
ATOM    114  C   UNL A   1      38.583  33.437  37.927  1.00  0.00     0.200 A 
ATOM    115  F   UNL A   1      37.028  31.757  38.505  1.00  0.00    -0.200 F 
ATOM    116  F   UNL A   1      38.154  34.202  38.940  1.00  0.00    -0.200 F 
ENDBRANCH  86 106
BRANCH  89 117
ATOM    117  C   UNL A   1      42.497  26.452  27.935  1.00  0.00     0.064 A 
ATOM    118  C   UNL A   1      43.362  27.007  26.981  1.00  0.00     0.173 A 
ATOM    119  C   UNL A   1      42.077  25.128  27.743  1.00  0.00     0.173 A 
ATOM    120  F   UNL A   1      43.777  28.274  27.110  1.00  0.00    -0.203 F 
ATOM    121  C   UNL A   1      43.766  26.277  25.865  1.00  0.00     0.198 A 
ATOM    122  C   UNL A   1      42.505  24.390  26.642  1.00  0.00     0.198 A 
ATOM    123  F   UNL A   1      41.255  24.548  28.631  1.00  0.00    -0.203 F 
ATOM    124  F   UNL A   1      44.551  26.850  24.942  1.00  0.00    -0.200 F 
ATOM    125  C   UNL A   1      43.341  24.967  25.699  1.00  0.00     0.200 A 
ATOM    126  F   UNL A   1      42.106  23.119  26.493  1.00  0.00    -0.200 F 
ATOM    127  F   UNL A   1      43.731  24.266  24.626  1.00  0.00    -0.200 F 
ENDBRANCH  89 117
BRANCH 104 128
ATOM    128  C   UNL A   1      44.820  27.131  34.467  1.00  0.00     0.064 A 
ATOM    129  C   UNL A   1      46.090  27.721  34.551  1.00  0.00     0.173 A 
ATOM    130  C   UNL A   1      44.617  25.911  35.132  1.00  0.00     0.173 A 
ATOM    131  F   UNL A   1      46.339  28.879  33.922  1.00  0.00    -0.203 F 
ATOM    132  C   UNL A   1      47.125  27.097  35.244  1.00  0.00     0.198 A 
ATOM    133  C   UNL A   1      45.644  25.308  35.852  1.00  0.00     0.198 A 
ATOM    134  F   UNL A   1      43.420  25.309  35.091  1.00  0.00    -0.203 F 
ATOM    135  F   UNL A   1      48.345  27.650  35.262  1.00  0.00    -0.200 F 
ATOM    136  C   UNL A   1      46.899  25.895  35.899  1.00  0.00     0.200 A 
ATOM    137  F   UNL A   1      45.420  24.154  36.498  1.00  0.00    -0.200 F 
ATOM    138  F   UNL A   1      47.894  25.298  36.569  1.00  0.00    -0.200 F 
ENDBRANCH 104 128
ENDBRANCH  69  72
ENDBRANCH  59  62
ENDBRANCH  55  58
ENDBRANCH  52  55
ENDBRANCH  49  52
ENDBRANCH   1  49
TORSDOF 17
ENDMDL
MODEL 7
REMARK VINA RESULT:     -12.8      4.604     10.686
REMARK SMILES C[C@@H](C(=O)NCCCCCCNC(=O)c1ccc(-c2c3nc(c(-c4c(F)c(F)c(F)c(F)c4F)c4ccc([nH]4)c(-c4c(F)c(F)c(F)c(F)c4F)c4nc(c(-c5c(F)c(F)c(F)c(F)c5F)c5ccc2[nH]5)C=C4)C=C3)cc1)c1ccc2c3cc(Cl)ccc3n(C(=O)c3cocn3)c2c1
REMARK SMILES IDX 8 1 7 4 6 7 5 10 3 11 4 12 2 14 1 16 78 20 79 21 98 22 80 23
REMARK SMILES IDX 97 25 81 27 89 29 82 30 88 31 83 32 87 33 84 34 86 36 85 38
REMARK SMILES IDX 90 40 91 41 92 42 93 43 96 44 94 45 95 47 9 49 10 52 11 55
REMARK SMILES IDX 12 58 13 59 14 61 15 62 16 63 77 64 17 65 76 67 18 69 19 72
REMARK SMILES IDX 20 73 70 74 21 75 75 76 69 77 71 78 22 79 74 80 68 82 67 84
REMARK SMILES IDX 23 86 55 89 35 90 54 91 36 92 39 93 53 94 72 95 37 96 38 98
REMARK SMILES IDX 52 100 73 101 40 104 24 106 25 107 33 108 26 109 27 110
REMARK SMILES IDX 31 111 34 112 28 113 29 114 32 115 30 116 56 117 57 118
REMARK SMILES IDX 65 119 58 120 59 121 63 122 66 123 60 124 61 125 64 126
REMARK SMILES IDX 62 127 41 128 42 129 50 130 43 131 44 132 48 133 51 134
REMARK SMILES IDX 45 135 46 136 49 137 47 138
REMARK H PARENT 8 2 8 3 7 5 7 6 6 8 6 9 5 13 2 15 1 17 1 18 1 19 79 24 98 26
REMARK H PARENT 80 28 83 35 87 37 86 39 93 46 95 48 9 50 9 51 10 53 10 54
REMARK H PARENT 11 56 11 57 12 60 16 66 77 68 17 70 76 71 75 81 69 83 71 85
REMARK H PARENT 74 87 68 88 36 97 39 99 72 102 37 103 73 105
REMARK Flexibility Score: inf
ROOT
ATOM      1  C   UNL A   1      34.451  19.533  24.654  1.00  0.00    -0.052 C 
ATOM      2  H   UNL A   1      34.519  19.720  23.602  1.00  0.00     0.027 H 
ATOM      3  H   UNL A   1      34.900  18.608  24.949  1.00  0.00     0.027 H 
ENDROOT
BRANCH   1   4
ATOM      4  C   UNL A   1      32.965  19.428  25.025  1.00  0.00    -0.036 C 
ATOM      5  H   UNL A   1      32.552  18.577  24.524  1.00  0.00     0.028 H 
ATOM      6  H   UNL A   1      32.916  19.341  26.090  1.00  0.00     0.028 H 
BRANCH   4   7
ATOM      7  C   UNL A   1      32.141  20.658  24.642  1.00  0.00     0.017 C 
ATOM      8  H   UNL A   1      32.735  21.304  24.031  1.00  0.00     0.049 H 
ATOM      9  H   UNL A   1      31.272  20.341  24.104  1.00  0.00     0.049 H 
BRANCH   7  10
ATOM     10  N   UNL A   1      31.726  21.370  25.827  1.00  0.00    -0.356 N 
ATOM     11  C   UNL A   1      32.177  22.547  26.341  1.00  0.00     0.227 C 
ATOM     12  O   UNL A   1      31.730  22.862  27.445  1.00  0.00    -0.274 OA
ATOM     13  H   UNL A   1      31.007  20.939  26.342  1.00  0.00     0.163 HD
BRANCH  11  14
ATOM     14  C   UNL A   1      33.144  23.426  25.521  1.00  0.00     0.060 C 
ATOM     15  H   UNL A   1      33.523  22.785  24.752  1.00  0.00     0.045 H 
BRANCH  14  16
ATOM     16  C   UNL A   1      34.340  23.942  26.333  1.00  0.00    -0.049 C 
ATOM     17  H   UNL A   1      34.193  24.976  26.566  1.00  0.00     0.024 H 
ATOM     18  H   UNL A   1      35.236  23.829  25.760  1.00  0.00     0.024 H 
ATOM     19  H   UNL A   1      34.424  23.381  27.240  1.00  0.00     0.024 H 
ENDBRANCH  14  16
BRANCH  14  20
ATOM     20  C   UNL A   1      32.417  24.615  24.907  1.00  0.00    -0.034 A 
ATOM     21  C   UNL A   1      31.892  24.560  23.617  1.00  0.00    -0.057 A 
ATOM     22  C   UNL A   1      32.276  25.790  25.662  1.00  0.00    -0.033 A 
ATOM     23  C   UNL A   1      31.196  25.651  23.087  1.00  0.00    -0.052 A 
ATOM     24  H   UNL A   1      32.018  23.706  23.050  1.00  0.00     0.063 H 
ATOM     25  C   UNL A   1      31.631  26.903  25.104  1.00  0.00     0.058 A 
ATOM     26  H   UNL A   1      32.645  25.834  26.625  1.00  0.00     0.065 H 
ATOM     27  C   UNL A   1      31.051  26.834  23.846  1.00  0.00     0.008 A 
ATOM     28  H   UNL A   1      30.788  25.592  22.140  1.00  0.00     0.063 H 
ATOM     29  N   UNL A   1      31.418  28.179  25.637  1.00  0.00    -0.274 N 
ATOM     30  C   UNL A   1      30.416  28.083  23.611  1.00  0.00     0.009 A 
ATOM     31  C   UNL A   1      30.699  28.928  24.696  1.00  0.00     0.057 A 
ATOM     32  C   UNL A   1      29.662  28.571  22.522  1.00  0.00    -0.033 A 
ATOM     33  C   UNL A   1      30.340  30.289  24.651  1.00  0.00    -0.036 A 
ATOM     34  C   UNL A   1      29.266  29.904  22.508  1.00  0.00     0.041 A 
ATOM     35  H   UNL A   1      29.407  27.943  21.743  1.00  0.00     0.065 H 
ATOM     36  C   UNL A   1      29.617  30.758  23.546  1.00  0.00    -0.041 A 
ATOM     37  H   UNL A   1      30.605  30.928  25.416  1.00  0.00     0.065 H 
ATOM     38  Cl  UNL A   1      28.368  30.505  21.168  1.00  0.00    -0.084 Cl
ATOM     39  H   UNL A   1      29.342  31.752  23.502  1.00  0.00     0.064 H 
BRANCH  29  40
ATOM     40  C   UNL A   1      31.947  28.602  26.886  1.00  0.00     0.284 C 
ATOM     41  O   UNL A   1      31.303  28.253  27.880  1.00  0.00    -0.266 OA
BRANCH  40  42
ATOM     42  C   UNL A   1      33.137  29.426  27.069  1.00  0.00     0.167 A 
ATOM     43  C   UNL A   1      33.253  30.797  27.168  1.00  0.00     0.124 A 
ATOM     44  N   UNL A   1      34.387  28.866  27.313  1.00  0.00    -0.211 NA
ATOM     45  O   UNL A   1      34.552  31.103  27.456  1.00  0.00    -0.451 OA
ATOM     46  H   UNL A   1      32.486  31.477  27.045  1.00  0.00     0.107 H 
ATOM     47  C   UNL A   1      35.165  29.894  27.545  1.00  0.00     0.181 A 
ATOM     48  H   UNL A   1      36.166  29.793  27.777  1.00  0.00     0.127 H 
ENDBRANCH  40  42
ENDBRANCH  29  40
ENDBRANCH  14  20
ENDBRANCH  11  14
ENDBRANCH   7  10
ENDBRANCH   4   7
ENDBRANCH   1   4
BRANCH   1  49
ATOM     49  C   UNL A   1      35.221  20.638  25.384  1.00  0.00    -0.052 C 
ATOM     50  H   UNL A   1      35.746  20.193  26.203  1.00  0.00     0.027 H 
ATOM     51  H   UNL A   1      34.493  21.359  25.693  1.00  0.00     0.027 H 
BRANCH  49  52
ATOM     52  C   UNL A   1      36.234  21.390  24.520  1.00  0.00    -0.036 C 
ATOM     53  H   UNL A   1      35.730  22.204  24.042  1.00  0.00     0.028 H 
ATOM     54  H   UNL A   1      36.630  20.681  23.823  1.00  0.00     0.028 H 
BRANCH  52  55
ATOM     55  C   UNL A   1      37.419  21.950  25.293  1.00  0.00     0.018 C 
ATOM     56  H   UNL A   1      37.054  22.519  26.123  1.00  0.00     0.049 H 
ATOM     57  H   UNL A   1      37.990  22.563  24.627  1.00  0.00     0.049 H 
BRANCH  55  58
ATOM     58  N   UNL A   1      38.287  20.898  25.790  1.00  0.00    -0.352 N 
ATOM     59  C   UNL A   1      39.539  20.999  26.340  1.00  0.00     0.251 C 
ATOM     60  H   UNL A   1      37.925  19.985  25.723  1.00  0.00     0.163 HD
ATOM     61  O   UNL A   1      40.218  19.996  26.518  1.00  0.00    -0.269 OA
BRANCH  59  62
ATOM     62  C   UNL A   1      40.074  22.328  26.710  1.00  0.00     0.039 A 
ATOM     63  C   UNL A   1      39.526  23.462  26.107  1.00  0.00    -0.049 A 
ATOM     64  C   UNL A   1      41.130  22.454  27.617  1.00  0.00    -0.049 A 
ATOM     65  C   UNL A   1      40.026  24.725  26.430  1.00  0.00    -0.053 A 
ATOM     66  H   UNL A   1      38.756  23.367  25.426  1.00  0.00     0.063 H 
ATOM     67  C   UNL A   1      41.570  23.715  28.000  1.00  0.00    -0.053 A 
ATOM     68  H   UNL A   1      41.583  21.610  28.002  1.00  0.00     0.063 H 
ATOM     69  C   UNL A   1      41.044  24.862  27.387  1.00  0.00    -0.014 A 
ATOM     70  H   UNL A   1      39.645  25.562  25.962  1.00  0.00     0.063 H 
ATOM     71  H   UNL A   1      42.286  23.809  28.738  1.00  0.00     0.063 H 
BRANCH  69  72
ATOM     72  C   UNL A   1      41.612  26.195  27.710  1.00  0.00     0.031 A 
ATOM     73  C   UNL A   1      42.994  26.553  27.236  1.00  0.00     0.074 A 
ATOM     74  C   UNL A   1      40.905  27.064  28.456  1.00  0.00     0.049 A 
ATOM     75  N   UNL A   1      43.681  27.650  27.431  1.00  0.00    -0.248 NA
ATOM     76  C   UNL A   1      43.714  25.529  26.461  1.00  0.00    -0.034 C 
ATOM     77  C   UNL A   1      39.575  26.814  29.012  1.00  0.00    -0.036 A 
ATOM     78  N   UNL A   1      41.208  28.335  28.875  1.00  0.00    -0.354 N 
ATOM     79  C   UNL A   1      44.913  27.438  26.825  1.00  0.00     0.074 A 
ATOM     80  C   UNL A   1      44.904  26.089  26.308  1.00  0.00    -0.034 C 
ATOM     81  H   UNL A   1      43.379  24.613  26.125  1.00  0.00     0.065 H 
ATOM     82  C   UNL A   1      39.163  27.909  29.671  1.00  0.00    -0.036 A 
ATOM     83  H   UNL A   1      39.039  25.938  28.914  1.00  0.00     0.065 H 
ATOM     84  C   UNL A   1      40.211  28.924  29.612  1.00  0.00     0.049 A 
ATOM     85  H   UNL A   1      42.061  28.782  28.668  1.00  0.00     0.167 HD
ATOM     86  C   UNL A   1      45.949  28.301  26.689  1.00  0.00     0.037 A 
ATOM     87  H   UNL A   1      45.718  25.624  25.876  1.00  0.00     0.065 H 
ATOM     88  H   UNL A   1      38.251  28.017  30.143  1.00  0.00     0.065 H 
ATOM     89  C   UNL A   1      40.150  30.147  30.170  1.00  0.00     0.037 A 
ATOM     90  C   UNL A   1      45.937  29.656  27.174  1.00  0.00     0.049 A 
ATOM     91  C   UNL A   1      41.310  31.092  29.994  1.00  0.00     0.074 A 
ATOM     92  C   UNL A   1      46.907  30.633  27.031  1.00  0.00    -0.036 A 
ATOM     93  N   UNL A   1      44.899  30.225  27.898  1.00  0.00    -0.354 N 
ATOM     94  N   UNL A   1      42.440  30.908  29.355  1.00  0.00    -0.248 NA
ATOM     95  C   UNL A   1      41.178  32.421  30.606  1.00  0.00    -0.034 C 
ATOM     96  C   UNL A   1      46.477  31.777  27.711  1.00  0.00    -0.036 A 
ATOM     97  H   UNL A   1      47.793  30.534  26.513  1.00  0.00     0.065 H 
ATOM     98  C   UNL A   1      45.213  31.533  28.226  1.00  0.00     0.049 A 
ATOM     99  H   UNL A   1      44.062  29.766  28.141  1.00  0.00     0.167 HD
ATOM    100  C   UNL A   1      43.134  32.107  29.451  1.00  0.00     0.074 A 
ATOM    101  C   UNL A   1      42.292  33.015  30.203  1.00  0.00    -0.034 C 
ATOM    102  H   UNL A   1      40.417  32.793  31.195  1.00  0.00     0.065 H 
ATOM    103  H   UNL A   1      47.011  32.654  27.812  1.00  0.00     0.065 H 
ATOM    104  C   UNL A   1      44.355  32.429  28.959  1.00  0.00     0.037 A 
ATOM    105  H   UNL A   1      42.530  33.999  30.401  1.00  0.00     0.065 H 
BRANCH  86 106
ATOM    106  C   UNL A   1      47.180  27.802  25.988  1.00  0.00     0.064 A 
ATOM    107  C   UNL A   1      47.279  27.781  24.588  1.00  0.00     0.173 A 
ATOM    108  C   UNL A   1      48.289  27.361  26.727  1.00  0.00     0.173 A 
ATOM    109  F   UNL A   1      46.245  28.181  23.832  1.00  0.00    -0.203 F 
ATOM    110  C   UNL A   1      48.425  27.305  23.955  1.00  0.00     0.198 A 
ATOM    111  C   UNL A   1      49.446  26.919  26.092  1.00  0.00     0.198 A 
ATOM    112  F   UNL A   1      48.252  27.365  28.069  1.00  0.00    -0.203 F 
ATOM    113  F   UNL A   1      48.471  27.241  22.617  1.00  0.00    -0.200 F 
ATOM    114  C   UNL A   1      49.509  26.881  24.707  1.00  0.00     0.200 A 
ATOM    115  F   UNL A   1      50.500  26.523  26.820  1.00  0.00    -0.200 F 
ATOM    116  F   UNL A   1      50.613  26.429  24.098  1.00  0.00    -0.200 F 
ENDBRANCH  86 106
BRANCH  89 117
ATOM    117  C   UNL A   1      38.931  30.571  30.908  1.00  0.00     0.064 A 
ATOM    118  C   UNL A   1      37.836  31.122  30.228  1.00  0.00     0.173 A 
ATOM    119  C   UNL A   1      38.838  30.447  32.301  1.00  0.00     0.173 A 
ATOM    120  F   UNL A   1      37.884  31.279  28.898  1.00  0.00    -0.203 F 
ATOM    121  C   UNL A   1      36.706  31.557  30.916  1.00  0.00     0.198 A 
ATOM    122  C   UNL A   1      37.695  30.855  32.986  1.00  0.00     0.198 A 
ATOM    123  F   UNL A   1      39.856  29.920  32.999  1.00  0.00    -0.203 F 
ATOM    124  F   UNL A   1      35.694  32.128  30.246  1.00  0.00    -0.200 F 
ATOM    125  C   UNL A   1      36.634  31.419  32.294  1.00  0.00     0.200 A 
ATOM    126  F   UNL A   1      37.623  30.706  34.315  1.00  0.00    -0.200 F 
ATOM    127  F   UNL A   1      35.546  31.837  32.955  1.00  0.00    -0.200 F 
ENDBRANCH  89 117
BRANCH 104 128
ATOM    128  C   UNL A   1      44.830  33.839  29.163  1.00  0.00     0.064 A 
ATOM    129  C   UNL A   1      44.528  34.864  28.254  1.00  0.00     0.173 A 
ATOM    130  C   UNL A   1      45.576  34.173  30.305  1.00  0.00     0.173 A 
ATOM    131  F   UNL A   1      43.830  34.594  27.141  1.00  0.00    -0.203 F 
ATOM    132  C   UNL A   1      44.984  36.163  28.463  1.00  0.00     0.198 A 
ATOM    133  C   UNL A   1      46.000  35.480  30.528  1.00  0.00     0.198 A 
ATOM    134  F   UNL A   1      45.884  33.233  31.210  1.00  0.00    -0.203 F 
ATOM    135  F   UNL A   1      44.733  37.113  27.552  1.00  0.00    -0.200 F 
ATOM    136  C   UNL A   1      45.714  36.471  29.602  1.00  0.00     0.200 A 
ATOM    137  F   UNL A   1      46.692  35.778  31.637  1.00  0.00    -0.200 F 
ATOM    138  F   UNL A   1      46.148  37.722  29.803  1.00  0.00    -0.200 F 
ENDBRANCH 104 128
ENDBRANCH  69  72
ENDBRANCH  59  62
ENDBRANCH  55  58
ENDBRANCH  52  55
ENDBRANCH  49  52
ENDBRANCH   1  49
TORSDOF 17
ENDMDL
MODEL 8
REMARK VINA RESULT:     -12.7      5.033     11.196
REMARK SMILES C[C@@H](C(=O)NCCCCCCNC(=O)c1ccc(-c2c3nc(c(-c4c(F)c(F)c(F)c(F)c4F)c4ccc([nH]4)c(-c4c(F)c(F)c(F)c(F)c4F)c4nc(c(-c5c(F)c(F)c(F)c(F)c5F)c5ccc2[nH]5)C=C4)C=C3)cc1)c1ccc2c3cc(Cl)ccc3n(C(=O)c3cocn3)c2c1
REMARK SMILES IDX 8 1 7 4 6 7 5 10 3 11 4 12 2 14 1 16 78 20 79 21 98 22 80 23
REMARK SMILES IDX 97 25 81 27 89 29 82 30 88 31 83 32 87 33 84 34 86 36 85 38
REMARK SMILES IDX 90 40 91 41 92 42 93 43 96 44 94 45 95 47 9 49 10 52 11 55
REMARK SMILES IDX 12 58 13 59 14 61 15 62 16 63 77 64 17 65 76 67 18 69 19 72
REMARK SMILES IDX 20 73 70 74 21 75 75 76 69 77 71 78 22 79 74 80 68 82 67 84
REMARK SMILES IDX 23 86 55 89 35 90 54 91 36 92 39 93 53 94 72 95 37 96 38 98
REMARK SMILES IDX 52 100 73 101 40 104 24 106 25 107 33 108 26 109 27 110
REMARK SMILES IDX 31 111 34 112 28 113 29 114 32 115 30 116 56 117 57 118
REMARK SMILES IDX 65 119 58 120 59 121 63 122 66 123 60 124 61 125 64 126
REMARK SMILES IDX 62 127 41 128 42 129 50 130 43 131 44 132 48 133 51 134
REMARK SMILES IDX 45 135 46 136 49 137 47 138
REMARK H PARENT 8 2 8 3 7 5 7 6 6 8 6 9 5 13 2 15 1 17 1 18 1 19 79 24 98 26
REMARK H PARENT 80 28 83 35 87 37 86 39 93 46 95 48 9 50 9 51 10 53 10 54
REMARK H PARENT 11 56 11 57 12 60 16 66 77 68 17 70 76 71 75 81 69 83 71 85
REMARK H PARENT 74 87 68 88 36 97 39 99 72 102 37 103 73 105
REMARK Flexibility Score: inf
ROOT
ATOM      1  C   UNL A   1      37.191  21.838  24.883  1.00  0.00    -0.052 C 
ATOM      2  H   UNL A   1      37.699  22.011  25.808  1.00  0.00     0.027 H 
ATOM      3  H   UNL A   1      37.786  22.070  24.024  1.00  0.00     0.027 H 
ENDROOT
BRANCH   1   4
ATOM      4  C   UNL A   1      35.973  22.771  24.827  1.00  0.00    -0.036 C 
ATOM      5  H   UNL A   1      35.674  22.997  25.829  1.00  0.00     0.028 H 
ATOM      6  H   UNL A   1      36.272  23.642  24.281  1.00  0.00     0.028 H 
BRANCH   4   7
ATOM      7  C   UNL A   1      34.771  22.178  24.089  1.00  0.00     0.017 C 
ATOM      8  H   UNL A   1      35.001  21.179  23.785  1.00  0.00     0.049 H 
ATOM      9  H   UNL A   1      33.926  22.176  24.746  1.00  0.00     0.049 H 
BRANCH   7  10
ATOM     10  N   UNL A   1      34.459  22.971  22.924  1.00  0.00    -0.356 N 
ATOM     11  C   UNL A   1      33.343  23.693  22.633  1.00  0.00     0.227 C 
ATOM     12  O   UNL A   1      33.290  24.175  21.500  1.00  0.00    -0.274 OA
ATOM     13  H   UNL A   1      35.162  22.994  22.235  1.00  0.00     0.163 HD
BRANCH  11  14
ATOM     14  C   UNL A   1      32.265  23.915  23.714  1.00  0.00     0.060 C 
ATOM     15  H   UNL A   1      32.407  23.123  24.419  1.00  0.00     0.045 H 
BRANCH  14  16
ATOM     16  C   UNL A   1      30.830  23.815  23.179  1.00  0.00    -0.049 C 
ATOM     17  H   UNL A   1      30.603  24.689  22.604  1.00  0.00     0.024 H 
ATOM     18  H   UNL A   1      30.148  23.740  23.999  1.00  0.00     0.024 H 
ATOM     19  H   UNL A   1      30.741  22.947  22.559  1.00  0.00     0.024 H 
ENDBRANCH  14  16
BRANCH  14  20
ATOM     20  C   UNL A   1      32.442  25.267  24.395  1.00  0.00    -0.034 A 
ATOM     21  C   UNL A   1      33.431  25.473  25.356  1.00  0.00    -0.057 A 
ATOM     22  C   UNL A   1      31.587  26.323  24.043  1.00  0.00    -0.033 A 
ATOM     23  C   UNL A   1      33.599  26.732  25.941  1.00  0.00    -0.052 A 
ATOM     24  H   UNL A   1      34.044  24.691  25.635  1.00  0.00     0.063 H 
ATOM     25  C   UNL A   1      31.719  27.567  24.677  1.00  0.00     0.058 A 
ATOM     26  H   UNL A   1      30.864  26.185  23.320  1.00  0.00     0.065 H 
ATOM     27  C   UNL A   1      32.741  27.798  25.587  1.00  0.00     0.008 A 
ATOM     28  H   UNL A   1      34.351  26.884  26.633  1.00  0.00     0.063 H 
ATOM     29  N   UNL A   1      30.963  28.734  24.531  1.00  0.00    -0.274 N 
ATOM     30  C   UNL A   1      32.649  29.160  25.978  1.00  0.00     0.009 A 
ATOM     31  C   UNL A   1      31.513  29.715  25.368  1.00  0.00     0.057 A 
ATOM     32  C   UNL A   1      33.428  29.947  26.854  1.00  0.00    -0.033 A 
ATOM     33  C   UNL A   1      31.078  31.008  25.717  1.00  0.00    -0.036 A 
ATOM     34  C   UNL A   1      33.020  31.243  27.154  1.00  0.00     0.041 A 
ATOM     35  H   UNL A   1      34.292  29.564  27.269  1.00  0.00     0.065 H 
ATOM     36  C   UNL A   1      31.851  31.760  26.611  1.00  0.00    -0.041 A 
ATOM     37  H   UNL A   1      30.206  31.393  25.321  1.00  0.00     0.065 H 
ATOM     38  Cl  UNL A   1      33.956  32.193  28.242  1.00  0.00    -0.084 Cl
ATOM     39  H   UNL A   1      31.547  32.712  26.870  1.00  0.00     0.064 H 
BRANCH  29  40
ATOM     40  C   UNL A   1      29.798  28.814  23.723  1.00  0.00     0.284 C 
ATOM     41  O   UNL A   1      29.151  27.767  23.618  1.00  0.00    -0.266 OA
BRANCH  40  42
ATOM     42  C   UNL A   1      29.345  29.999  23.001  1.00  0.00     0.167 A 
ATOM     43  C   UNL A   1      29.602  30.391  21.703  1.00  0.00     0.124 A 
ATOM     44  N   UNL A   1      28.419  30.882  23.546  1.00  0.00    -0.211 NA
ATOM     45  O   UNL A   1      28.863  31.508  21.434  1.00  0.00    -0.451 OA
ATOM     46  H   UNL A   1      30.245  29.920  21.048  1.00  0.00     0.107 H 
ATOM     47  C   UNL A   1      28.167  31.729  22.579  1.00  0.00     0.181 A 
ATOM     48  H   UNL A   1      27.493  32.505  22.681  1.00  0.00     0.127 H 
ENDBRANCH  40  42
ENDBRANCH  29  40
ENDBRANCH  14  20
ENDBRANCH  11  14
ENDBRANCH   7  10
ENDBRANCH   4   7
ENDBRANCH   1   4
BRANCH   1  49
ATOM     49  C   UNL A   1      36.864  20.345  24.790  1.00  0.00    -0.052 C 
ATOM     50  H   UNL A   1      36.444  20.155  23.825  1.00  0.00     0.027 H 
ATOM     51  H   UNL A   1      36.189  20.134  25.593  1.00  0.00     0.027 H 
BRANCH  49  52
ATOM     52  C   UNL A   1      38.064  19.415  24.978  1.00  0.00    -0.036 C 
ATOM     53  H   UNL A   1      38.442  19.155  24.012  1.00  0.00     0.028 H 
ATOM     54  H   UNL A   1      37.713  18.567  25.529  1.00  0.00     0.028 H 
BRANCH  52  55
ATOM     55  C   UNL A   1      39.201  20.021  25.789  1.00  0.00     0.018 C 
ATOM     56  H   UNL A   1      38.839  20.261  26.767  1.00  0.00     0.049 H 
ATOM     57  H   UNL A   1      39.543  20.897  25.278  1.00  0.00     0.049 H 
BRANCH  55  58
ATOM     58  N   UNL A   1      40.322  19.107  25.914  1.00  0.00    -0.352 N 
ATOM     59  C   UNL A   1      41.654  19.391  26.077  1.00  0.00     0.251 C 
ATOM     60  H   UNL A   1      40.094  18.151  25.878  1.00  0.00     0.163 HD
ATOM     61  O   UNL A   1      42.493  18.508  25.959  1.00  0.00    -0.269 OA
BRANCH  59  62
ATOM     62  C   UNL A   1      42.077  20.775  26.387  1.00  0.00     0.039 A 
ATOM     63  C   UNL A   1      42.291  21.128  27.720  1.00  0.00    -0.049 A 
ATOM     64  C   UNL A   1      42.228  21.726  25.374  1.00  0.00    -0.049 A 
ATOM     65  C   UNL A   1      42.675  22.433  28.036  1.00  0.00    -0.053 A 
ATOM     66  H   UNL A   1      42.165  20.429  28.469  1.00  0.00     0.063 H 
ATOM     67  C   UNL A   1      42.691  23.001  25.681  1.00  0.00    -0.053 A 
ATOM     68  H   UNL A   1      41.995  21.483  24.398  1.00  0.00     0.063 H 
ATOM     69  C   UNL A   1      42.889  23.376  27.018  1.00  0.00    -0.014 A 
ATOM     70  H   UNL A   1      42.802  22.706  29.023  1.00  0.00     0.063 H 
ATOM     71  H   UNL A   1      42.890  23.673  24.923  1.00  0.00     0.063 H 
BRANCH  69  72
ATOM     72  C   UNL A   1      43.259  24.776  27.342  1.00  0.00     0.031 A 
ATOM     73  C   UNL A   1      44.659  25.260  27.076  1.00  0.00     0.074 A 
ATOM     74  C   UNL A   1      42.354  25.598  27.905  1.00  0.00     0.049 A 
ATOM     75  N   UNL A   1      45.191  26.433  27.309  1.00  0.00    -0.248 NA
ATOM     76  C   UNL A   1      45.598  24.284  26.496  1.00  0.00    -0.034 C 
ATOM     77  C   UNL A   1      40.981  25.231  28.253  1.00  0.00    -0.036 A 
ATOM     78  N   UNL A   1      42.455  26.913  28.285  1.00  0.00    -0.354 N 
ATOM     79  C   UNL A   1      46.522  26.328  26.926  1.00  0.00     0.074 A 
ATOM     80  C   UNL A   1      46.735  24.963  26.503  1.00  0.00    -0.034 C 
ATOM     81  H   UNL A   1      45.417  23.323  26.171  1.00  0.00     0.065 H 
ATOM     82  C   UNL A   1      40.357  26.305  28.763  1.00  0.00    -0.036 A 
ATOM     83  H   UNL A   1      40.559  24.298  28.125  1.00  0.00     0.065 H 
ATOM     84  C   UNL A   1      41.294  27.424  28.810  1.00  0.00     0.049 A 
ATOM     85  H   UNL A   1      43.281  27.439  28.191  1.00  0.00     0.167 HD
ATOM     86  C   UNL A   1      47.475  27.291  26.904  1.00  0.00     0.037 A 
ATOM     87  H   UNL A   1      47.652  24.569  26.240  1.00  0.00     0.065 H 
ATOM     88  H   UNL A   1      39.372  26.335  29.073  1.00  0.00     0.065 H 
ATOM     89  C   UNL A   1      41.019  28.658  29.270  1.00  0.00     0.037 A 
ATOM     90  C   UNL A   1      47.248  28.658  27.293  1.00  0.00     0.049 A 
ATOM     91  C   UNL A   1      42.092  29.714  29.224  1.00  0.00     0.074 A 
ATOM     92  C   UNL A   1      48.126  29.726  27.246  1.00  0.00    -0.036 A 
ATOM     93  N   UNL A   1      46.051  29.144  27.800  1.00  0.00    -0.354 N 
ATOM     94  N   UNL A   1      43.326  29.624  28.790  1.00  0.00    -0.248 NA
ATOM     95  C   UNL A   1      41.728  31.048  29.719  1.00  0.00    -0.034 C 
ATOM     96  C   UNL A   1      47.475  30.848  27.772  1.00  0.00    -0.036 A 
ATOM     97  H   UNL A   1      49.092  29.700  26.886  1.00  0.00     0.065 H 
ATOM     98  C   UNL A   1      46.174  30.493  28.089  1.00  0.00     0.049 A 
ATOM     99  H   UNL A   1      45.235  28.609  27.933  1.00  0.00     0.167 HD
ATOM    100  C   UNL A   1      43.871  30.894  28.920  1.00  0.00     0.074 A 
ATOM    101  C   UNL A   1      42.829  31.740  29.465  1.00  0.00    -0.034 C 
ATOM    102  H   UNL A   1      40.845  31.363  30.151  1.00  0.00     0.065 H 
ATOM    103  H   UNL A   1      47.895  31.782  27.902  1.00  0.00     0.065 H 
ATOM    104  C   UNL A   1      45.119  31.324  28.613  1.00  0.00     0.037 A 
ATOM    105  H   UNL A   1      42.931  32.752  29.635  1.00  0.00     0.065 H 
BRANCH  86 106
ATOM    106  C   UNL A   1      48.851  26.896  26.447  1.00  0.00     0.064 A 
ATOM    107  C   UNL A   1      49.800  26.360  27.331  1.00  0.00     0.173 A 
ATOM    108  C   UNL A   1      49.217  27.033  25.099  1.00  0.00     0.173 A 
ATOM    109  F   UNL A   1      49.506  26.218  28.633  1.00  0.00    -0.203 F 
ATOM    110  C   UNL A   1      51.074  26.010  26.891  1.00  0.00     0.198 A 
ATOM    111  C   UNL A   1      50.481  26.649  24.656  1.00  0.00     0.198 A 
ATOM    112  F   UNL A   1      48.348  27.534  24.209  1.00  0.00    -0.203 F 
ATOM    113  F   UNL A   1      51.982  25.555  27.766  1.00  0.00    -0.200 F 
ATOM    114  C   UNL A   1      51.411  26.148  25.554  1.00  0.00     0.200 A 
ATOM    115  F   UNL A   1      50.800  26.769  23.360  1.00  0.00    -0.200 F 
ATOM    116  F   UNL A   1      52.635  25.805  25.131  1.00  0.00    -0.200 F 
ENDBRANCH  86 106
BRANCH  89 117
ATOM    117  C   UNL A   1      39.657  28.981  29.772  1.00  0.00     0.064 A 
ATOM    118  C   UNL A   1      39.331  28.810  31.125  1.00  0.00     0.173 A 
ATOM    119  C   UNL A   1      38.654  29.455  28.914  1.00  0.00     0.173 A 
ATOM    120  F   UNL A   1      40.251  28.342  31.980  1.00  0.00    -0.203 F 
ATOM    121  C   UNL A   1      38.047  29.073  31.595  1.00  0.00     0.198 A 
ATOM    122  C   UNL A   1      37.378  29.747  29.392  1.00  0.00     0.198 A 
ATOM    123  F   UNL A   1      38.916  29.643  27.612  1.00  0.00    -0.203 F 
ATOM    124  F   UNL A   1      37.749  28.851  32.883  1.00  0.00    -0.200 F 
ATOM    125  C   UNL A   1      37.072  29.546  30.729  1.00  0.00     0.200 A 
ATOM    126  F   UNL A   1      36.444  30.218  28.555  1.00  0.00    -0.200 F 
ATOM    127  F   UNL A   1      35.837  29.801  31.182  1.00  0.00    -0.200 F 
ENDBRANCH  89 117
BRANCH 104 128
ATOM    128  C   UNL A   1      45.411  32.785  28.801  1.00  0.00     0.064 A 
ATOM    129  C   UNL A   1      45.154  33.729  27.794  1.00  0.00     0.173 A 
ATOM    130  C   UNL A   1      45.929  33.250  30.020  1.00  0.00     0.173 A 
ATOM    131  F   UNL A   1      44.673  33.334  26.607  1.00  0.00    -0.203 F 
ATOM    132  C   UNL A   1      45.438  35.078  27.990  1.00  0.00     0.198 A 
ATOM    133  C   UNL A   1      46.178  34.604  30.224  1.00  0.00     0.198 A 
ATOM    134  F   UNL A   1      46.184  32.392  31.018  1.00  0.00    -0.203 F 
ATOM    135  F   UNL A   1      45.240  35.953  26.994  1.00  0.00    -0.200 F 
ATOM    136  C   UNL A   1      45.943  35.515  29.206  1.00  0.00     0.200 A 
ATOM    137  F   UNL A   1      46.651  35.026  31.405  1.00  0.00    -0.200 F 
ATOM    138  F   UNL A   1      46.211  36.815  29.394  1.00  0.00    -0.200 F 
ENDBRANCH 104 128
ENDBRANCH  69  72
ENDBRANCH  59  62
ENDBRANCH  55  58
ENDBRANCH  52  55
ENDBRANCH  49  52
ENDBRANCH   1  49
TORSDOF 17
ENDMDL
MODEL 9
REMARK VINA RESULT:     -12.6      4.873      9.507
REMARK SMILES C[C@@H](C(=O)NCCCCCCNC(=O)c1ccc(-c2c3nc(c(-c4c(F)c(F)c(F)c(F)c4F)c4ccc([nH]4)c(-c4c(F)c(F)c(F)c(F)c4F)c4nc(c(-c5c(F)c(F)c(F)c(F)c5F)c5ccc2[nH]5)C=C4)C=C3)cc1)c1ccc2c3cc(Cl)ccc3n(C(=O)c3cocn3)c2c1
REMARK SMILES IDX 8 1 7 4 6 7 5 10 3 11 4 12 2 14 1 16 78 20 79 21 98 22 80 23
REMARK SMILES IDX 97 25 81 27 89 29 82 30 88 31 83 32 87 33 84 34 86 36 85 38
REMARK SMILES IDX 90 40 91 41 92 42 93 43 96 44 94 45 95 47 9 49 10 52 11 55
REMARK SMILES IDX 12 58 13 59 14 61 15 62 16 63 77 64 17 65 76 67 18 69 19 72
REMARK SMILES IDX 20 73 70 74 21 75 75 76 69 77 71 78 22 79 74 80 68 82 67 84
REMARK SMILES IDX 23 86 55 89 35 90 54 91 36 92 39 93 53 94 72 95 37 96 38 98
REMARK SMILES IDX 52 100 73 101 40 104 24 106 25 107 33 108 26 109 27 110
REMARK SMILES IDX 31 111 34 112 28 113 29 114 32 115 30 116 56 117 57 118
REMARK SMILES IDX 65 119 58 120 59 121 63 122 66 123 60 124 61 125 64 126
REMARK SMILES IDX 62 127 41 128 42 129 50 130 43 131 44 132 48 133 51 134
REMARK SMILES IDX 45 135 46 136 49 137 47 138
REMARK H PARENT 8 2 8 3 7 5 7 6 6 8 6 9 5 13 2 15 1 17 1 18 1 19 79 24 98 26
REMARK H PARENT 80 28 83 35 87 37 86 39 93 46 95 48 9 50 9 51 10 53 10 54
REMARK H PARENT 11 56 11 57 12 60 16 66 77 68 17 70 76 71 75 81 69 83 71 85
REMARK H PARENT 74 87 68 88 36 97 39 99 72 102 37 103 73 105
REMARK Flexibility Score: inf
ROOT
ATOM      1  C   UNL A   1      37.310  33.024  29.804  1.00  0.00    -0.052 C 
ATOM      2  H   UNL A   1      36.405  32.760  30.311  1.00  0.00     0.027 H 
ATOM      3  H   UNL A   1      37.999  32.210  29.716  1.00  0.00     0.027 H 
ENDROOT
BRANCH   1   4
ATOM      4  C   UNL A   1      38.023  34.102  30.633  1.00  0.00    -0.036 C 
ATOM      5  H   UNL A   1      38.954  33.702  30.978  1.00  0.00     0.028 H 
ATOM      6  H   UNL A   1      38.152  34.951  29.995  1.00  0.00     0.028 H 
BRANCH   4   7
ATOM      7  C   UNL A   1      37.225  34.579  31.848  1.00  0.00     0.017 C 
ATOM      8  H   UNL A   1      37.396  33.912  32.666  1.00  0.00     0.049 H 
ATOM      9  H   UNL A   1      37.544  35.567  32.108  1.00  0.00     0.049 H 
BRANCH   7  10
ATOM     10  N   UNL A   1      35.815  34.605  31.541  1.00  0.00    -0.356 N 
ATOM     11  C   UNL A   1      34.762  34.085  32.227  1.00  0.00     0.227 C 
ATOM     12  O   UNL A   1      33.667  34.143  31.665  1.00  0.00    -0.274 OA
ATOM     13  H   UNL A   1      35.579  35.072  30.707  1.00  0.00     0.163 HD
BRANCH  11  14
ATOM     14  C   UNL A   1      34.971  33.521  33.648  1.00  0.00     0.060 C 
ATOM     15  H   UNL A   1      34.071  32.987  33.873  1.00  0.00     0.045 H 
BRANCH  14  16
ATOM     16  C   UNL A   1      35.151  34.607  34.717  1.00  0.00    -0.049 C 
ATOM     17  H   UNL A   1      35.945  35.263  34.428  1.00  0.00     0.024 H 
ATOM     18  H   UNL A   1      35.390  34.149  35.654  1.00  0.00     0.024 H 
ATOM     19  H   UNL A   1      34.244  35.166  34.815  1.00  0.00     0.024 H 
ENDBRANCH  14  16
BRANCH  14  20
ATOM     20  C   UNL A   1      36.169  32.582  33.695  1.00  0.00    -0.034 A 
ATOM     21  C   UNL A   1      36.288  31.510  32.811  1.00  0.00    -0.057 A 
ATOM     22  C   UNL A   1      37.172  32.805  34.651  1.00  0.00    -0.033 A 
ATOM     23  C   UNL A   1      37.415  30.682  32.848  1.00  0.00    -0.052 A 
ATOM     24  H   UNL A   1      35.539  31.328  32.124  1.00  0.00     0.063 H 
ATOM     25  C   UNL A   1      38.270  31.936  34.725  1.00  0.00     0.058 A 
ATOM     26  H   UNL A   1      37.102  33.607  35.297  1.00  0.00     0.065 H 
ATOM     27  C   UNL A   1      38.426  30.906  33.809  1.00  0.00     0.008 A 
ATOM     28  H   UNL A   1      37.507  29.906  32.173  1.00  0.00     0.063 H 
ATOM     29  N   UNL A   1      39.351  31.927  35.613  1.00  0.00    -0.274 N 
ATOM     30  C   UNL A   1      39.663  30.272  34.102  1.00  0.00     0.009 A 
ATOM     31  C   UNL A   1      40.199  30.870  35.254  1.00  0.00     0.057 A 
ATOM     32  C   UNL A   1      40.341  29.193  33.495  1.00  0.00    -0.033 A 
ATOM     33  C   UNL A   1      41.338  30.325  35.875  1.00  0.00    -0.036 A 
ATOM     34  C   UNL A   1      41.496  28.692  34.086  1.00  0.00     0.041 A 
ATOM     35  H   UNL A   1      39.981  28.779  32.620  1.00  0.00     0.065 H 
ATOM     36  C   UNL A   1      41.977  29.234  35.270  1.00  0.00    -0.041 A 
ATOM     37  H   UNL A   1      41.695  30.720  36.759  1.00  0.00     0.065 H 
ATOM     38  Cl  UNL A   1      42.307  27.359  33.359  1.00  0.00    -0.084 Cl
ATOM     39  H   UNL A   1      42.818  28.828  35.711  1.00  0.00     0.064 H 
BRANCH  29  40
ATOM     40  C   UNL A   1      39.460  32.812  36.719  1.00  0.00     0.284 C 
ATOM     41  O   UNL A   1      39.296  32.297  37.829  1.00  0.00    -0.266 OA
BRANCH  40  42
ATOM     42  C   UNL A   1      39.707  34.248  36.636  1.00  0.00     0.167 A 
ATOM     43  C   UNL A   1      39.563  35.224  37.600  1.00  0.00     0.124 A 
ATOM     44  N   UNL A   1      40.288  34.829  35.513  1.00  0.00    -0.211 NA
ATOM     45  O   UNL A   1      40.031  36.403  37.096  1.00  0.00    -0.451 OA
ATOM     46  H   UNL A   1      39.168  35.085  38.543  1.00  0.00     0.107 H 
ATOM     47  C   UNL A   1      40.465  36.082  35.849  1.00  0.00     0.181 A 
ATOM     48  H   UNL A   1      40.899  36.773  35.215  1.00  0.00     0.127 H 
ENDBRANCH  40  42
ENDBRANCH  29  40
ENDBRANCH  14  20
ENDBRANCH  11  14
ENDBRANCH   7  10
ENDBRANCH   4   7
ENDBRANCH   1   4
BRANCH   1  49
ATOM     49  C   UNL A   1      36.951  33.443  28.376  1.00  0.00    -0.052 C 
ATOM     50  H   UNL A   1      37.544  32.864  27.700  1.00  0.00     0.027 H 
ATOM     51  H   UNL A   1      37.144  34.493  28.312  1.00  0.00     0.027 H 
BRANCH  49  52
ATOM     52  C   UNL A   1      35.480  33.250  28.004  1.00  0.00    -0.036 C 
ATOM     53  H   UNL A   1      35.435  32.744  27.063  1.00  0.00     0.028 H 
ATOM     54  H   UNL A   1      35.040  34.226  27.972  1.00  0.00     0.028 H 
BRANCH  52  55
ATOM     55  C   UNL A   1      34.680  32.445  29.018  1.00  0.00     0.018 C 
ATOM     56  H   UNL A   1      33.935  33.079  29.453  1.00  0.00     0.049 H 
ATOM     57  H   UNL A   1      35.358  32.082  29.762  1.00  0.00     0.049 H 
BRANCH  55  58
ATOM     58  N   UNL A   1      34.028  31.301  28.408  1.00  0.00    -0.352 N 
ATOM     59  C   UNL A   1      34.583  30.138  27.939  1.00  0.00     0.251 C 
ATOM     60  H   UNL A   1      33.050  31.371  28.318  1.00  0.00     0.163 HD
ATOM     61  O   UNL A   1      33.917  29.363  27.266  1.00  0.00    -0.269 OA
BRANCH  59  62
ATOM     62  C   UNL A   1      35.997  29.826  28.241  1.00  0.00     0.039 A 
ATOM     63  C   UNL A   1      36.953  30.007  27.240  1.00  0.00    -0.049 A 
ATOM     64  C   UNL A   1      36.375  29.327  29.492  1.00  0.00    -0.049 A 
ATOM     65  C   UNL A   1      38.291  29.704  27.499  1.00  0.00    -0.053 A 
ATOM     66  H   UNL A   1      36.672  30.361  26.312  1.00  0.00     0.063 H 
ATOM     67  C   UNL A   1      37.717  29.105  29.775  1.00  0.00    -0.053 A 
ATOM     68  H   UNL A   1      35.656  29.122  30.204  1.00  0.00     0.063 H 
ATOM     69  C   UNL A   1      38.685  29.261  28.772  1.00  0.00    -0.014 A 
ATOM     70  H   UNL A   1      38.994  29.805  26.750  1.00  0.00     0.063 H 
ATOM     71  H   UNL A   1      38.003  28.824  30.726  1.00  0.00     0.063 H 
BRANCH  69  72
ATOM     72  C   UNL A   1      40.097  28.898  29.049  1.00  0.00     0.031 A 
ATOM     73  C   UNL A   1      40.974  29.845  29.824  1.00  0.00     0.074 A 
ATOM     74  C   UNL A   1      40.599  27.743  28.576  1.00  0.00     0.049 A 
ATOM     75  N   UNL A   1      42.236  29.729  30.150  1.00  0.00    -0.248 NA
ATOM     76  C   UNL A   1      40.356  31.105  30.269  1.00  0.00    -0.034 C 
ATOM     77  C   UNL A   1      39.862  26.766  27.774  1.00  0.00    -0.036 A 
ATOM     78  N   UNL A   1      41.851  27.194  28.703  1.00  0.00    -0.354 N 
ATOM     79  C   UNL A   1      42.565  30.904  30.814  1.00  0.00     0.074 A 
ATOM     80  C   UNL A   1      41.390  31.745  30.794  1.00  0.00    -0.034 C 
ATOM     81  H   UNL A   1      39.374  31.411  30.191  1.00  0.00     0.065 H 
ATOM     82  C   UNL A   1      40.665  25.722  27.509  1.00  0.00    -0.036 A 
ATOM     83  H   UNL A   1      38.883  26.863  27.463  1.00  0.00     0.065 H 
ATOM     84  C   UNL A   1      41.980  25.971  28.092  1.00  0.00     0.049 A 
ATOM     85  H   UNL A   1      42.587  27.636  29.185  1.00  0.00     0.167 HD
ATOM     86  C   UNL A   1      43.733  31.240  31.411  1.00  0.00     0.037 A 
ATOM     87  H   UNL A   1      41.360  32.716  31.142  1.00  0.00     0.065 H 
ATOM     88  H   UNL A   1      40.395  24.879  26.977  1.00  0.00     0.065 H 
ATOM     89  C   UNL A   1      43.039  25.144  28.019  1.00  0.00     0.037 A 
ATOM     90  C   UNL A   1      44.889  30.383  31.460  1.00  0.00     0.049 A 
ATOM     91  C   UNL A   1      44.323  25.536  28.701  1.00  0.00     0.074 A 
ATOM     92  C   UNL A   1      46.098  30.600  32.096  1.00  0.00    -0.036 A 
ATOM     93  N   UNL A   1      44.974  29.141  30.848  1.00  0.00    -0.354 N 
ATOM     94  N   UNL A   1      44.600  26.617  29.391  1.00  0.00    -0.248 NA
ATOM     95  C   UNL A   1      45.438  24.585  28.606  1.00  0.00    -0.034 C 
ATOM     96  C   UNL A   1      46.934  29.511  31.826  1.00  0.00    -0.036 A 
ATOM     97  H   UNL A   1      46.342  31.422  32.668  1.00  0.00     0.065 H 
ATOM     98  C   UNL A   1      46.224  28.588  31.074  1.00  0.00     0.049 A 
ATOM     99  H   UNL A   1      44.253  28.715  30.331  1.00  0.00     0.167 HD
ATOM    100  C   UNL A   1      45.902  26.457  29.845  1.00  0.00     0.074 A 
ATOM    101  C   UNL A   1      46.357  25.170  29.361  1.00  0.00    -0.034 C 
ATOM    102  H   UNL A   1      45.492  23.694  28.087  1.00  0.00     0.065 H 
ATOM    103  H   UNL A   1      47.914  29.412  32.134  1.00  0.00     0.065 H 
ATOM    104  C   UNL A   1      46.653  27.297  30.599  1.00  0.00     0.037 A 
ATOM    105  H   UNL A   1      47.279  24.760  29.576  1.00  0.00     0.065 H 
BRANCH  86 106
ATOM    106  C   UNL A   1      43.819  32.594  32.057  1.00  0.00     0.064 A 
ATOM    107  C   UNL A   1      44.050  33.759  31.309  1.00  0.00     0.173 A 
ATOM    108  C   UNL A   1      43.642  32.732  33.442  1.00  0.00     0.173 A 
ATOM    109  F   UNL A   1      44.238  33.683  29.982  1.00  0.00    -0.203 F 
ATOM    110  C   UNL A   1      44.137  35.004  31.926  1.00  0.00     0.198 A 
ATOM    111  C   UNL A   1      43.694  33.984  34.052  1.00  0.00     0.198 A 
ATOM    112  F   UNL A   1      43.411  31.653  34.206  1.00  0.00    -0.203 F 
ATOM    113  F   UNL A   1      44.417  36.093  31.197  1.00  0.00    -0.200 F 
ATOM    114  C   UNL A   1      43.952  35.116  33.295  1.00  0.00     0.200 A 
ATOM    115  F   UNL A   1      43.500  34.092  35.374  1.00  0.00    -0.200 F 
ATOM    116  F   UNL A   1      44.030  36.315  33.887  1.00  0.00    -0.200 F 
ENDBRANCH  86 106
BRANCH  89 117
ATOM    117  C   UNL A   1      42.921  23.842  27.313  1.00  0.00     0.064 A 
ATOM    118  C   UNL A   1      42.376  22.722  27.959  1.00  0.00     0.173 A 
ATOM    119  C   UNL A   1      43.358  23.683  25.990  1.00  0.00     0.173 A 
ATOM    120  F   UNL A   1      41.962  22.819  29.229  1.00  0.00    -0.203 F 
ATOM    121  C   UNL A   1      42.298  21.488  27.317  1.00  0.00     0.198 A 
ATOM    122  C   UNL A   1      43.252  22.455  25.339  1.00  0.00     0.198 A 
ATOM    123  F   UNL A   1      43.881  24.724  25.325  1.00  0.00    -0.203 F 
ATOM    124  F   UNL A   1      41.820  20.423  27.976  1.00  0.00    -0.200 F 
ATOM    125  C   UNL A   1      42.731  21.356  26.006  1.00  0.00     0.200 A 
ATOM    126  F   UNL A   1      43.657  22.335  24.068  1.00  0.00    -0.200 F 
ATOM    127  F   UNL A   1      42.654  20.169  25.390  1.00  0.00    -0.200 F 
ENDBRANCH  89 117
BRANCH 104 128
ATOM    128  C   UNL A   1      48.022  26.826  30.999  1.00  0.00     0.064 A 
ATOM    129  C   UNL A   1      49.168  27.162  30.262  1.00  0.00     0.173 A 
ATOM    130  C   UNL A   1      48.190  26.051  32.158  1.00  0.00     0.173 A 
ATOM    131  F   UNL A   1      49.059  27.889  29.141  1.00  0.00    -0.203 F 
ATOM    132  C   UNL A   1      50.426  26.709  30.650  1.00  0.00     0.198 A 
ATOM    133  C   UNL A   1      49.454  25.630  32.561  1.00  0.00     0.198 A 
ATOM    134  F   UNL A   1      47.130  25.709  32.904  1.00  0.00    -0.203 F 
ATOM    135  F   UNL A   1      51.499  26.994  29.898  1.00  0.00    -0.200 F 
ATOM    136  C   UNL A   1      50.569  25.950  31.802  1.00  0.00     0.200 A 
ATOM    137  F   UNL A   1      49.592  24.910  33.683  1.00  0.00    -0.200 F 
ATOM    138  F   UNL A   1      51.782  25.520  32.176  1.00  0.00    -0.200 F 
ENDBRANCH 104 128
ENDBRANCH  69  72
ENDBRANCH  59  62
ENDBRANCH  55  58
ENDBRANCH  52  55
ENDBRANCH  49  52
ENDBRANCH   1  49
TORSDOF 17
ENDMDL
MODEL 10
REMARK VINA RESULT:     -12.4      2.124      3.615
REMARK SMILES C[C@@H](C(=O)NCCCCCCNC(=O)c1ccc(-c2c3nc(c(-c4c(F)c(F)c(F)c(F)c4F)c4ccc([nH]4)c(-c4c(F)c(F)c(F)c(F)c4F)c4nc(c(-c5c(F)c(F)c(F)c(F)c5F)c5ccc2[nH]5)C=C4)C=C3)cc1)c1ccc2c3cc(Cl)ccc3n(C(=O)c3cocn3)c2c1
REMARK SMILES IDX 8 1 7 4 6 7 5 10 3 11 4 12 2 14 1 16 78 20 79 21 98 22 80 23
REMARK SMILES IDX 97 25 81 27 89 29 82 30 88 31 83 32 87 33 84 34 86 36 85 38
REMARK SMILES IDX 90 40 91 41 92 42 93 43 96 44 94 45 95 47 9 49 10 52 11 55
REMARK SMILES IDX 12 58 13 59 14 61 15 62 16 63 77 64 17 65 76 67 18 69 19 72
REMARK SMILES IDX 20 73 70 74 21 75 75 76 69 77 71 78 22 79 74 80 68 82 67 84
REMARK SMILES IDX 23 86 55 89 35 90 54 91 36 92 39 93 53 94 72 95 37 96 38 98
REMARK SMILES IDX 52 100 73 101 40 104 24 106 25 107 33 108 26 109 27 110
REMARK SMILES IDX 31 111 34 112 28 113 29 114 32 115 30 116 56 117 57 118
REMARK SMILES IDX 65 119 58 120 59 121 63 122 66 123 60 124 61 125 64 126
REMARK SMILES IDX 62 127 41 128 42 129 50 130 43 131 44 132 48 133 51 134
REMARK SMILES IDX 45 135 46 136 49 137 47 138
REMARK H PARENT 8 2 8 3 7 5 7 6 6 8 6 9 5 13 2 15 1 17 1 18 1 19 79 24 98 26
REMARK H PARENT 80 28 83 35 87 37 86 39 93 46 95 48 9 50 9 51 10 53 10 54
REMARK H PARENT 11 56 11 57 12 60 16 66 77 68 17 70 76 71 75 81 69 83 71 85
REMARK H PARENT 74 87 68 88 36 97 39 99 72 102 37 103 73 105
REMARK Flexibility Score: inf
ROOT
ATOM      1  C   UNL A   1      33.831  32.023  27.922  1.00  0.00    -0.052 C 
ATOM      2  H   UNL A   1      32.832  31.719  28.155  1.00  0.00     0.027 H 
ATOM      3  H   UNL A   1      33.973  32.252  26.886  1.00  0.00     0.027 H 
ENDROOT
BRANCH   1   4
ATOM      4  C   UNL A   1      34.771  30.850  28.235  1.00  0.00    -0.036 C 
ATOM      5  H   UNL A   1      35.780  31.206  28.196  1.00  0.00     0.028 H 
ATOM      6  H   UNL A   1      34.502  30.485  29.204  1.00  0.00     0.028 H 
BRANCH   4   7
ATOM      7  C   UNL A   1      34.640  29.674  27.266  1.00  0.00     0.017 C 
ATOM      8  H   UNL A   1      34.479  30.047  26.277  1.00  0.00     0.049 H 
ATOM      9  H   UNL A   1      35.539  29.094  27.298  1.00  0.00     0.049 H 
BRANCH   7  10
ATOM     10  N   UNL A   1      33.527  28.836  27.645  1.00  0.00    -0.356 N 
ATOM     11  C   UNL A   1      32.924  27.825  26.963  1.00  0.00     0.227 C 
ATOM     12  O   UNL A   1      31.904  27.360  27.476  1.00  0.00    -0.274 OA
ATOM     13  H   UNL A   1      33.148  29.024  28.533  1.00  0.00     0.163 HD
BRANCH  11  14
ATOM     14  C   UNL A   1      33.554  27.289  25.662  1.00  0.00     0.060 C 
ATOM     15  H   UNL A   1      34.587  27.564  25.716  1.00  0.00     0.045 H 
BRANCH  14  16
ATOM     16  C   UNL A   1      32.967  27.919  24.392  1.00  0.00    -0.049 C 
ATOM     17  H   UNL A   1      33.632  27.751  23.570  1.00  0.00     0.024 H 
ATOM     18  H   UNL A   1      32.842  28.971  24.540  1.00  0.00     0.024 H 
ATOM     19  H   UNL A   1      32.018  27.474  24.179  1.00  0.00     0.024 H 
ENDBRANCH  14  16
BRANCH  14  20
ATOM     20  C   UNL A   1      33.415  25.775  25.568  1.00  0.00    -0.034 A 
ATOM     21  C   UNL A   1      32.216  25.134  25.878  1.00  0.00    -0.057 A 
ATOM     22  C   UNL A   1      34.522  25.013  25.162  1.00  0.00    -0.033 A 
ATOM     23  C   UNL A   1      32.100  23.746  25.750  1.00  0.00    -0.052 A 
ATOM     24  H   UNL A   1      31.409  25.689  26.203  1.00  0.00     0.063 H 
ATOM     25  C   UNL A   1      34.419  23.616  25.094  1.00  0.00     0.058 A 
ATOM     26  H   UNL A   1      35.407  25.480  24.912  1.00  0.00     0.065 H 
ATOM     27  C   UNL A   1      33.212  22.978  25.339  1.00  0.00     0.008 A 
ATOM     28  H   UNL A   1      31.200  23.282  25.957  1.00  0.00     0.063 H 
ATOM     29  N   UNL A   1      35.385  22.659  24.768  1.00  0.00    -0.274 N 
ATOM     30  C   UNL A   1      33.420  21.591  25.110  1.00  0.00     0.009 A 
ATOM     31  C   UNL A   1      34.779  21.396  24.816  1.00  0.00     0.057 A 
ATOM     32  C   UNL A   1      32.554  20.480  25.183  1.00  0.00    -0.033 A 
ATOM     33  C   UNL A   1      35.306  20.094  24.715  1.00  0.00    -0.036 A 
ATOM     34  C   UNL A   1      33.072  19.198  25.031  1.00  0.00     0.041 A 
ATOM     35  H   UNL A   1      31.544  20.617  25.350  1.00  0.00     0.065 H 
ATOM     36  C   UNL A   1      34.431  19.004  24.821  1.00  0.00    -0.041 A 
ATOM     37  H   UNL A   1      36.316  19.946  24.567  1.00  0.00     0.065 H 
ATOM     38  Cl  UNL A   1      32.019  17.842  25.146  1.00  0.00    -0.084 Cl
ATOM     39  H   UNL A   1      34.803  18.045  24.743  1.00  0.00     0.064 H 
BRANCH  29  40
ATOM     40  C   UNL A   1      36.749  22.976  24.529  1.00  0.00     0.284 C 
ATOM     41  O   UNL A   1      36.991  23.489  23.432  1.00  0.00    -0.266 OA
BRANCH  40  42
ATOM     42  C   UNL A   1      37.856  22.711  25.444  1.00  0.00     0.167 A 
ATOM     43  C   UNL A   1      38.537  21.537  25.686  1.00  0.00     0.124 A 
ATOM     44  N   UNL A   1      38.489  23.733  26.144  1.00  0.00    -0.211 NA
ATOM     45  O   UNL A   1      39.573  21.804  26.533  1.00  0.00    -0.451 OA
ATOM     46  H   UNL A   1      38.301  20.612  25.293  1.00  0.00     0.107 H 
ATOM     47  C   UNL A   1      39.490  23.143  26.748  1.00  0.00     0.181 A 
ATOM     48  H   UNL A   1      40.163  23.655  27.341  1.00  0.00     0.127 H 
ENDBRANCH  40  42
ENDBRANCH  29  40
ENDBRANCH  14  20
ENDBRANCH  11  14
ENDBRANCH   7  10
ENDBRANCH   4   7
ENDBRANCH   1   4
BRANCH   1  49
ATOM     49  C   UNL A   1      34.129  33.312  28.694  1.00  0.00    -0.052 C 
ATOM     50  H   UNL A   1      34.992  33.769  28.258  1.00  0.00     0.027 H 
ATOM     51  H   UNL A   1      34.275  33.025  29.714  1.00  0.00     0.027 H 
BRANCH  49  52
ATOM     52  C   UNL A   1      32.994  34.336  28.689  1.00  0.00    -0.036 C 
ATOM     53  H   UNL A   1      32.188  33.946  29.275  1.00  0.00     0.028 H 
ATOM     54  H   UNL A   1      32.725  34.493  27.665  1.00  0.00     0.028 H 
BRANCH  52  55
ATOM     55  C   UNL A   1      33.378  35.696  29.252  1.00  0.00     0.018 C 
ATOM     56  H   UNL A   1      33.228  36.439  28.496  1.00  0.00     0.049 H 
ATOM     57  H   UNL A   1      34.405  35.654  29.552  1.00  0.00     0.049 H 
BRANCH  55  58
ATOM     58  N   UNL A   1      32.585  36.044  30.417  1.00  0.00    -0.352 N 
ATOM     59  C   UNL A   1      32.733  35.634  31.718  1.00  0.00     0.251 C 
ATOM     60  H   UNL A   1      31.836  36.661  30.249  1.00  0.00     0.163 HD
ATOM     61  O   UNL A   1      31.854  35.858  32.539  1.00  0.00    -0.269 OA
BRANCH  59  62
ATOM     62  C   UNL A   1      33.957  34.910  32.124  1.00  0.00     0.039 A 
ATOM     63  C   UNL A   1      35.167  35.605  32.161  1.00  0.00    -0.049 A 
ATOM     64  C   UNL A   1      33.919  33.547  32.432  1.00  0.00    -0.049 A 
ATOM     65  C   UNL A   1      36.337  34.937  32.526  1.00  0.00    -0.053 A 
ATOM     66  H   UNL A   1      35.197  36.608  31.918  1.00  0.00     0.063 H 
ATOM     67  C   UNL A   1      35.068  32.903  32.876  1.00  0.00    -0.053 A 
ATOM     68  H   UNL A   1      33.038  33.019  32.330  1.00  0.00     0.063 H 
ATOM     69  C   UNL A   1      36.295  33.583  32.898  1.00  0.00    -0.014 A 
ATOM     70  H   UNL A   1      37.238  35.440  32.523  1.00  0.00     0.063 H 
ATOM     71  H   UNL A   1      35.019  31.921  33.191  1.00  0.00     0.063 H 
BRANCH  69  72
ATOM     72  C   UNL A   1      37.536  32.850  33.250  1.00  0.00     0.031 A 
ATOM     73  C   UNL A   1      38.233  33.143  34.552  1.00  0.00     0.074 A 
ATOM     74  C   UNL A   1      38.055  31.955  32.390  1.00  0.00     0.049 A 
ATOM     75  N   UNL A   1      39.338  32.634  35.035  1.00  0.00    -0.248 NA
ATOM     76  C   UNL A   1      37.620  34.167  35.415  1.00  0.00    -0.034 C 
ATOM     77  C   UNL A   1      37.497  31.619  31.080  1.00  0.00    -0.036 A 
ATOM     78  N   UNL A   1      39.171  31.162  32.490  1.00  0.00    -0.354 N 
ATOM     79  C   UNL A   1      39.561  33.289  36.239  1.00  0.00     0.074 A 
ATOM     80  C   UNL A   1      38.513  34.273  36.387  1.00  0.00    -0.034 C 
ATOM     81  H   UNL A   1      36.729  34.670  35.293  1.00  0.00     0.065 H 
ATOM     82  C   UNL A   1      38.254  30.665  30.513  1.00  0.00    -0.036 A 
ATOM     83  H   UNL A   1      36.657  32.045  30.659  1.00  0.00     0.065 H 
ATOM     84  C   UNL A   1      39.366  30.347  31.403  1.00  0.00     0.049 A 
ATOM     85  H   UNL A   1      39.774  31.177  33.268  1.00  0.00     0.167 HD
ATOM     86  C   UNL A   1      40.537  33.071  37.153  1.00  0.00     0.037 A 
ATOM     87  H   UNL A   1      38.466  34.966  37.150  1.00  0.00     0.065 H 
ATOM     88  H   UNL A   1      38.077  30.227  29.594  1.00  0.00     0.065 H 
ATOM     89  C   UNL A   1      40.332  29.442  31.158  1.00  0.00     0.037 A 
ATOM     90  C   UNL A   1      41.557  32.065  37.017  1.00  0.00     0.049 A 
ATOM     91  C   UNL A   1      41.399  29.210  32.196  1.00  0.00     0.074 A 
ATOM     92  C   UNL A   1      42.552  31.717  37.914  1.00  0.00    -0.036 A 
ATOM     93  N   UNL A   1      41.710  31.243  35.910  1.00  0.00    -0.354 N 
ATOM     94  N   UNL A   1      41.557  29.781  33.365  1.00  0.00    -0.248 NA
ATOM     95  C   UNL A   1      42.414  28.194  31.883  1.00  0.00    -0.034 C 
ATOM     96  C   UNL A   1      43.338  30.719  37.328  1.00  0.00    -0.036 A 
ATOM     97  H   UNL A   1      42.691  32.124  38.851  1.00  0.00     0.065 H 
ATOM     98  C   UNL A   1      42.796  30.402  36.092  1.00  0.00     0.049 A 
ATOM     99  H   UNL A   1      41.132  31.255  35.113  1.00  0.00     0.167 HD
ATOM    100  C   UNL A   1      42.660  29.168  33.944  1.00  0.00     0.074 A 
ATOM    101  C   UNL A   1      43.126  28.173  33.000  1.00  0.00    -0.034 C 
ATOM    102  H   UNL A   1      42.538  27.643  31.020  1.00  0.00     0.065 H 
ATOM    103  H   UNL A   1      44.179  30.291  37.745  1.00  0.00     0.065 H 
ATOM    104  C   UNL A   1      43.234  29.404  35.149  1.00  0.00     0.037 A 
ATOM    105  H   UNL A   1      43.914  27.530  33.175  1.00  0.00     0.065 H 
BRANCH  86 106
ATOM    106  C   UNL A   1      40.547  33.940  38.379  1.00  0.00     0.064 A 
ATOM    107  C   UNL A   1      41.294  35.126  38.440  1.00  0.00     0.173 A 
ATOM    108  C   UNL A   1      39.779  33.593  39.501  1.00  0.00     0.173 A 
ATOM    109  F   UNL A   1      42.056  35.499  37.400  1.00  0.00    -0.203 F 
ATOM    110  C   UNL A   1      41.300  35.913  39.589  1.00  0.00     0.198 A 
ATOM    111  C   UNL A   1      39.759  34.401  40.636  1.00  0.00     0.198 A 
ATOM    112  F   UNL A   1      39.041  32.473  39.496  1.00  0.00    -0.203 F 
ATOM    113  F   UNL A   1      42.068  37.011  39.643  1.00  0.00    -0.200 F 
ATOM    114  C   UNL A   1      40.528  35.554  40.682  1.00  0.00     0.200 A 
ATOM    115  F   UNL A   1      39.001  34.060  41.686  1.00  0.00    -0.200 F 
ATOM    116  F   UNL A   1      40.530  36.315  41.784  1.00  0.00    -0.200 F 
ENDBRANCH  86 106
BRANCH  89 117
ATOM    117  C   UNL A   1      40.312  28.651  29.900  1.00  0.00     0.064 A 
ATOM    118  C   UNL A   1      39.595  27.448  29.819  1.00  0.00     0.173 A 
ATOM    119  C   UNL A   1      41.013  29.070  28.760  1.00  0.00     0.173 A 
ATOM    120  F   UNL A   1      38.924  26.997  30.888  1.00  0.00    -0.203 F 
ATOM    121  C   UNL A   1      39.602  26.682  28.656  1.00  0.00     0.198 A 
ATOM    122  C   UNL A   1      40.995  28.317  27.587  1.00  0.00     0.198 A 
ATOM    123  F   UNL A   1      41.709  30.216  28.782  1.00  0.00    -0.203 F 
ATOM    124  F   UNL A   1      38.951  25.511  28.624  1.00  0.00    -0.200 F 
ATOM    125  C   UNL A   1      40.299  27.119  27.539  1.00  0.00     0.200 A 
ATOM    126  F   UNL A   1      41.657  28.751  26.506  1.00  0.00    -0.200 F 
ATOM    127  F   UNL A   1      40.305  26.382  26.420  1.00  0.00    -0.200 F 
ENDBRANCH  89 117
BRANCH 104 128
ATOM    128  C   UNL A   1      44.391  28.532  35.545  1.00  0.00     0.064 A 
ATOM    129  C   UNL A   1      44.210  27.334  36.252  1.00  0.00     0.173 A 
ATOM    130  C   UNL A   1      45.699  28.889  35.182  1.00  0.00     0.173 A 
ATOM    131  F   UNL A   1      42.982  26.955  36.634  1.00  0.00    -0.203 F 
ATOM    132  C   UNL A   1      45.299  26.544  36.612  1.00  0.00     0.198 A 
ATOM    133  C   UNL A   1      46.782  28.080  35.513  1.00  0.00     0.198 A 
ATOM    134  F   UNL A   1      45.927  30.019  34.497  1.00  0.00    -0.203 F 
ATOM    135  F   UNL A   1      45.108  25.434  37.338  1.00  0.00    -0.200 F 
ATOM    136  C   UNL A   1      46.583  26.914  36.236  1.00  0.00     0.200 A 
ATOM    137  F   UNL A   1      48.019  28.431  35.135  1.00  0.00    -0.200 F 
ATOM    138  F   UNL A   1      47.629  26.151  36.580  1.00  0.00    -0.200 F 
ENDBRANCH 104 128
ENDBRANCH  69  72
ENDBRANCH  59  62
ENDBRANCH  55  58
ENDBRANCH  52  55
ENDBRANCH  49  52
ENDBRANCH   1  49
TORSDOF 17
ENDMDL
