MODEL 1
REMARK VINA RESULT:     -13.6      0.000      0.000
REMARK SMILES O=C1NC(=O)/C(=C/c2ccc(OCc3cn(-c4ccc(C(=O)NCCCCCCNC(=O)c5ccc(-c6c7nc(c(-c8c(F)c(F)c(F)c(F)c8F)c8ccc([nH]8)c(-c8c(F)c(F)c(F)c(F)c8F)c8nc(c(-c9c(F)c(F)c(F)c(F)c9F)c9ccc6[nH]9)C=C8)C=C7)cc5)cc4)nn3)cc2)S1
REMARK SMILES IDX 25 1 24 4 23 7 21 8 22 9 20 11 17 12 18 13 97 14 19 15 96 17
REMARK SMILES IDX 16 21 14 22 15 23 99 24 98 26 13 27 12 30 11 31 8 32 9 33
REMARK SMILES IDX 101 34 10 35 100 37 7 41 1 42 2 43 3 44 102 45 4 46 6 48
REMARK SMILES IDX 5 49 26 51 27 54 28 57 29 60 30 63 31 64 32 66 33 67 34 68
REMARK SMILES IDX 95 69 35 70 94 72 36 74 37 77 38 78 88 79 39 80 93 81 87 82
REMARK SMILES IDX 89 83 40 84 92 85 86 87 85 89 41 91 73 94 53 95 72 96 54 97
REMARK SMILES IDX 57 98 71 99 90 100 55 101 56 103 70 105 91 106 58 109 42 111
REMARK SMILES IDX 43 112 51 113 44 114 45 115 49 116 52 117 46 118 47 119
REMARK SMILES IDX 50 120 48 121 74 122 75 123 83 124 76 125 77 126 81 127
REMARK SMILES IDX 84 128 78 129 79 130 82 131 80 132 59 133 60 134 68 135
REMARK SMILES IDX 61 136 62 137 66 138 69 139 63 140 64 141 67 142 65 143
REMARK H PARENT 25 2 25 3 24 5 24 6 23 10 18 16 97 18 19 19 96 20 15 25 13 28
REMARK H PARENT 13 29 9 36 101 38 10 39 100 40 3 47 7 50 26 52 26 53 27 55
REMARK H PARENT 27 56 28 58 28 59 29 61 29 62 30 65 34 71 95 73 35 75 94 76
REMARK H PARENT 93 86 87 88 89 90 92 92 86 93 54 102 57 104 90 107 55 108
REMARK H PARENT 91 110
REMARK Flexibility Score: inf
ROOT
ATOM      1  C   UNL A   1      34.407  34.807  32.049  1.00  0.00    -0.036 C 
ATOM      2  H   UNL A   1      34.365  35.507  32.857  1.00  0.00     0.028 H 
ATOM      3  H   UNL A   1      35.344  34.859  31.535  1.00  0.00     0.028 H 
ENDROOT
BRANCH   1   4
ATOM      4  C   UNL A   1      33.306  35.151  31.044  1.00  0.00     0.018 C 
ATOM      5  H   UNL A   1      32.752  34.267  30.805  1.00  0.00     0.049 H 
ATOM      6  H   UNL A   1      32.649  35.879  31.470  1.00  0.00     0.049 H 
BRANCH   4   7
ATOM      7  N   UNL A   1      33.902  35.686  29.838  1.00  0.00    -0.352 N 
ATOM      8  C   UNL A   1      34.192  35.137  28.618  1.00  0.00     0.251 C 
ATOM      9  O   UNL A   1      34.776  35.850  27.802  1.00  0.00    -0.269 OA
ATOM     10  H   UNL A   1      34.149  36.636  29.910  1.00  0.00     0.163 HD
BRANCH   8  11
ATOM     11  C   UNL A   1      33.754  33.773  28.213  1.00  0.00     0.039 A 
ATOM     12  C   UNL A   1      33.225  31.197  27.255  1.00  0.00     0.066 A 
ATOM     13  C   UNL A   1      34.393  31.440  27.987  1.00  0.00    -0.036 A 
ATOM     14  C   UNL A   1      32.283  32.208  27.074  1.00  0.00    -0.036 A 
ATOM     15  C   UNL A   1      34.671  32.733  28.426  1.00  0.00    -0.047 A 
ATOM     16  H   UNL A   1      35.045  30.668  28.197  1.00  0.00     0.065 H 
ATOM     17  C   UNL A   1      32.522  33.468  27.626  1.00  0.00    -0.047 A 
ATOM     18  H   UNL A   1      31.420  32.027  26.539  1.00  0.00     0.065 H 
ATOM     19  H   UNL A   1      35.559  32.927  28.915  1.00  0.00     0.063 H 
ATOM     20  H   UNL A   1      31.779  34.184  27.601  1.00  0.00     0.063 H 
BRANCH  12  21
ATOM     21  N   UNL A   1      32.993  29.912  26.737  1.00  0.00    -0.220 N 
ATOM     22  C   UNL A   1      33.034  27.793  26.228  1.00  0.00     0.120 A 
ATOM     23  C   UNL A   1      33.614  28.727  27.062  1.00  0.00     0.058 A 
ATOM     24  N   UNL A   1      32.078  28.423  25.474  1.00  0.00    -0.131 NA
ATOM     25  H   UNL A   1      34.348  28.572  27.771  1.00  0.00     0.086 H 
ATOM     26  N   UNL A   1      32.034  29.696  25.816  1.00  0.00    -0.062 NA
BRANCH  22  27
ATOM     27  C   UNL A   1      33.206  26.312  26.136  1.00  0.00     0.134 C 
ATOM     28  H   UNL A   1      33.996  26.031  26.802  1.00  0.00     0.078 H 
ATOM     29  H   UNL A   1      32.256  25.891  26.390  1.00  0.00     0.078 H 
BRANCH  27  30
ATOM     30  O   UNL A   1      33.526  25.802  24.829  1.00  0.00    -0.487 OA
BRANCH  30  31
ATOM     31  C   UNL A   1      33.232  24.496  24.546  1.00  0.00     0.119 A 
ATOM     32  C   UNL A   1      32.793  21.896  23.570  1.00  0.00    -0.024 A 
ATOM     33  C   UNL A   1      34.075  22.449  23.540  1.00  0.00    -0.051 A 
ATOM     34  C   UNL A   1      31.760  22.609  24.182  1.00  0.00    -0.051 A 
ATOM     35  C   UNL A   1      34.287  23.749  24.019  1.00  0.00    -0.019 A 
ATOM     36  H   UNL A   1      34.865  21.902  23.165  1.00  0.00     0.063 H 
ATOM     37  C   UNL A   1      31.990  23.884  24.699  1.00  0.00    -0.019 A 
ATOM     38  H   UNL A   1      30.821  22.189  24.253  1.00  0.00     0.063 H 
ATOM     39  H   UNL A   1      35.235  24.158  23.982  1.00  0.00     0.066 H 
ATOM     40  H   UNL A   1      31.235  24.379  25.200  1.00  0.00     0.066 H 
BRANCH  32  41
ATOM     41  C   UNL A   1      32.528  20.576  22.992  1.00  0.00    -0.035 C 
ATOM     42  O   UNL A   1      32.975  16.601  26.061  1.00  0.00    -0.261 OA
ATOM     43  C   UNL A   1      32.818  17.404  25.143  1.00  0.00     0.290 C 
ATOM     44  N   UNL A   1      32.551  17.089  23.857  1.00  0.00    -0.282 N 
ATOM     45  S   UNL A   1      32.903  19.142  25.330  1.00  0.00    -0.022 SA
ATOM     46  C   UNL A   1      32.397  18.109  22.964  1.00  0.00     0.265 C 
ATOM     47  H   UNL A   1      32.472  16.149  23.573  1.00  0.00     0.174 HD
ATOM     48  C   UNL A   1      32.589  19.412  23.654  1.00  0.00     0.083 C 
ATOM     49  O   UNL A   1      32.153  17.965  21.780  1.00  0.00    -0.268 OA
ATOM     50  H   UNL A   1      32.274  20.539  21.992  1.00  0.00     0.064 H 
ENDBRANCH  32  41
ENDBRANCH  30  31
ENDBRANCH  27  30
ENDBRANCH  22  27
ENDBRANCH  12  21
ENDBRANCH   8  11
ENDBRANCH   4   7
ENDBRANCH   1   4
BRANCH   1  51
ATOM     51  C   UNL A   1      34.263  33.390  32.616  1.00  0.00    -0.052 C 
ATOM     52  H   UNL A   1      33.245  33.086  32.497  1.00  0.00     0.027 H 
ATOM     53  H   UNL A   1      34.573  33.443  33.639  1.00  0.00     0.027 H 
BRANCH  51  54
ATOM     54  C   UNL A   1      35.159  32.329  31.950  1.00  0.00    -0.052 C 
ATOM     55  H   UNL A   1      35.580  32.764  31.069  1.00  0.00     0.027 H 
ATOM     56  H   UNL A   1      34.521  31.490  31.764  1.00  0.00     0.027 H 
BRANCH  54  57
ATOM     57  C   UNL A   1      36.315  31.789  32.808  1.00  0.00    -0.036 C 
ATOM     58  H   UNL A   1      36.317  30.721  32.743  1.00  0.00     0.028 H 
ATOM     59  H   UNL A   1      36.155  32.129  33.809  1.00  0.00     0.028 H 
BRANCH  57  60
ATOM     60  C   UNL A   1      37.674  32.302  32.367  1.00  0.00     0.018 C 
ATOM     61  H   UNL A   1      38.356  31.478  32.317  1.00  0.00     0.049 H 
ATOM     62  H   UNL A   1      38.002  33.029  33.081  1.00  0.00     0.049 H 
BRANCH  60  63
ATOM     63  N   UNL A   1      37.615  32.951  31.050  1.00  0.00    -0.352 N 
ATOM     64  C   UNL A   1      38.521  32.924  30.006  1.00  0.00     0.251 C 
ATOM     65  H   UNL A   1      36.805  33.486  30.885  1.00  0.00     0.163 HD
ATOM     66  O   UNL A   1      38.520  33.793  29.142  1.00  0.00    -0.269 OA
BRANCH  64  67
ATOM     67  C   UNL A   1      39.478  31.809  29.935  1.00  0.00     0.039 A 
ATOM     68  C   UNL A   1      40.837  31.932  30.245  1.00  0.00    -0.049 A 
ATOM     69  C   UNL A   1      38.949  30.583  29.571  1.00  0.00    -0.049 A 
ATOM     70  C   UNL A   1      41.634  30.790  30.170  1.00  0.00    -0.053 A 
ATOM     71  H   UNL A   1      41.238  32.841  30.523  1.00  0.00     0.063 H 
ATOM     72  C   UNL A   1      39.633  29.456  29.884  1.00  0.00    -0.053 A 
ATOM     73  H   UNL A   1      38.049  30.529  29.071  1.00  0.00     0.063 H 
ATOM     74  C   UNL A   1      41.006  29.557  29.961  1.00  0.00    -0.014 A 
ATOM     75  H   UNL A   1      42.660  30.854  30.265  1.00  0.00     0.063 H 
ATOM     76  H   UNL A   1      39.148  28.562  30.055  1.00  0.00     0.063 H 
BRANCH  74  77
ATOM     77  C   UNL A   1      41.699  28.290  29.863  1.00  0.00     0.031 A 
ATOM     78  C   UNL A   1      42.302  27.858  31.139  1.00  0.00     0.074 A 
ATOM     79  C   UNL A   1      41.501  27.458  28.814  1.00  0.00     0.049 A 
ATOM     80  N   UNL A   1      43.556  27.819  31.433  1.00  0.00    -0.248 NA
ATOM     81  C   UNL A   1      41.410  27.636  32.290  1.00  0.00    -0.034 C 
ATOM     82  C   UNL A   1      40.604  27.625  27.660  1.00  0.00    -0.036 A 
ATOM     83  N   UNL A   1      41.982  26.199  28.628  1.00  0.00    -0.354 N 
ATOM     84  C   UNL A   1      43.616  27.339  32.735  1.00  0.00     0.074 A 
ATOM     85  C   UNL A   1      42.296  27.505  33.279  1.00  0.00    -0.034 C 
ATOM     86  H   UNL A   1      40.380  27.593  32.322  1.00  0.00     0.065 H 
ATOM     87  C   UNL A   1      40.436  26.436  27.036  1.00  0.00    -0.036 A 
ATOM     88  H   UNL A   1      40.168  28.515  27.371  1.00  0.00     0.065 H 
ATOM     89  C   UNL A   1      41.315  25.461  27.650  1.00  0.00     0.049 A 
ATOM     90  H   UNL A   1      42.740  25.837  29.144  1.00  0.00     0.167 HD
ATOM     91  C   UNL A   1      44.662  26.566  33.140  1.00  0.00     0.037 A 
ATOM     92  H   UNL A   1      42.068  27.523  34.285  1.00  0.00     0.065 H 
ATOM     93  H   UNL A   1      39.790  26.255  26.252  1.00  0.00     0.065 H 
ATOM     94  C   UNL A   1      41.454  24.123  27.450  1.00  0.00     0.037 A 
ATOM     95  C   UNL A   1      45.743  26.636  32.181  1.00  0.00     0.049 A 
ATOM     96  C   UNL A   1      42.730  23.720  28.114  1.00  0.00     0.074 A 
ATOM     97  C   UNL A   1      46.479  27.674  31.638  1.00  0.00    -0.036 A 
ATOM     98  N   UNL A   1      45.903  25.578  31.316  1.00  0.00    -0.354 N 
ATOM     99  N   UNL A   1      43.908  24.112  27.705  1.00  0.00    -0.248 NA
ATOM    100  C   UNL A   1      42.653  23.343  29.521  1.00  0.00    -0.034 C 
ATOM    101  C   UNL A   1      46.588  27.354  30.250  1.00  0.00    -0.036 A 
ATOM    102  H   UNL A   1      46.866  28.496  32.127  1.00  0.00     0.065 H 
ATOM    103  C   UNL A   1      46.017  26.097  30.051  1.00  0.00     0.049 A 
ATOM    104  H   UNL A   1      45.929  24.625  31.560  1.00  0.00     0.167 HD
ATOM    105  C   UNL A   1      44.592  24.446  28.866  1.00  0.00     0.074 A 
ATOM    106  C   UNL A   1      43.785  23.903  29.957  1.00  0.00    -0.034 C 
ATOM    107  H   UNL A   1      41.935  22.802  30.029  1.00  0.00     0.065 H 
ATOM    108  H   UNL A   1      47.014  27.949  29.523  1.00  0.00     0.065 H 
ATOM    109  C   UNL A   1      45.571  25.401  28.867  1.00  0.00     0.037 A 
ATOM    110  H   UNL A   1      44.058  23.947  30.952  1.00  0.00     0.065 H 
BRANCH  91 111
ATOM    111  C   UNL A   1      44.568  25.448  34.154  1.00  0.00     0.064 A 
ATOM    112  C   UNL A   1      45.166  25.639  35.415  1.00  0.00     0.173 A 
ATOM    113  C   UNL A   1      44.191  24.118  33.862  1.00  0.00     0.173 A 
ATOM    114  F   UNL A   1      45.562  26.860  35.806  1.00  0.00    -0.203 F 
ATOM    115  C   UNL A   1      45.462  24.571  36.265  1.00  0.00     0.198 A 
ATOM    116  C   UNL A   1      44.438  23.062  34.736  1.00  0.00     0.198 A 
ATOM    117  F   UNL A   1      43.672  23.753  32.686  1.00  0.00    -0.203 F 
ATOM    118  F   UNL A   1      46.158  24.790  37.388  1.00  0.00    -0.200 F 
ATOM    119  C   UNL A   1      45.108  23.281  35.919  1.00  0.00     0.200 A 
ATOM    120  F   UNL A   1      44.094  21.818  34.376  1.00  0.00    -0.200 F 
ATOM    121  F   UNL A   1      45.449  22.247  36.697  1.00  0.00    -0.200 F 
ENDBRANCH  91 111
BRANCH  94 122
ATOM    122  C   UNL A   1      40.414  23.143  27.042  1.00  0.00     0.064 A 
ATOM    123  C   UNL A   1      39.102  23.547  26.737  1.00  0.00     0.173 A 
ATOM    124  C   UNL A   1      40.753  21.823  26.683  1.00  0.00     0.173 A 
ATOM    125  F   UNL A   1      38.706  24.802  26.995  1.00  0.00    -0.203 F 
ATOM    126  C   UNL A   1      38.195  22.689  26.100  1.00  0.00     0.198 A 
ATOM    127  C   UNL A   1      39.846  20.966  26.054  1.00  0.00     0.198 A 
ATOM    128  F   UNL A   1      42.002  21.366  26.846  1.00  0.00    -0.203 F 
ATOM    129  F   UNL A   1      36.971  23.130  25.775  1.00  0.00    -0.200 F 
ATOM    130  C   UNL A   1      38.572  21.402  25.751  1.00  0.00     0.200 A 
ATOM    131  F   UNL A   1      40.241  19.739  25.686  1.00  0.00    -0.200 F 
ATOM    132  F   UNL A   1      37.725  20.601  25.089  1.00  0.00    -0.200 F 
ENDBRANCH  94 122
BRANCH 109 133
ATOM    133  C   UNL A   1      46.067  25.931  27.549  1.00  0.00     0.064 A 
ATOM    134  C   UNL A   1      45.485  27.007  26.854  1.00  0.00     0.173 A 
ATOM    135  C   UNL A   1      47.285  25.439  27.060  1.00  0.00     0.173 A 
ATOM    136  F   UNL A   1      44.382  27.610  27.312  1.00  0.00    -0.203 F 
ATOM    137  C   UNL A   1      46.073  27.530  25.702  1.00  0.00     0.198 A 
ATOM    138  C   UNL A   1      47.890  25.989  25.933  1.00  0.00     0.198 A 
ATOM    139  F   UNL A   1      47.920  24.454  27.713  1.00  0.00    -0.203 F 
ATOM    140  F   UNL A   1      45.490  28.550  25.054  1.00  0.00    -0.200 F 
ATOM    141  C   UNL A   1      47.280  27.025  25.248  1.00  0.00     0.200 A 
ATOM    142  F   UNL A   1      49.085  25.532  25.533  1.00  0.00    -0.200 F 
ATOM    143  F   UNL A   1      47.868  27.555  24.166  1.00  0.00    -0.200 F 
ENDBRANCH 109 133
ENDBRANCH  74  77
ENDBRANCH  64  67
ENDBRANCH  60  63
ENDBRANCH  57  60
ENDBRANCH  54  57
ENDBRANCH  51  54
ENDBRANCH   1  51
TORSDOF 18
ENDMDL
MODEL 2
REMARK VINA RESULT:     -13.4      2.955      4.782
REMARK SMILES O=C1NC(=O)/C(=C/c2ccc(OCc3cn(-c4ccc(C(=O)NCCCCCCNC(=O)c5ccc(-c6c7nc(c(-c8c(F)c(F)c(F)c(F)c8F)c8ccc([nH]8)c(-c8c(F)c(F)c(F)c(F)c8F)c8nc(c(-c9c(F)c(F)c(F)c(F)c9F)c9ccc6[nH]9)C=C8)C=C7)cc5)cc4)nn3)cc2)S1
REMARK SMILES IDX 25 1 24 4 23 7 21 8 22 9 20 11 17 12 18 13 97 14 19 15 96 17
REMARK SMILES IDX 16 21 14 22 15 23 99 24 98 26 13 27 12 30 11 31 8 32 9 33
REMARK SMILES IDX 101 34 10 35 100 37 7 41 1 42 2 43 3 44 102 45 4 46 6 48
REMARK SMILES IDX 5 49 26 51 27 54 28 57 29 60 30 63 31 64 32 66 33 67 34 68
REMARK SMILES IDX 95 69 35 70 94 72 36 74 37 77 38 78 88 79 39 80 93 81 87 82
REMARK SMILES IDX 89 83 40 84 92 85 86 87 85 89 41 91 73 94 53 95 72 96 54 97
REMARK SMILES IDX 57 98 71 99 90 100 55 101 56 103 70 105 91 106 58 109 42 111
REMARK SMILES IDX 43 112 51 113 44 114 45 115 49 116 52 117 46 118 47 119
REMARK SMILES IDX 50 120 48 121 74 122 75 123 83 124 76 125 77 126 81 127
REMARK SMILES IDX 84 128 78 129 79 130 82 131 80 132 59 133 60 134 68 135
REMARK SMILES IDX 61 136 62 137 66 138 69 139 63 140 64 141 67 142 65 143
REMARK H PARENT 25 2 25 3 24 5 24 6 23 10 18 16 97 18 19 19 96 20 15 25 13 28
REMARK H PARENT 13 29 9 36 101 38 10 39 100 40 3 47 7 50 26 52 26 53 27 55
REMARK H PARENT 27 56 28 58 28 59 29 61 29 62 30 65 34 71 95 73 35 75 94 76
REMARK H PARENT 93 86 87 88 89 90 92 92 86 93 54 102 57 104 90 107 55 108
REMARK H PARENT 91 110
REMARK Flexibility Score: inf
ROOT
ATOM      1  C   UNL A   1      40.481  33.888  36.513  1.00  0.00    -0.036 C 
ATOM      2  H   UNL A   1      41.425  34.244  36.869  1.00  0.00     0.028 H 
ATOM      3  H   UNL A   1      39.749  33.871  37.293  1.00  0.00     0.028 H 
ENDROOT
BRANCH   1   4
ATOM      4  C   UNL A   1      40.657  32.453  36.010  1.00  0.00     0.018 C 
ATOM      5  H   UNL A   1      40.515  32.427  34.950  1.00  0.00     0.049 H 
ATOM      6  H   UNL A   1      41.643  32.111  36.246  1.00  0.00     0.049 H 
BRANCH   4   7
ATOM      7  N   UNL A   1      39.682  31.595  36.648  1.00  0.00    -0.352 N 
ATOM      8  C   UNL A   1      38.411  31.214  36.310  1.00  0.00     0.251 C 
ATOM      9  O   UNL A   1      37.798  30.512  37.113  1.00  0.00    -0.269 OA
ATOM     10  H   UNL A   1      39.996  31.205  37.496  1.00  0.00     0.163 HD
BRANCH   8  11
ATOM     11  C   UNL A   1      37.788  31.531  34.995  1.00  0.00     0.039 A 
ATOM     12  C   UNL A   1      36.309  32.133  32.696  1.00  0.00     0.066 A 
ATOM     13  C   UNL A   1      36.302  33.019  33.779  1.00  0.00    -0.036 A 
ATOM     14  C   UNL A   1      37.115  30.995  32.721  1.00  0.00    -0.036 A 
ATOM     15  C   UNL A   1      37.008  32.695  34.936  1.00  0.00    -0.047 A 
ATOM     16  H   UNL A   1      35.776  33.905  33.722  1.00  0.00     0.065 H 
ATOM     17  C   UNL A   1      37.910  30.749  33.841  1.00  0.00    -0.047 A 
ATOM     18  H   UNL A   1      37.124  30.345  31.920  1.00  0.00     0.065 H 
ATOM     19  H   UNL A   1      36.957  33.318  35.757  1.00  0.00     0.063 H 
ATOM     20  H   UNL A   1      38.597  29.978  33.819  1.00  0.00     0.063 H 
BRANCH  12  21
ATOM     21  N   UNL A   1      35.524  32.420  31.567  1.00  0.00    -0.220 N 
ATOM     22  C   UNL A   1      34.619  32.527  29.587  1.00  0.00     0.120 A 
ATOM     23  C   UNL A   1      35.571  31.845  30.317  1.00  0.00     0.058 A 
ATOM     24  N   UNL A   1      34.017  33.441  30.412  1.00  0.00    -0.131 NA
ATOM     25  H   UNL A   1      36.180  31.075  29.998  1.00  0.00     0.086 H 
ATOM     26  N   UNL A   1      34.544  33.342  31.616  1.00  0.00    -0.062 NA
BRANCH  22  27
ATOM     27  C   UNL A   1      34.122  32.334  28.192  1.00  0.00     0.134 C 
ATOM     28  H   UNL A   1      33.056  32.245  28.232  1.00  0.00     0.078 H 
ATOM     29  H   UNL A   1      34.466  33.183  27.639  1.00  0.00     0.078 H 
BRANCH  27  30
ATOM     30  O   UNL A   1      34.637  31.181  27.501  1.00  0.00    -0.487 OA
BRANCH  30  31
ATOM     31  C   UNL A   1      33.751  30.250  27.030  1.00  0.00     0.119 A 
ATOM     32  C   UNL A   1      32.270  28.175  25.844  1.00  0.00    -0.024 A 
ATOM     33  C   UNL A   1      33.413  27.883  26.592  1.00  0.00    -0.051 A 
ATOM     34  C   UNL A   1      31.819  29.495  25.782  1.00  0.00    -0.051 A 
ATOM     35  C   UNL A   1      34.153  28.921  27.173  1.00  0.00    -0.019 A 
ATOM     36  H   UNL A   1      33.712  26.903  26.715  1.00  0.00     0.063 H 
ATOM     37  C   UNL A   1      32.537  30.518  26.404  1.00  0.00    -0.019 A 
ATOM     38  H   UNL A   1      30.950  29.716  25.273  1.00  0.00     0.063 H 
ATOM     39  H   UNL A   1      35.004  28.699  27.714  1.00  0.00     0.066 H 
ATOM     40  H   UNL A   1      32.165  31.481  26.399  1.00  0.00     0.066 H 
BRANCH  32  41
ATOM     41  C   UNL A   1      31.532  27.117  25.150  1.00  0.00    -0.035 C 
ATOM     42  O   UNL A   1      33.285  25.680  20.646  1.00  0.00    -0.261 OA
ATOM     43  C   UNL A   1      32.682  25.870  21.701  1.00  0.00     0.290 C 
ATOM     44  N   UNL A   1      31.525  25.275  22.065  1.00  0.00    -0.282 N 
ATOM     45  S   UNL A   1      33.217  26.962  22.959  1.00  0.00    -0.022 SA
ATOM     46  C   UNL A   1      30.992  25.595  23.280  1.00  0.00     0.265 C 
ATOM     47  H   UNL A   1      31.079  24.630  21.470  1.00  0.00     0.174 HD
ATOM     48  C   UNL A   1      31.853  26.603  23.954  1.00  0.00     0.083 C 
ATOM     49  O   UNL A   1      29.960  25.133  23.730  1.00  0.00    -0.268 OA
ATOM     50  H   UNL A   1      30.696  26.735  25.621  1.00  0.00     0.064 H 
ENDBRANCH  32  41
ENDBRANCH  30  31
ENDBRANCH  27  30
ENDBRANCH  22  27
ENDBRANCH  12  21
ENDBRANCH   8  11
ENDBRANCH   4   7
ENDBRANCH   1   4
BRANCH   1  51
ATOM     51  C   UNL A   1      39.977  34.836  35.419  1.00  0.00    -0.052 C 
ATOM     52  H   UNL A   1      39.587  35.713  35.892  1.00  0.00     0.027 H 
ATOM     53  H   UNL A   1      39.243  34.290  34.864  1.00  0.00     0.027 H 
BRANCH  51  54
ATOM     54  C   UNL A   1      41.044  35.279  34.401  1.00  0.00    -0.052 C 
ATOM     55  H   UNL A   1      42.004  35.055  34.814  1.00  0.00     0.027 H 
ATOM     56  H   UNL A   1      40.870  36.322  34.236  1.00  0.00     0.027 H 
BRANCH  54  57
ATOM     57  C   UNL A   1      40.964  34.621  33.013  1.00  0.00    -0.036 C 
ATOM     58  H   UNL A   1      41.752  33.902  32.931  1.00  0.00     0.028 H 
ATOM     59  H   UNL A   1      41.056  35.401  32.286  1.00  0.00     0.028 H 
BRANCH  57  60
ATOM     60  C   UNL A   1      39.641  33.920  32.761  1.00  0.00     0.018 C 
ATOM     61  H   UNL A   1      38.917  34.286  33.459  1.00  0.00     0.049 H 
ATOM     62  H   UNL A   1      39.795  32.868  32.882  1.00  0.00     0.049 H 
BRANCH  60  63
ATOM     63  N   UNL A   1      39.147  34.154  31.397  1.00  0.00    -0.352 N 
ATOM     64  C   UNL A   1      39.502  33.543  30.208  1.00  0.00     0.251 C 
ATOM     65  H   UNL A   1      38.457  34.853  31.317  1.00  0.00     0.163 HD
ATOM     66  O   UNL A   1      39.292  34.085  29.129  1.00  0.00    -0.269 OA
BRANCH  64  67
ATOM     67  C   UNL A   1      40.115  32.207  30.260  1.00  0.00     0.039 A 
ATOM     68  C   UNL A   1      39.393  31.016  30.126  1.00  0.00    -0.049 A 
ATOM     69  C   UNL A   1      41.489  32.181  30.418  1.00  0.00    -0.049 A 
ATOM     70  C   UNL A   1      40.097  29.813  30.161  1.00  0.00    -0.053 A 
ATOM     71  H   UNL A   1      38.368  31.028  30.002  1.00  0.00     0.063 H 
ATOM     72  C   UNL A   1      42.168  31.065  30.059  1.00  0.00    -0.053 A 
ATOM     73  H   UNL A   1      41.989  32.998  30.801  1.00  0.00     0.063 H 
ATOM     74  C   UNL A   1      41.495  29.864  30.154  1.00  0.00    -0.014 A 
ATOM     75  H   UNL A   1      39.599  28.909  30.194  1.00  0.00     0.063 H 
ATOM     76  H   UNL A   1      43.145  31.110  29.731  1.00  0.00     0.063 H 
BRANCH  74  77
ATOM     77  C   UNL A   1      42.359  28.703  30.185  1.00  0.00     0.031 A 
ATOM     78  C   UNL A   1      42.716  28.282  31.554  1.00  0.00     0.074 A 
ATOM     79  C   UNL A   1      42.515  27.912  29.097  1.00  0.00     0.049 A 
ATOM     80  N   UNL A   1      43.867  28.388  32.124  1.00  0.00    -0.248 NA
ATOM     81  C   UNL A   1      41.630  27.885  32.465  1.00  0.00    -0.034 C 
ATOM     82  C   UNL A   1      41.883  28.026  27.774  1.00  0.00    -0.036 A 
ATOM     83  N   UNL A   1      43.193  26.737  28.996  1.00  0.00    -0.354 N 
ATOM     84  C   UNL A   1      43.701  27.848  33.393  1.00  0.00     0.074 A 
ATOM     85  C   UNL A   1      42.283  27.814  33.627  1.00  0.00    -0.034 C 
ATOM     86  H   UNL A   1      40.634  27.709  32.260  1.00  0.00     0.065 H 
ATOM     87  C   UNL A   1      42.023  26.862  27.099  1.00  0.00    -0.036 A 
ATOM     88  H   UNL A   1      41.405  28.868  27.415  1.00  0.00     0.065 H 
ATOM     89  C   UNL A   1      42.868  25.974  27.873  1.00  0.00     0.049 A 
ATOM     90  H   UNL A   1      43.859  26.447  29.661  1.00  0.00     0.167 HD
ATOM     91  C   UNL A   1      44.726  27.194  34.007  1.00  0.00     0.037 A 
ATOM     92  H   UNL A   1      41.836  27.748  34.555  1.00  0.00     0.065 H 
ATOM     93  H   UNL A   1      41.598  26.642  26.185  1.00  0.00     0.065 H 
ATOM     94  C   UNL A   1      43.230  24.679  27.677  1.00  0.00     0.037 A 
ATOM     95  C   UNL A   1      45.973  27.455  33.322  1.00  0.00     0.049 A 
ATOM     96  C   UNL A   1      44.368  24.406  28.605  1.00  0.00     0.074 A 
ATOM     97  C   UNL A   1      46.663  28.606  32.986  1.00  0.00    -0.036 A 
ATOM     98  N   UNL A   1      46.465  26.475  32.490  1.00  0.00    -0.354 N 
ATOM     99  N   UNL A   1      45.543  24.966  28.484  1.00  0.00    -0.248 NA
ATOM    100  C   UNL A   1      44.033  23.945  29.947  1.00  0.00    -0.034 C 
ATOM    101  C   UNL A   1      47.120  28.380  31.652  1.00  0.00    -0.036 A 
ATOM    102  H   UNL A   1      46.814  29.443  33.571  1.00  0.00     0.065 H 
ATOM    103  C   UNL A   1      46.785  27.074  31.297  1.00  0.00     0.049 A 
ATOM    104  H   UNL A   1      46.567  25.521  32.710  1.00  0.00     0.167 HD
ATOM    105  C   UNL A   1      45.899  25.322  29.778  1.00  0.00     0.074 A 
ATOM    106  C   UNL A   1      44.952  24.620  30.643  1.00  0.00    -0.034 C 
ATOM    107  H   UNL A   1      43.302  23.289  30.264  1.00  0.00     0.065 H 
ATOM    108  H   UNL A   1      47.612  29.063  31.056  1.00  0.00     0.065 H 
ATOM    109  C   UNL A   1      46.713  26.392  30.026  1.00  0.00     0.037 A 
ATOM    110  H   UNL A   1      44.989  24.644  31.675  1.00  0.00     0.065 H 
BRANCH  91 111
ATOM    111  C   UNL A   1      44.563  26.019  34.945  1.00  0.00     0.064 A 
ATOM    112  C   UNL A   1      45.219  26.065  36.191  1.00  0.00     0.173 A 
ATOM    113  C   UNL A   1      44.054  24.753  34.578  1.00  0.00     0.173 A 
ATOM    114  F   UNL A   1      45.740  27.214  36.648  1.00  0.00    -0.203 F 
ATOM    115  C   UNL A   1      45.443  24.915  36.953  1.00  0.00     0.198 A 
ATOM    116  C   UNL A   1      44.231  23.619  35.367  1.00  0.00     0.198 A 
ATOM    117  F   UNL A   1      43.464  24.522  33.402  1.00  0.00    -0.203 F 
ATOM    118  F   UNL A   1      46.195  24.989  38.059  1.00  0.00    -0.200 F 
ATOM    119  C   UNL A   1      44.959  23.691  36.534  1.00  0.00     0.200 A 
ATOM    120  F   UNL A   1      43.760  22.441  34.937  1.00  0.00    -0.200 F 
ATOM    121  F   UNL A   1      45.229  22.577  37.225  1.00  0.00    -0.200 F 
ENDBRANCH  91 111
BRANCH  94 122
ATOM    122  C   UNL A   1      42.451  23.597  27.019  1.00  0.00     0.064 A 
ATOM    123  C   UNL A   1      43.085  22.503  26.405  1.00  0.00     0.173 A 
ATOM    124  C   UNL A   1      41.059  23.478  27.210  1.00  0.00     0.173 A 
ATOM    125  F   UNL A   1      44.415  22.506  26.230  1.00  0.00    -0.203 F 
ATOM    126  C   UNL A   1      42.373  21.357  26.023  1.00  0.00     0.198 A 
ATOM    127  C   UNL A   1      40.350  22.338  26.822  1.00  0.00     0.198 A 
ATOM    128  F   UNL A   1      40.371  24.424  27.865  1.00  0.00    -0.203 F 
ATOM    129  F   UNL A   1      43.023  20.311  25.492  1.00  0.00    -0.200 F 
ATOM    130  C   UNL A   1      41.008  21.273  26.240  1.00  0.00     0.200 A 
ATOM    131  F   UNL A   1      39.036  22.257  27.079  1.00  0.00    -0.200 F 
ATOM    132  F   UNL A   1      40.337  20.155  25.929  1.00  0.00    -0.200 F 
ENDBRANCH  94 122
BRANCH 109 133
ATOM    133  C   UNL A   1      47.413  27.053  28.869  1.00  0.00     0.064 A 
ATOM    134  C   UNL A   1      46.898  28.143  28.145  1.00  0.00     0.173 A 
ATOM    135  C   UNL A   1      48.735  26.675  28.599  1.00  0.00     0.173 A 
ATOM    136  F   UNL A   1      45.686  28.641  28.416  1.00  0.00    -0.203 F 
ATOM    137  C   UNL A   1      47.655  28.789  27.168  1.00  0.00     0.198 A 
ATOM    138  C   UNL A   1      49.503  27.347  27.652  1.00  0.00     0.198 A 
ATOM    139  F   UNL A   1      49.304  25.681  29.298  1.00  0.00    -0.203 F 
ATOM    140  F   UNL A   1      47.134  29.820  26.486  1.00  0.00    -0.200 F 
ATOM    141  C   UNL A   1      48.961  28.395  26.929  1.00  0.00     0.200 A 
ATOM    142  F   UNL A   1      50.783  26.995  27.465  1.00  0.00    -0.200 F 
ATOM    143  F   UNL A   1      49.705  29.042  26.021  1.00  0.00    -0.200 F 
ENDBRANCH 109 133
ENDBRANCH  74  77
ENDBRANCH  64  67
ENDBRANCH  60  63
ENDBRANCH  57  60
ENDBRANCH  54  57
ENDBRANCH  51  54
ENDBRANCH   1  51
TORSDOF 18
ENDMDL
MODEL 3
REMARK VINA RESULT:     -13.3      5.663     10.757
REMARK SMILES O=C1NC(=O)/C(=C/c2ccc(OCc3cn(-c4ccc(C(=O)NCCCCCCNC(=O)c5ccc(-c6c7nc(c(-c8c(F)c(F)c(F)c(F)c8F)c8ccc([nH]8)c(-c8c(F)c(F)c(F)c(F)c8F)c8nc(c(-c9c(F)c(F)c(F)c(F)c9F)c9ccc6[nH]9)C=C8)C=C7)cc5)cc4)nn3)cc2)S1
REMARK SMILES IDX 25 1 24 4 23 7 21 8 22 9 20 11 17 12 18 13 97 14 19 15 96 17
REMARK SMILES IDX 16 21 14 22 15 23 99 24 98 26 13 27 12 30 11 31 8 32 9 33
REMARK SMILES IDX 101 34 10 35 100 37 7 41 1 42 2 43 3 44 102 45 4 46 6 48
REMARK SMILES IDX 5 49 26 51 27 54 28 57 29 60 30 63 31 64 32 66 33 67 34 68
REMARK SMILES IDX 95 69 35 70 94 72 36 74 37 77 38 78 88 79 39 80 93 81 87 82
REMARK SMILES IDX 89 83 40 84 92 85 86 87 85 89 41 91 73 94 53 95 72 96 54 97
REMARK SMILES IDX 57 98 71 99 90 100 55 101 56 103 70 105 91 106 58 109 42 111
REMARK SMILES IDX 43 112 51 113 44 114 45 115 49 116 52 117 46 118 47 119
REMARK SMILES IDX 50 120 48 121 74 122 75 123 83 124 76 125 77 126 81 127
REMARK SMILES IDX 84 128 78 129 79 130 82 131 80 132 59 133 60 134 68 135
REMARK SMILES IDX 61 136 62 137 66 138 69 139 63 140 64 141 67 142 65 143
REMARK H PARENT 25 2 25 3 24 5 24 6 23 10 18 16 97 18 19 19 96 20 15 25 13 28
REMARK H PARENT 13 29 9 36 101 38 10 39 100 40 3 47 7 50 26 52 26 53 27 55
REMARK H PARENT 27 56 28 58 28 59 29 61 29 62 30 65 34 71 95 73 35 75 94 76
REMARK H PARENT 93 86 87 88 89 90 92 92 86 93 54 102 57 104 90 107 55 108
REMARK H PARENT 91 110
REMARK Flexibility Score: inf
ROOT
ATOM      1  C   UNL A   1      36.144  33.600  34.714  1.00  0.00    -0.036 C 
ATOM      2  H   UNL A   1      35.197  33.992  35.020  1.00  0.00     0.028 H 
ATOM      3  H   UNL A   1      36.043  32.633  34.267  1.00  0.00     0.028 H 
ENDROOT
BRANCH   1   4
ATOM      4  C   UNL A   1      37.035  33.450  35.950  1.00  0.00     0.018 C 
ATOM      5  H   UNL A   1      37.868  34.117  35.872  1.00  0.00     0.049 H 
ATOM      6  H   UNL A   1      36.469  33.685  36.827  1.00  0.00     0.049 H 
BRANCH   4   7
ATOM      7  N   UNL A   1      37.515  32.087  36.036  1.00  0.00    -0.352 N 
ATOM      8  C   UNL A   1      38.418  31.367  35.300  1.00  0.00     0.251 C 
ATOM      9  O   UNL A   1      38.562  30.179  35.587  1.00  0.00    -0.269 OA
ATOM     10  H   UNL A   1      37.111  31.574  36.773  1.00  0.00     0.163 HD
BRANCH   8  11
ATOM     11  C   UNL A   1      39.282  31.975  34.252  1.00  0.00     0.039 A 
ATOM     12  C   UNL A   1      40.839  33.429  32.436  1.00  0.00     0.066 A 
ATOM     13  C   UNL A   1      41.160  33.449  33.798  1.00  0.00    -0.036 A 
ATOM     14  C   UNL A   1      39.803  32.622  31.967  1.00  0.00    -0.036 A 
ATOM     15  C   UNL A   1      40.357  32.757  34.702  1.00  0.00    -0.047 A 
ATOM     16  H   UNL A   1      41.983  33.975  34.130  1.00  0.00     0.065 H 
ATOM     17  C   UNL A   1      39.086  31.840  32.873  1.00  0.00    -0.047 A 
ATOM     18  H   UNL A   1      39.571  32.604  30.962  1.00  0.00     0.065 H 
ATOM     19  H   UNL A   1      40.556  32.817  35.713  1.00  0.00     0.063 H 
ATOM     20  H   UNL A   1      38.401  31.152  32.522  1.00  0.00     0.063 H 
BRANCH  12  21
ATOM     21  N   UNL A   1      41.596  34.201  31.540  1.00  0.00    -0.220 N 
ATOM     22  C   UNL A   1      42.363  35.335  29.843  1.00  0.00     0.120 A 
ATOM     23  C   UNL A   1      41.236  34.685  30.302  1.00  0.00     0.058 A 
ATOM     24  N   UNL A   1      43.329  35.258  30.813  1.00  0.00    -0.131 NA
ATOM     25  H   UNL A   1      40.326  34.584  29.825  1.00  0.00     0.086 H 
ATOM     26  N   UNL A   1      42.843  34.605  31.849  1.00  0.00    -0.062 NA
BRANCH  22  27
ATOM     27  C   UNL A   1      42.603  36.138  28.606  1.00  0.00     0.134 C 
ATOM     28  H   UNL A   1      43.142  35.523  27.915  1.00  0.00     0.078 H 
ATOM     29  H   UNL A   1      41.636  36.436  28.259  1.00  0.00     0.078 H 
BRANCH  27  30
ATOM     30  O   UNL A   1      43.347  37.356  28.789  1.00  0.00    -0.487 OA
BRANCH  30  31
ATOM     31  C   UNL A   1      43.246  38.334  27.838  1.00  0.00     0.119 A 
ATOM     32  C   UNL A   1      43.377  40.528  26.084  1.00  0.00    -0.024 A 
ATOM     33  C   UNL A   1      44.497  39.716  26.277  1.00  0.00    -0.051 A 
ATOM     34  C   UNL A   1      42.170  40.174  26.690  1.00  0.00    -0.051 A 
ATOM     35  C   UNL A   1      44.430  38.630  27.159  1.00  0.00    -0.019 A 
ATOM     36  H   UNL A   1      45.373  39.918  25.772  1.00  0.00     0.063 H 
ATOM     37  C   UNL A   1      42.099  39.063  27.531  1.00  0.00    -0.019 A 
ATOM     38  H   UNL A   1      41.325  40.739  26.516  1.00  0.00     0.063 H 
ATOM     39  H   UNL A   1      45.265  38.042  27.309  1.00  0.00     0.066 H 
ATOM     40  H   UNL A   1      41.190  38.778  27.929  1.00  0.00     0.066 H 
BRANCH  32  41
ATOM     41  C   UNL A   1      43.448  41.723  25.239  1.00  0.00    -0.035 C 
ATOM     42  O   UNL A   1      46.435  45.466  26.817  1.00  0.00    -0.261 OA
ATOM     43  C   UNL A   1      45.654  44.703  26.250  1.00  0.00     0.290 C 
ATOM     44  N   UNL A   1      44.951  44.985  25.132  1.00  0.00    -0.282 N 
ATOM     45  S   UNL A   1      45.300  43.077  26.788  1.00  0.00    -0.022 SA
ATOM     46  C   UNL A   1      44.132  44.017  24.628  1.00  0.00     0.265 C 
ATOM     47  H   UNL A   1      45.027  45.864  24.694  1.00  0.00     0.174 HD
ATOM     48  C   UNL A   1      44.193  42.809  25.492  1.00  0.00     0.083 C 
ATOM     49  O   UNL A   1      43.447  44.138  23.629  1.00  0.00    -0.268 OA
ATOM     50  H   UNL A   1      42.879  41.729  24.378  1.00  0.00     0.064 H 
ENDBRANCH  32  41
ENDBRANCH  30  31
ENDBRANCH  27  30
ENDBRANCH  22  27
ENDBRANCH  12  21
ENDBRANCH   8  11
ENDBRANCH   4   7
ENDBRANCH   1   4
BRANCH   1  51
ATOM     51  C   UNL A   1      36.750  34.539  33.664  1.00  0.00    -0.052 C 
ATOM     52  H   UNL A   1      37.815  34.509  33.765  1.00  0.00     0.027 H 
ATOM     53  H   UNL A   1      36.334  35.507  33.852  1.00  0.00     0.027 H 
BRANCH  51  54
ATOM     54  C   UNL A   1      36.400  34.195  32.205  1.00  0.00    -0.052 C 
ATOM     55  H   UNL A   1      37.014  33.373  31.906  1.00  0.00     0.027 H 
ATOM     56  H   UNL A   1      36.569  35.094  31.649  1.00  0.00     0.027 H 
BRANCH  54  57
ATOM     57  C   UNL A   1      34.935  33.812  31.937  1.00  0.00    -0.036 C 
ATOM     58  H   UNL A   1      34.536  34.482  31.204  1.00  0.00     0.028 H 
ATOM     59  H   UNL A   1      34.412  33.880  32.867  1.00  0.00     0.028 H 
BRANCH  57  60
ATOM     60  C   UNL A   1      34.775  32.390  31.431  1.00  0.00     0.018 C 
ATOM     61  H   UNL A   1      34.010  31.903  32.001  1.00  0.00     0.049 H 
ATOM     62  H   UNL A   1      35.714  31.890  31.542  1.00  0.00     0.049 H 
BRANCH  60  63
ATOM     63  N   UNL A   1      34.404  32.352  30.009  1.00  0.00    -0.352 N 
ATOM     64  C   UNL A   1      35.152  31.978  28.907  1.00  0.00     0.251 C 
ATOM     65  H   UNL A   1      33.482  32.634  29.810  1.00  0.00     0.163 HD
ATOM     66  O   UNL A   1      34.848  32.348  27.779  1.00  0.00    -0.269 OA
BRANCH  64  67
ATOM     67  C   UNL A   1      36.313  31.099  29.111  1.00  0.00     0.039 A 
ATOM     68  C   UNL A   1      36.237  29.702  29.116  1.00  0.00    -0.049 A 
ATOM     69  C   UNL A   1      37.531  31.736  29.269  1.00  0.00    -0.049 A 
ATOM     70  C   UNL A   1      37.417  28.980  29.288  1.00  0.00    -0.053 A 
ATOM     71  H   UNL A   1      35.333  29.219  28.994  1.00  0.00     0.063 H 
ATOM     72  C   UNL A   1      38.669  31.038  29.039  1.00  0.00    -0.053 A 
ATOM     73  H   UNL A   1      37.572  32.726  29.555  1.00  0.00     0.063 H 
ATOM     74  C   UNL A   1      38.629  29.679  29.272  1.00  0.00    -0.014 A 
ATOM     75  H   UNL A   1      37.397  27.957  29.425  1.00  0.00     0.063 H 
ATOM     76  H   UNL A   1      39.529  31.503  28.707  1.00  0.00     0.063 H 
BRANCH  74  77
ATOM     77  C   UNL A   1      39.932  29.068  29.435  1.00  0.00     0.031 A 
ATOM     78  C   UNL A   1      40.288  28.829  30.847  1.00  0.00     0.074 A 
ATOM     79  C   UNL A   1      40.568  28.478  28.396  1.00  0.00     0.049 A 
ATOM     80  N   UNL A   1      41.176  29.453  31.541  1.00  0.00    -0.248 NA
ATOM     81  C   UNL A   1      39.426  27.937  31.641  1.00  0.00    -0.034 C 
ATOM     82  C   UNL A   1      40.112  28.316  27.007  1.00  0.00    -0.036 A 
ATOM     83  N   UNL A   1      41.730  27.771  28.406  1.00  0.00    -0.354 N 
ATOM     84  C   UNL A   1      41.144  28.863  32.799  1.00  0.00     0.074 A 
ATOM     85  C   UNL A   1      39.897  28.153  32.870  1.00  0.00    -0.034 C 
ATOM     86  H   UNL A   1      38.664  27.314  31.329  1.00  0.00     0.065 H 
ATOM     87  C   UNL A   1      40.865  27.378  26.386  1.00  0.00    -0.036 A 
ATOM     88  H   UNL A   1      39.336  28.838  26.571  1.00  0.00     0.065 H 
ATOM     89  C   UNL A   1      41.936  26.977  27.276  1.00  0.00     0.049 A 
ATOM     90  H   UNL A   1      42.373  27.814  29.151  1.00  0.00     0.167 HD
ATOM     91  C   UNL A   1      42.280  28.759  33.544  1.00  0.00     0.037 A 
ATOM     92  H   UNL A   1      39.434  27.855  33.743  1.00  0.00     0.065 H 
ATOM     93  H   UNL A   1      40.703  27.009  25.436  1.00  0.00     0.065 H 
ATOM     94  C   UNL A   1      42.890  26.016  27.161  1.00  0.00     0.037 A 
ATOM     95  C   UNL A   1      43.321  29.600  32.997  1.00  0.00     0.049 A 
ATOM     96  C   UNL A   1      43.908  26.292  28.219  1.00  0.00     0.074 A 
ATOM     97  C   UNL A   1      43.413  30.950  32.708  1.00  0.00    -0.036 A 
ATOM     98  N   UNL A   1      44.311  28.997  32.255  1.00  0.00    -0.354 N 
ATOM     99  N   UNL A   1      44.680  27.347  28.216  1.00  0.00    -0.248 NA
ATOM    100  C   UNL A   1      43.682  25.689  29.527  1.00  0.00    -0.034 C 
ATOM    101  C   UNL A   1      44.071  31.007  31.442  1.00  0.00    -0.036 A 
ATOM    102  H   UNL A   1      43.081  31.741  33.282  1.00  0.00     0.065 H 
ATOM    103  C   UNL A   1      44.441  29.710  31.090  1.00  0.00     0.049 A 
ATOM    104  H   UNL A   1      44.829  28.200  32.513  1.00  0.00     0.167 HD
ATOM    105  C   UNL A   1      44.674  27.792  29.532  1.00  0.00     0.074 A 
ATOM    106  C   UNL A   1      44.084  26.700  30.303  1.00  0.00    -0.034 C 
ATOM    107  H   UNL A   1      43.320  24.755  29.779  1.00  0.00     0.065 H 
ATOM    108  H   UNL A   1      44.243  31.859  30.886  1.00  0.00     0.065 H 
ATOM    109  C   UNL A   1      44.847  29.113  29.838  1.00  0.00     0.037 A 
ATOM    110  H   UNL A   1      43.987  26.708  31.331  1.00  0.00     0.065 H 
BRANCH  91 111
ATOM    111  C   UNL A   1      42.590  27.621  34.491  1.00  0.00     0.064 A 
ATOM    112  C   UNL A   1      43.103  26.425  33.950  1.00  0.00     0.173 A 
ATOM    113  C   UNL A   1      42.146  27.536  35.829  1.00  0.00     0.173 A 
ATOM    114  F   UNL A   1      43.559  26.385  32.689  1.00  0.00    -0.203 F 
ATOM    115  C   UNL A   1      43.070  25.220  34.655  1.00  0.00     0.198 A 
ATOM    116  C   UNL A   1      42.166  26.343  36.548  1.00  0.00     0.198 A 
ATOM    117  F   UNL A   1      41.573  28.559  36.470  1.00  0.00    -0.203 F 
ATOM    118  F   UNL A   1      43.437  24.085  34.046  1.00  0.00    -0.200 F 
ATOM    119  C   UNL A   1      42.590  25.178  35.950  1.00  0.00     0.200 A 
ATOM    120  F   UNL A   1      41.688  26.324  37.800  1.00  0.00    -0.200 F 
ATOM    121  F   UNL A   1      42.494  24.015  36.605  1.00  0.00    -0.200 F 
ENDBRANCH  91 111
BRANCH  94 122
ATOM    122  C   UNL A   1      42.800  24.714  26.450  1.00  0.00     0.064 A 
ATOM    123  C   UNL A   1      43.657  24.399  25.381  1.00  0.00     0.173 A 
ATOM    124  C   UNL A   1      42.049  23.643  26.976  1.00  0.00     0.173 A 
ATOM    125  F   UNL A   1      44.448  25.343  24.850  1.00  0.00    -0.203 F 
ATOM    126  C   UNL A   1      43.766  23.093  24.883  1.00  0.00     0.198 A 
ATOM    127  C   UNL A   1      42.154  22.344  26.475  1.00  0.00     0.198 A 
ATOM    128  F   UNL A   1      41.270  23.815  28.053  1.00  0.00    -0.203 F 
ATOM    129  F   UNL A   1      44.636  22.821  23.899  1.00  0.00    -0.200 F 
ATOM    130  C   UNL A   1      43.020  22.066  25.436  1.00  0.00     0.200 A 
ATOM    131  F   UNL A   1      41.456  21.354  27.051  1.00  0.00    -0.200 F 
ATOM    132  F   UNL A   1      43.167  20.806  25.001  1.00  0.00    -0.200 F 
ENDBRANCH  94 122
BRANCH 109 133
ATOM    133  C   UNL A   1      45.274  30.060  28.750  1.00  0.00     0.064 A 
ATOM    134  C   UNL A   1      44.391  30.713  27.872  1.00  0.00     0.173 A 
ATOM    135  C   UNL A   1      46.619  30.452  28.712  1.00  0.00     0.173 A 
ATOM    136  F   UNL A   1      43.074  30.481  27.917  1.00  0.00    -0.203 F 
ATOM    137  C   UNL A   1      44.844  31.676  26.970  1.00  0.00     0.198 A 
ATOM    138  C   UNL A   1      47.062  31.442  27.839  1.00  0.00     0.198 A 
ATOM    139  F   UNL A   1      47.500  29.909  29.566  1.00  0.00    -0.203 F 
ATOM    140  F   UNL A   1      43.980  32.276  26.137  1.00  0.00    -0.200 F 
ATOM    141  C   UNL A   1      46.178  32.046  26.961  1.00  0.00     0.200 A 
ATOM    142  F   UNL A   1      48.344  31.834  27.875  1.00  0.00    -0.200 F 
ATOM    143  F   UNL A   1      46.608  33.002  26.126  1.00  0.00    -0.200 F 
ENDBRANCH 109 133
ENDBRANCH  74  77
ENDBRANCH  64  67
ENDBRANCH  60  63
ENDBRANCH  57  60
ENDBRANCH  54  57
ENDBRANCH  51  54
ENDBRANCH   1  51
TORSDOF 18
ENDMDL
MODEL 4
REMARK VINA RESULT:     -13.3      3.858     10.959
REMARK SMILES O=C1NC(=O)/C(=C/c2ccc(OCc3cn(-c4ccc(C(=O)NCCCCCCNC(=O)c5ccc(-c6c7nc(c(-c8c(F)c(F)c(F)c(F)c8F)c8ccc([nH]8)c(-c8c(F)c(F)c(F)c(F)c8F)c8nc(c(-c9c(F)c(F)c(F)c(F)c9F)c9ccc6[nH]9)C=C8)C=C7)cc5)cc4)nn3)cc2)S1
REMARK SMILES IDX 25 1 24 4 23 7 21 8 22 9 20 11 17 12 18 13 97 14 19 15 96 17
REMARK SMILES IDX 16 21 14 22 15 23 99 24 98 26 13 27 12 30 11 31 8 32 9 33
REMARK SMILES IDX 101 34 10 35 100 37 7 41 1 42 2 43 3 44 102 45 4 46 6 48
REMARK SMILES IDX 5 49 26 51 27 54 28 57 29 60 30 63 31 64 32 66 33 67 34 68
REMARK SMILES IDX 95 69 35 70 94 72 36 74 37 77 38 78 88 79 39 80 93 81 87 82
REMARK SMILES IDX 89 83 40 84 92 85 86 87 85 89 41 91 73 94 53 95 72 96 54 97
REMARK SMILES IDX 57 98 71 99 90 100 55 101 56 103 70 105 91 106 58 109 42 111
REMARK SMILES IDX 43 112 51 113 44 114 45 115 49 116 52 117 46 118 47 119
REMARK SMILES IDX 50 120 48 121 74 122 75 123 83 124 76 125 77 126 81 127
REMARK SMILES IDX 84 128 78 129 79 130 82 131 80 132 59 133 60 134 68 135
REMARK SMILES IDX 61 136 62 137 66 138 69 139 63 140 64 141 67 142 65 143
REMARK H PARENT 25 2 25 3 24 5 24 6 23 10 18 16 97 18 19 19 96 20 15 25 13 28
REMARK H PARENT 13 29 9 36 101 38 10 39 100 40 3 47 7 50 26 52 26 53 27 55
REMARK H PARENT 27 56 28 58 28 59 29 61 29 62 30 65 34 71 95 73 35 75 94 76
REMARK H PARENT 93 86 87 88 89 90 92 92 86 93 54 102 57 104 90 107 55 108
REMARK H PARENT 91 110
REMARK Flexibility Score: inf
ROOT
ATOM      1  C   UNL A   1      33.655  20.602  26.197  1.00  0.00    -0.036 C 
ATOM      2  H   UNL A   1      33.628  19.866  26.973  1.00  0.00     0.028 H 
ATOM      3  H   UNL A   1      32.670  20.873  25.879  1.00  0.00     0.028 H 
ENDROOT
BRANCH   1   4
ATOM      4  C   UNL A   1      34.388  20.014  24.989  1.00  0.00     0.018 C 
ATOM      5  H   UNL A   1      35.146  20.697  24.665  1.00  0.00     0.049 H 
ATOM      6  H   UNL A   1      34.840  19.085  25.264  1.00  0.00     0.049 H 
BRANCH   4   7
ATOM      7  N   UNL A   1      33.446  19.793  23.913  1.00  0.00    -0.352 N 
ATOM      8  C   UNL A   1      32.499  20.587  23.324  1.00  0.00     0.251 C 
ATOM      9  O   UNL A   1      31.791  20.076  22.457  1.00  0.00    -0.269 OA
ATOM     10  H   UNL A   1      33.497  18.890  23.525  1.00  0.00     0.163 HD
BRANCH   8  11
ATOM     11  C   UNL A   1      32.357  22.040  23.618  1.00  0.00     0.039 A 
ATOM     12  C   UNL A   1      32.433  24.763  24.261  1.00  0.00     0.066 A 
ATOM     13  C   UNL A   1      33.261  24.265  23.249  1.00  0.00    -0.036 A 
ATOM     14  C   UNL A   1      31.509  23.930  24.891  1.00  0.00    -0.036 A 
ATOM     15  C   UNL A   1      33.248  22.902  22.962  1.00  0.00    -0.047 A 
ATOM     16  H   UNL A   1      33.879  24.902  22.722  1.00  0.00     0.065 H 
ATOM     17  C   UNL A   1      31.426  22.591  24.505  1.00  0.00    -0.047 A 
ATOM     18  H   UNL A   1      30.895  24.300  25.633  1.00  0.00     0.065 H 
ATOM     19  H   UNL A   1      33.900  22.522  22.257  1.00  0.00     0.063 H 
ATOM     20  H   UNL A   1      30.667  22.000  24.878  1.00  0.00     0.063 H 
BRANCH  12  21
ATOM     21  N   UNL A   1      32.514  26.122  24.610  1.00  0.00    -0.220 N 
ATOM     22  C   UNL A   1      33.133  28.113  25.244  1.00  0.00     0.120 A 
ATOM     23  C   UNL A   1      33.624  26.855  24.963  1.00  0.00     0.058 A 
ATOM     24  N   UNL A   1      31.781  28.107  25.018  1.00  0.00    -0.131 NA
ATOM     25  H   UNL A   1      34.605  26.535  25.007  1.00  0.00     0.086 H 
ATOM     26  N   UNL A   1      31.423  26.910  24.598  1.00  0.00    -0.062 NA
BRANCH  22  27
ATOM     27  C   UNL A   1      33.828  29.385  25.605  1.00  0.00     0.134 C 
ATOM     28  H   UNL A   1      34.801  29.366  25.158  1.00  0.00     0.078 H 
ATOM     29  H   UNL A   1      33.201  30.173  25.244  1.00  0.00     0.078 H 
BRANCH  27  30
ATOM     30  O   UNL A   1      33.992  29.627  27.014  1.00  0.00    -0.487 OA
BRANCH  30  31
ATOM     31  C   UNL A   1      33.953  30.919  27.465  1.00  0.00     0.119 A 
ATOM     32  C   UNL A   1      33.705  33.668  28.001  1.00  0.00    -0.024 A 
ATOM     33  C   UNL A   1      32.590  32.928  27.602  1.00  0.00    -0.051 A 
ATOM     34  C   UNL A   1      34.913  33.005  28.229  1.00  0.00    -0.051 A 
ATOM     35  C   UNL A   1      32.720  31.560  27.326  1.00  0.00    -0.019 A 
ATOM     36  H   UNL A   1      31.672  33.388  27.509  1.00  0.00     0.063 H 
ATOM     37  C   UNL A   1      35.022  31.633  27.997  1.00  0.00    -0.019 A 
ATOM     38  H   UNL A   1      35.730  33.534  28.571  1.00  0.00     0.063 H 
ATOM     39  H   UNL A   1      31.895  31.021  27.018  1.00  0.00     0.066 H 
ATOM     40  H   UNL A   1      35.903  31.144  28.223  1.00  0.00     0.066 H 
BRANCH  32  41
ATOM     41  C   UNL A   1      33.616  35.116  28.206  1.00  0.00    -0.035 C 
ATOM     42  O   UNL A   1      33.344  36.743  32.970  1.00  0.00    -0.261 OA
ATOM     43  C   UNL A   1      33.390  36.580  31.752  1.00  0.00     0.290 C 
ATOM     44  N   UNL A   1      33.278  37.554  30.824  1.00  0.00    -0.282 N 
ATOM     45  S   UNL A   1      33.618  35.030  30.973  1.00  0.00    -0.022 SA
ATOM     46  C   UNL A   1      33.360  37.200  29.508  1.00  0.00     0.265 C 
ATOM     47  H   UNL A   1      33.141  38.493  31.088  1.00  0.00     0.174 HD
ATOM     48  C   UNL A   1      33.545  35.729  29.396  1.00  0.00     0.083 C 
ATOM     49  O   UNL A   1      33.278  37.975  28.573  1.00  0.00    -0.268 OA
ATOM     50  H   UNL A   1      33.606  35.713  27.364  1.00  0.00     0.064 H 
ENDBRANCH  32  41
ENDBRANCH  30  31
ENDBRANCH  27  30
ENDBRANCH  22  27
ENDBRANCH  12  21
ENDBRANCH   8  11
ENDBRANCH   4   7
ENDBRANCH   1   4
BRANCH   1  51
ATOM     51  C   UNL A   1      34.335  21.865  26.739  1.00  0.00    -0.052 C 
ATOM     52  H   UNL A   1      34.334  21.812  27.807  1.00  0.00     0.027 H 
ATOM     53  H   UNL A   1      33.777  22.694  26.354  1.00  0.00     0.027 H 
BRANCH  51  54
ATOM     54  C   UNL A   1      35.788  22.071  26.273  1.00  0.00    -0.052 C 
ATOM     55  H   UNL A   1      36.076  21.211  25.708  1.00  0.00     0.027 H 
ATOM     56  H   UNL A   1      36.358  22.219  27.167  1.00  0.00     0.027 H 
BRANCH  54  57
ATOM     57  C   UNL A   1      36.048  23.314  25.405  1.00  0.00    -0.036 C 
ATOM     58  H   UNL A   1      35.715  24.179  25.940  1.00  0.00     0.028 H 
ATOM     59  H   UNL A   1      35.514  23.179  24.488  1.00  0.00     0.028 H 
BRANCH  57  60
ATOM     60  C   UNL A   1      37.513  23.498  25.053  1.00  0.00     0.018 C 
ATOM     61  H   UNL A   1      37.827  24.470  25.372  1.00  0.00     0.049 H 
ATOM     62  H   UNL A   1      37.616  23.390  23.993  1.00  0.00     0.049 H 
BRANCH  60  63
ATOM     63  N   UNL A   1      38.364  22.488  25.698  1.00  0.00    -0.352 N 
ATOM     64  C   UNL A   1      39.498  22.648  26.473  1.00  0.00     0.251 C 
ATOM     65  H   UNL A   1      38.082  21.555  25.560  1.00  0.00     0.163 HD
ATOM     66  O   UNL A   1      40.298  21.732  26.622  1.00  0.00    -0.269 OA
BRANCH  64  67
ATOM     67  C   UNL A   1      39.716  23.940  27.141  1.00  0.00     0.039 A 
ATOM     68  C   UNL A   1      38.688  24.835  27.454  1.00  0.00    -0.049 A 
ATOM     69  C   UNL A   1      41.024  24.224  27.492  1.00  0.00    -0.049 A 
ATOM     70  C   UNL A   1      39.021  26.014  28.118  1.00  0.00    -0.053 A 
ATOM     71  H   UNL A   1      37.708  24.628  27.201  1.00  0.00     0.063 H 
ATOM     72  C   UNL A   1      41.258  25.149  28.454  1.00  0.00    -0.053 A 
ATOM     73  H   UNL A   1      41.808  23.740  27.029  1.00  0.00     0.063 H 
ATOM     74  C   UNL A   1      40.330  26.160  28.590  1.00  0.00    -0.014 A 
ATOM     75  H   UNL A   1      38.320  26.760  28.258  1.00  0.00     0.063 H 
ATOM     76  H   UNL A   1      42.094  25.099  29.058  1.00  0.00     0.063 H 
BRANCH  74  77
ATOM     77  C   UNL A   1      40.823  27.323  29.299  1.00  0.00     0.031 A 
ATOM     78  C   UNL A   1      41.837  28.079  28.538  1.00  0.00     0.074 A 
ATOM     79  C   UNL A   1      40.163  27.828  30.368  1.00  0.00     0.049 A 
ATOM     80  N   UNL A   1      43.099  28.156  28.789  1.00  0.00    -0.248 NA
ATOM     81  C   UNL A   1      41.449  28.649  27.237  1.00  0.00    -0.034 C 
ATOM     82  C   UNL A   1      38.905  27.371  30.977  1.00  0.00    -0.036 A 
ATOM     83  N   UNL A   1      40.429  28.965  31.066  1.00  0.00    -0.354 N 
ATOM     84  C   UNL A   1      43.621  28.985  27.804  1.00  0.00     0.074 A 
ATOM     85  C   UNL A   1      42.636  29.026  26.758  1.00  0.00    -0.034 C 
ATOM     86  H   UNL A   1      40.513  28.736  26.813  1.00  0.00     0.065 H 
ATOM     87  C   UNL A   1      38.410  28.338  31.783  1.00  0.00    -0.036 A 
ATOM     88  H   UNL A   1      38.466  26.451  30.813  1.00  0.00     0.065 H 
ATOM     89  C   UNL A   1      39.374  29.418  31.861  1.00  0.00     0.049 A 
ATOM     90  H   UNL A   1      41.295  29.432  31.014  1.00  0.00     0.167 HD
ATOM     91  C   UNL A   1      44.675  29.804  28.076  1.00  0.00     0.037 A 
ATOM     92  H   UNL A   1      42.820  29.302  25.781  1.00  0.00     0.065 H 
ATOM     93  H   UNL A   1      37.497  28.312  32.263  1.00  0.00     0.065 H 
ATOM     94  C   UNL A   1      39.314  30.637  32.458  1.00  0.00     0.037 A 
ATOM     95  C   UNL A   1      45.298  29.427  29.325  1.00  0.00     0.049 A 
ATOM     96  C   UNL A   1      40.710  31.168  32.493  1.00  0.00     0.074 A 
ATOM     97  C   UNL A   1      45.848  28.253  29.809  1.00  0.00    -0.036 A 
ATOM     98  N   UNL A   1      45.021  30.190  30.437  1.00  0.00    -0.354 N 
ATOM     99  N   UNL A   1      41.663  30.636  33.211  1.00  0.00    -0.248 NA
ATOM    100  C   UNL A   1      41.156  31.932  31.334  1.00  0.00    -0.034 C 
ATOM    101  C   UNL A   1      45.381  28.161  31.155  1.00  0.00    -0.036 A 
ATOM    102  H   UNL A   1      46.461  27.591  29.308  1.00  0.00     0.065 H 
ATOM    103  C   UNL A   1      44.676  29.328  31.448  1.00  0.00     0.049 A 
ATOM    104  H   UNL A   1      45.061  31.171  30.496  1.00  0.00     0.167 HD
ATOM    105  C   UNL A   1      42.771  30.622  32.374  1.00  0.00     0.074 A 
ATOM    106  C   UNL A   1      42.411  31.481  31.247  1.00  0.00    -0.034 C 
ATOM    107  H   UNL A   1      40.651  32.620  30.753  1.00  0.00     0.065 H 
ATOM    108  H   UNL A   1      45.538  27.369  31.799  1.00  0.00     0.065 H 
ATOM    109  C   UNL A   1      43.748  29.673  32.500  1.00  0.00     0.037 A 
ATOM    110  H   UNL A   1      43.052  31.712  30.472  1.00  0.00     0.065 H 
BRANCH  91 111
ATOM    111  C   UNL A   1      44.891  31.167  27.457  1.00  0.00     0.064 A 
ATOM    112  C   UNL A   1      46.130  31.431  26.841  1.00  0.00     0.173 A 
ATOM    113  C   UNL A   1      44.081  32.301  27.690  1.00  0.00     0.173 A 
ATOM    114  F   UNL A   1      46.983  30.432  26.566  1.00  0.00    -0.203 F 
ATOM    115  C   UNL A   1      46.568  32.732  26.582  1.00  0.00     0.198 A 
ATOM    116  C   UNL A   1      44.497  33.593  27.379  1.00  0.00     0.198 A 
ATOM    117  F   UNL A   1      42.906  32.236  28.323  1.00  0.00    -0.203 F 
ATOM    118  F   UNL A   1      47.811  32.935  26.126  1.00  0.00    -0.200 F 
ATOM    119  C   UNL A   1      45.754  33.813  26.862  1.00  0.00     0.200 A 
ATOM    120  F   UNL A   1      43.696  34.628  27.667  1.00  0.00    -0.200 F 
ATOM    121  F   UNL A   1      46.194  35.064  26.678  1.00  0.00    -0.200 F 
ENDBRANCH  91 111
BRANCH  94 122
ATOM    122  C   UNL A   1      38.120  31.496  32.672  1.00  0.00     0.064 A 
ATOM    123  C   UNL A   1      37.039  31.490  31.773  1.00  0.00     0.173 A 
ATOM    124  C   UNL A   1      37.895  32.143  33.904  1.00  0.00     0.173 A 
ATOM    125  F   UNL A   1      37.144  30.852  30.598  1.00  0.00    -0.203 F 
ATOM    126  C   UNL A   1      35.808  32.080  32.095  1.00  0.00     0.198 A 
ATOM    127  C   UNL A   1      36.671  32.737  34.221  1.00  0.00     0.198 A 
ATOM    128  F   UNL A   1      38.827  32.130  34.868  1.00  0.00    -0.203 F 
ATOM    129  F   UNL A   1      34.783  32.003  31.233  1.00  0.00    -0.200 F 
ATOM    130  C   UNL A   1      35.624  32.695  33.322  1.00  0.00     0.200 A 
ATOM    131  F   UNL A   1      36.496  33.290  35.430  1.00  0.00    -0.200 F 
ATOM    132  F   UNL A   1      34.430  33.207  33.654  1.00  0.00    -0.200 F 
ENDBRANCH  94 122
BRANCH 109 133
ATOM    133  C   UNL A   1      43.733  28.774  33.705  1.00  0.00     0.064 A 
ATOM    134  C   UNL A   1      44.250  29.124  34.966  1.00  0.00     0.173 A 
ATOM    135  C   UNL A   1      43.009  27.577  33.623  1.00  0.00     0.173 A 
ATOM    136  F   UNL A   1      44.858  30.300  35.160  1.00  0.00    -0.203 F 
ATOM    137  C   UNL A   1      44.088  28.292  36.074  1.00  0.00     0.198 A 
ATOM    138  C   UNL A   1      42.814  26.767  34.738  1.00  0.00     0.198 A 
ATOM    139  F   UNL A   1      42.439  27.216  32.462  1.00  0.00    -0.203 F 
ATOM    140  F   UNL A   1      44.601  28.647  37.261  1.00  0.00    -0.200 F 
ATOM    141  C   UNL A   1      43.362  27.118  35.960  1.00  0.00     0.200 A 
ATOM    142  F   UNL A   1      42.064  25.661  34.633  1.00  0.00    -0.200 F 
ATOM    143  F   UNL A   1      43.168  26.338  37.033  1.00  0.00    -0.200 F 
ENDBRANCH 109 133
ENDBRANCH  74  77
ENDBRANCH  64  67
ENDBRANCH  60  63
ENDBRANCH  57  60
ENDBRANCH  54  57
ENDBRANCH  51  54
ENDBRANCH   1  51
TORSDOF 18
ENDMDL
MODEL 5
REMARK VINA RESULT:     -13.3      1.739      2.214
REMARK SMILES O=C1NC(=O)/C(=C/c2ccc(OCc3cn(-c4ccc(C(=O)NCCCCCCNC(=O)c5ccc(-c6c7nc(c(-c8c(F)c(F)c(F)c(F)c8F)c8ccc([nH]8)c(-c8c(F)c(F)c(F)c(F)c8F)c8nc(c(-c9c(F)c(F)c(F)c(F)c9F)c9ccc6[nH]9)C=C8)C=C7)cc5)cc4)nn3)cc2)S1
REMARK SMILES IDX 25 1 24 4 23 7 21 8 22 9 20 11 17 12 18 13 97 14 19 15 96 17
REMARK SMILES IDX 16 21 14 22 15 23 99 24 98 26 13 27 12 30 11 31 8 32 9 33
REMARK SMILES IDX 101 34 10 35 100 37 7 41 1 42 2 43 3 44 102 45 4 46 6 48
REMARK SMILES IDX 5 49 26 51 27 54 28 57 29 60 30 63 31 64 32 66 33 67 34 68
REMARK SMILES IDX 95 69 35 70 94 72 36 74 37 77 38 78 88 79 39 80 93 81 87 82
REMARK SMILES IDX 89 83 40 84 92 85 86 87 85 89 41 91 73 94 53 95 72 96 54 97
REMARK SMILES IDX 57 98 71 99 90 100 55 101 56 103 70 105 91 106 58 109 42 111
REMARK SMILES IDX 43 112 51 113 44 114 45 115 49 116 52 117 46 118 47 119
REMARK SMILES IDX 50 120 48 121 74 122 75 123 83 124 76 125 77 126 81 127
REMARK SMILES IDX 84 128 78 129 79 130 82 131 80 132 59 133 60 134 68 135
REMARK SMILES IDX 61 136 62 137 66 138 69 139 63 140 64 141 67 142 65 143
REMARK H PARENT 25 2 25 3 24 5 24 6 23 10 18 16 97 18 19 19 96 20 15 25 13 28
REMARK H PARENT 13 29 9 36 101 38 10 39 100 40 3 47 7 50 26 52 26 53 27 55
REMARK H PARENT 27 56 28 58 28 59 29 61 29 62 30 65 34 71 95 73 35 75 94 76
REMARK H PARENT 93 86 87 88 89 90 92 92 86 93 54 102 57 104 90 107 55 108
REMARK H PARENT 91 110
REMARK Flexibility Score: inf
ROOT
ATOM      1  C   UNL A   1      34.147  34.805  32.242  1.00  0.00    -0.036 C 
ATOM      2  H   UNL A   1      33.935  35.470  33.053  1.00  0.00     0.028 H 
ATOM      3  H   UNL A   1      35.131  34.961  31.854  1.00  0.00     0.028 H 
ENDROOT
BRANCH   1   4
ATOM      4  C   UNL A   1      33.152  35.078  31.111  1.00  0.00     0.018 C 
ATOM      5  H   UNL A   1      32.650  34.170  30.850  1.00  0.00     0.049 H 
ATOM      6  H   UNL A   1      32.435  35.803  31.435  1.00  0.00     0.049 H 
BRANCH   4   7
ATOM      7  N   UNL A   1      33.863  35.584  29.956  1.00  0.00    -0.352 N 
ATOM      8  C   UNL A   1      34.197  35.031  28.749  1.00  0.00     0.251 C 
ATOM      9  O   UNL A   1      34.881  35.710  27.985  1.00  0.00    -0.269 OA
ATOM     10  H   UNL A   1      34.166  36.516  30.058  1.00  0.00     0.163 HD
BRANCH   8  11
ATOM     11  C   UNL A   1      33.698  33.703  28.296  1.00  0.00     0.039 A 
ATOM     12  C   UNL A   1      33.058  31.186  27.254  1.00  0.00     0.066 A 
ATOM     13  C   UNL A   1      34.220  31.346  28.017  1.00  0.00    -0.036 A 
ATOM     14  C   UNL A   1      32.174  32.250  27.081  1.00  0.00    -0.036 A 
ATOM     15  C   UNL A   1      34.554  32.610  28.499  1.00  0.00    -0.047 A 
ATOM     16  H   UNL A   1      34.825  30.535  28.219  1.00  0.00     0.065 H 
ATOM     17  C   UNL A   1      32.466  33.479  27.674  1.00  0.00    -0.047 A 
ATOM     18  H   UNL A   1      31.315  32.129  26.523  1.00  0.00     0.065 H 
ATOM     19  H   UNL A   1      35.440  32.744  29.012  1.00  0.00     0.063 H 
ATOM     20  H   UNL A   1      31.762  34.234  27.654  1.00  0.00     0.063 H 
BRANCH  12  21
ATOM     21  N   UNL A   1      32.771  29.929  26.694  1.00  0.00    -0.220 N 
ATOM     22  C   UNL A   1      32.694  27.821  26.147  1.00  0.00     0.120 A 
ATOM     23  C   UNL A   1      33.276  28.697  27.040  1.00  0.00     0.058 A 
ATOM     24  N   UNL A   1      31.847  28.532  25.337  1.00  0.00    -0.131 NA
ATOM     25  H   UNL A   1      33.941  28.476  27.798  1.00  0.00     0.086 H 
ATOM     26  N   UNL A   1      31.871  29.799  25.701  1.00  0.00    -0.062 NA
BRANCH  22  27
ATOM     27  C   UNL A   1      32.762  26.333  26.039  1.00  0.00     0.134 C 
ATOM     28  H   UNL A   1      33.456  25.981  26.774  1.00  0.00     0.078 H 
ATOM     29  H   UNL A   1      31.762  25.983  26.183  1.00  0.00     0.078 H 
BRANCH  27  30
ATOM     30  O   UNL A   1      33.176  25.820  24.759  1.00  0.00    -0.487 OA
BRANCH  30  31
ATOM     31  C   UNL A   1      32.949  24.500  24.478  1.00  0.00     0.119 A 
ATOM     32  C   UNL A   1      32.628  21.883  23.501  1.00  0.00    -0.024 A 
ATOM     33  C   UNL A   1      33.873  22.512  23.428  1.00  0.00    -0.051 A 
ATOM     34  C   UNL A   1      31.579  22.531  24.156  1.00  0.00    -0.051 A 
ATOM     35  C   UNL A   1      34.026  23.819  23.907  1.00  0.00    -0.019 A 
ATOM     36  H   UNL A   1      34.679  22.013  23.020  1.00  0.00     0.063 H 
ATOM     37  C   UNL A   1      31.752  23.816  24.673  1.00  0.00    -0.019 A 
ATOM     38  H   UNL A   1      30.669  22.056  24.259  1.00  0.00     0.063 H 
ATOM     39  H   UNL A   1      34.946  24.283  23.838  1.00  0.00     0.066 H 
ATOM     40  H   UNL A   1      30.988  24.262  25.204  1.00  0.00     0.066 H 
BRANCH  32  41
ATOM     41  C   UNL A   1      32.420  20.553  22.924  1.00  0.00    -0.035 C 
ATOM     42  O   UNL A   1      33.022  16.603  26.000  1.00  0.00    -0.261 OA
ATOM     43  C   UNL A   1      32.834  17.399  25.081  1.00  0.00     0.290 C 
ATOM     44  N   UNL A   1      32.585  17.070  23.795  1.00  0.00    -0.282 N 
ATOM     45  S   UNL A   1      32.847  19.138  25.265  1.00  0.00    -0.022 SA
ATOM     46  C   UNL A   1      32.391  18.082  22.900  1.00  0.00     0.265 C 
ATOM     47  H   UNL A   1      32.546  16.128  23.511  1.00  0.00     0.174 HD
ATOM     48  C   UNL A   1      32.527  19.393  23.589  1.00  0.00     0.083 C 
ATOM     49  O   UNL A   1      32.157  17.927  21.716  1.00  0.00    -0.268 OA
ATOM     50  H   UNL A   1      32.170  20.504  21.923  1.00  0.00     0.064 H 
ENDBRANCH  32  41
ENDBRANCH  30  31
ENDBRANCH  27  30
ENDBRANCH  22  27
ENDBRANCH  12  21
ENDBRANCH   8  11
ENDBRANCH   4   7
ENDBRANCH   1   4
BRANCH   1  51
ATOM     51  C   UNL A   1      34.069  33.362  32.755  1.00  0.00    -0.052 C 
ATOM     52  H   UNL A   1      33.090  32.986  32.546  1.00  0.00     0.027 H 
ATOM     53  H   UNL A   1      34.295  33.403  33.800  1.00  0.00     0.027 H 
BRANCH  51  54
ATOM     54  C   UNL A   1      35.094  32.395  32.132  1.00  0.00    -0.052 C 
ATOM     55  H   UNL A   1      35.338  32.761  31.158  1.00  0.00     0.027 H 
ATOM     56  H   UNL A   1      34.621  31.435  32.134  1.00  0.00     0.027 H 
BRANCH  54  57
ATOM     57  C   UNL A   1      36.407  32.212  32.910  1.00  0.00    -0.036 C 
ATOM     58  H   UNL A   1      36.682  31.179  32.876  1.00  0.00     0.028 H 
ATOM     59  H   UNL A   1      36.234  32.548  33.911  1.00  0.00     0.028 H 
BRANCH  57  60
ATOM     60  C   UNL A   1      37.552  33.036  32.348  1.00  0.00     0.018 C 
ATOM     61  H   UNL A   1      38.464  32.487  32.464  1.00  0.00     0.049 H 
ATOM     62  H   UNL A   1      37.590  33.961  32.884  1.00  0.00     0.049 H 
BRANCH  60  63
ATOM     63  N   UNL A   1      37.360  33.342  30.923  1.00  0.00    -0.352 N 
ATOM     64  C   UNL A   1      38.103  32.951  29.824  1.00  0.00     0.251 C 
ATOM     65  H   UNL A   1      36.582  33.910  30.720  1.00  0.00     0.163 HD
ATOM     66  O   UNL A   1      38.051  33.574  28.770  1.00  0.00    -0.269 OA
BRANCH  64  67
ATOM     67  C   UNL A   1      38.943  31.749  29.936  1.00  0.00     0.039 A 
ATOM     68  C   UNL A   1      38.523  30.470  29.556  1.00  0.00    -0.049 A 
ATOM     69  C   UNL A   1      40.225  31.953  30.416  1.00  0.00    -0.049 A 
ATOM     70  C   UNL A   1      39.427  29.416  29.681  1.00  0.00    -0.053 A 
ATOM     71  H   UNL A   1      37.570  30.311  29.191  1.00  0.00     0.063 H 
ATOM     72  C   UNL A   1      41.176  31.022  30.159  1.00  0.00    -0.053 A 
ATOM     73  H   UNL A   1      40.453  32.799  30.960  1.00  0.00     0.063 H 
ATOM     74  C   UNL A   1      40.753  29.718  30.012  1.00  0.00    -0.014 A 
ATOM     75  H   UNL A   1      39.125  28.440  29.534  1.00  0.00     0.063 H 
ATOM     76  H   UNL A   1      42.172  31.278  30.078  1.00  0.00     0.063 H 
BRANCH  74  77
ATOM     77  C   UNL A   1      41.802  28.733  30.174  1.00  0.00     0.031 A 
ATOM     78  C   UNL A   1      42.093  28.423  31.587  1.00  0.00     0.074 A 
ATOM     79  C   UNL A   1      42.202  27.954  29.142  1.00  0.00     0.049 A 
ATOM     80  N   UNL A   1      43.145  28.752  32.255  1.00  0.00    -0.248 NA
ATOM     81  C   UNL A   1      41.011  27.862  32.413  1.00  0.00    -0.034 C 
ATOM     82  C   UNL A   1      41.692  27.914  27.763  1.00  0.00    -0.036 A 
ATOM     83  N   UNL A   1      43.085  26.919  29.156  1.00  0.00    -0.354 N 
ATOM     84  C   UNL A   1      42.955  28.227  33.527  1.00  0.00     0.074 A 
ATOM     85  C   UNL A   1      41.550  27.943  33.631  1.00  0.00    -0.034 C 
ATOM     86  H   UNL A   1      40.088  27.502  32.127  1.00  0.00     0.065 H 
ATOM     87  C   UNL A   1      42.102  26.776  27.157  1.00  0.00    -0.036 A 
ATOM     88  H   UNL A   1      41.109  28.645  27.324  1.00  0.00     0.065 H 
ATOM     89  C   UNL A   1      43.012  26.078  28.044  1.00  0.00     0.049 A 
ATOM     90  H   UNL A   1      43.724  26.773  29.892  1.00  0.00     0.167 HD
ATOM     91  C   UNL A   1      44.015  27.787  34.260  1.00  0.00     0.037 A 
ATOM     92  H   UNL A   1      41.033  27.822  34.517  1.00  0.00     0.065 H 
ATOM     93  H   UNL A   1      41.814  26.457  26.219  1.00  0.00     0.065 H 
ATOM     94  C   UNL A   1      43.615  24.865  27.941  1.00  0.00     0.037 A 
ATOM     95  C   UNL A   1      45.257  28.250  33.680  1.00  0.00     0.049 A 
ATOM     96  C   UNL A   1      44.689  24.830  28.979  1.00  0.00     0.074 A 
ATOM     97  C   UNL A   1      45.760  29.498  33.357  1.00  0.00    -0.036 A 
ATOM     98  N   UNL A   1      45.994  27.353  32.942  1.00  0.00    -0.354 N 
ATOM     99  N   UNL A   1      45.751  25.590  28.941  1.00  0.00    -0.248 NA
ATOM    100  C   UNL A   1      44.311  24.353  30.304  1.00  0.00    -0.034 C 
ATOM    101  C   UNL A   1      46.378  29.321  32.082  1.00  0.00    -0.036 A 
ATOM    102  H   UNL A   1      45.702  30.364  33.914  1.00  0.00     0.065 H 
ATOM    103  C   UNL A   1      46.318  27.966  31.757  1.00  0.00     0.049 A 
ATOM    104  H   UNL A   1      46.242  26.440  33.212  1.00  0.00     0.167 HD
ATOM    105  C   UNL A   1      45.910  26.040  30.245  1.00  0.00     0.074 A 
ATOM    106  C   UNL A   1      45.023  25.204  31.051  1.00  0.00    -0.034 C 
ATOM    107  H   UNL A   1      43.681  23.585  30.584  1.00  0.00     0.065 H 
ATOM    108  H   UNL A   1      46.797  30.065  31.502  1.00  0.00     0.065 H 
ATOM    109  C   UNL A   1      46.493  27.248  30.516  1.00  0.00     0.037 A 
ATOM    110  H   UNL A   1      44.954  25.262  32.079  1.00  0.00     0.065 H 
BRANCH  91 111
ATOM    111  C   UNL A   1      43.973  26.629  35.231  1.00  0.00     0.064 A 
ATOM    112  C   UNL A   1      44.456  26.837  36.539  1.00  0.00     0.173 A 
ATOM    113  C   UNL A   1      43.765  25.278  34.874  1.00  0.00     0.173 A 
ATOM    114  F   UNL A   1      44.687  28.078  36.992  1.00  0.00    -0.203 F 
ATOM    115  C   UNL A   1      44.807  25.776  37.376  1.00  0.00     0.198 A 
ATOM    116  C   UNL A   1      44.064  24.223  35.733  1.00  0.00     0.198 A 
ATOM    117  F   UNL A   1      43.373  24.903  33.652  1.00  0.00    -0.203 F 
ATOM    118  F   UNL A   1      45.394  26.026  38.554  1.00  0.00    -0.200 F 
ATOM    119  C   UNL A   1      44.621  24.469  36.968  1.00  0.00     0.200 A 
ATOM    120  F   UNL A   1      43.884  22.963  35.312  1.00  0.00    -0.200 F 
ATOM    121  F   UNL A   1      45.018  23.449  37.739  1.00  0.00    -0.200 F 
ENDBRANCH  91 111
BRANCH  94 122
ATOM    122  C   UNL A   1      43.109  23.642  27.263  1.00  0.00     0.064 A 
ATOM    123  C   UNL A   1      43.805  23.053  26.194  1.00  0.00     0.173 A 
ATOM    124  C   UNL A   1      42.070  22.872  27.824  1.00  0.00     0.173 A 
ATOM    125  F   UNL A   1      44.843  23.690  25.632  1.00  0.00    -0.203 F 
ATOM    126  C   UNL A   1      43.491  21.768  25.728  1.00  0.00     0.198 A 
ATOM    127  C   UNL A   1      41.753  21.595  27.355  1.00  0.00     0.198 A 
ATOM    128  F   UNL A   1      41.402  23.301  28.905  1.00  0.00    -0.203 F 
ATOM    129  F   UNL A   1      44.215  21.217  24.742  1.00  0.00    -0.200 F 
ATOM    130  C   UNL A   1      42.471  21.038  26.315  1.00  0.00     0.200 A 
ATOM    131  F   UNL A   1      40.791  20.886  27.962  1.00  0.00    -0.200 F 
ATOM    132  F   UNL A   1      42.208  19.788  25.909  1.00  0.00    -0.200 F 
ENDBRANCH  94 122
BRANCH 109 133
ATOM    133  C   UNL A   1      47.173  27.991  29.399  1.00  0.00     0.064 A 
ATOM    134  C   UNL A   1      46.540  28.934  28.570  1.00  0.00     0.173 A 
ATOM    135  C   UNL A   1      48.564  27.870  29.282  1.00  0.00     0.173 A 
ATOM    136  F   UNL A   1      45.233  29.194  28.692  1.00  0.00    -0.203 F 
ATOM    137  C   UNL A   1      47.260  29.681  27.637  1.00  0.00     0.198 A 
ATOM    138  C   UNL A   1      49.287  28.645  28.379  1.00  0.00     0.198 A 
ATOM    139  F   UNL A   1      49.234  27.031  30.087  1.00  0.00    -0.203 F 
ATOM    140  F   UNL A   1      46.628  30.566  26.852  1.00  0.00    -0.200 F 
ATOM    141  C   UNL A   1      48.635  29.542  27.550  1.00  0.00     0.200 A 
ATOM    142  F   UNL A   1      50.623  28.544  28.339  1.00  0.00    -0.200 F 
ATOM    143  F   UNL A   1      49.335  30.290  26.686  1.00  0.00    -0.200 F 
ENDBRANCH 109 133
ENDBRANCH  74  77
ENDBRANCH  64  67
ENDBRANCH  60  63
ENDBRANCH  57  60
ENDBRANCH  54  57
ENDBRANCH  51  54
ENDBRANCH   1  51
TORSDOF 18
ENDMDL
MODEL 6
REMARK VINA RESULT:     -13.2      1.433      2.373
REMARK SMILES O=C1NC(=O)/C(=C/c2ccc(OCc3cn(-c4ccc(C(=O)NCCCCCCNC(=O)c5ccc(-c6c7nc(c(-c8c(F)c(F)c(F)c(F)c8F)c8ccc([nH]8)c(-c8c(F)c(F)c(F)c(F)c8F)c8nc(c(-c9c(F)c(F)c(F)c(F)c9F)c9ccc6[nH]9)C=C8)C=C7)cc5)cc4)nn3)cc2)S1
REMARK SMILES IDX 25 1 24 4 23 7 21 8 22 9 20 11 17 12 18 13 97 14 19 15 96 17
REMARK SMILES IDX 16 21 14 22 15 23 99 24 98 26 13 27 12 30 11 31 8 32 9 33
REMARK SMILES IDX 101 34 10 35 100 37 7 41 1 42 2 43 3 44 102 45 4 46 6 48
REMARK SMILES IDX 5 49 26 51 27 54 28 57 29 60 30 63 31 64 32 66 33 67 34 68
REMARK SMILES IDX 95 69 35 70 94 72 36 74 37 77 38 78 88 79 39 80 93 81 87 82
REMARK SMILES IDX 89 83 40 84 92 85 86 87 85 89 41 91 73 94 53 95 72 96 54 97
REMARK SMILES IDX 57 98 71 99 90 100 55 101 56 103 70 105 91 106 58 109 42 111
REMARK SMILES IDX 43 112 51 113 44 114 45 115 49 116 52 117 46 118 47 119
REMARK SMILES IDX 50 120 48 121 74 122 75 123 83 124 76 125 77 126 81 127
REMARK SMILES IDX 84 128 78 129 79 130 82 131 80 132 59 133 60 134 68 135
REMARK SMILES IDX 61 136 62 137 66 138 69 139 63 140 64 141 67 142 65 143
REMARK H PARENT 25 2 25 3 24 5 24 6 23 10 18 16 97 18 19 19 96 20 15 25 13 28
REMARK H PARENT 13 29 9 36 101 38 10 39 100 40 3 47 7 50 26 52 26 53 27 55
REMARK H PARENT 27 56 28 58 28 59 29 61 29 62 30 65 34 71 95 73 35 75 94 76
REMARK H PARENT 93 86 87 88 89 90 92 92 86 93 54 102 57 104 90 107 55 108
REMARK H PARENT 91 110
REMARK Flexibility Score: inf
ROOT
ATOM      1  C   UNL A   1      35.877  34.733  33.432  1.00  0.00    -0.036 C 
ATOM      2  H   UNL A   1      35.030  35.129  33.953  1.00  0.00     0.028 H 
ATOM      3  H   UNL A   1      36.597  35.495  33.219  1.00  0.00     0.028 H 
ENDROOT
BRANCH   1   4
ATOM      4  C   UNL A   1      35.405  34.153  32.097  1.00  0.00     0.018 C 
ATOM      5  H   UNL A   1      35.227  33.104  32.207  1.00  0.00     0.049 H 
ATOM      6  H   UNL A   1      34.501  34.639  31.797  1.00  0.00     0.049 H 
BRANCH   4   7
ATOM      7  N   UNL A   1      36.424  34.366  31.091  1.00  0.00    -0.352 N 
ATOM      8  C   UNL A   1      36.639  33.826  29.851  1.00  0.00     0.251 C 
ATOM      9  O   UNL A   1      37.657  34.170  29.253  1.00  0.00    -0.269 OA
ATOM     10  H   UNL A   1      37.099  35.034  31.350  1.00  0.00     0.163 HD
BRANCH   8  11
ATOM     11  C   UNL A   1      35.662  32.930  29.173  1.00  0.00     0.039 A 
ATOM     12  C   UNL A   1      34.075  31.199  27.650  1.00  0.00     0.066 A 
ATOM     13  C   UNL A   1      35.295  30.749  28.167  1.00  0.00    -0.036 A 
ATOM     14  C   UNL A   1      33.605  32.475  27.959  1.00  0.00    -0.036 A 
ATOM     15  C   UNL A   1      36.099  31.627  28.890  1.00  0.00    -0.047 A 
ATOM     16  H   UNL A   1      35.597  29.775  28.011  1.00  0.00     0.065 H 
ATOM     17  C   UNL A   1      34.369  33.299  28.786  1.00  0.00    -0.047 A 
ATOM     18  H   UNL A   1      32.703  32.804  27.582  1.00  0.00     0.065 H 
ATOM     19  H   UNL A   1      37.026  31.316  29.222  1.00  0.00     0.063 H 
ATOM     20  H   UNL A   1      33.976  34.194  29.118  1.00  0.00     0.063 H 
BRANCH  12  21
ATOM     21  N   UNL A   1      33.309  30.339  26.845  1.00  0.00    -0.220 N 
ATOM     22  C   UNL A   1      32.505  28.675  25.690  1.00  0.00     0.120 A 
ATOM     23  C   UNL A   1      33.531  29.013  26.548  1.00  0.00     0.058 A 
ATOM     24  N   UNL A   1      31.696  29.770  25.533  1.00  0.00    -0.131 NA
ATOM     25  H   UNL A   1      34.293  28.408  26.891  1.00  0.00     0.086 H 
ATOM     26  N   UNL A   1      32.169  30.759  26.265  1.00  0.00    -0.062 NA
BRANCH  22  27
ATOM     27  C   UNL A   1      32.128  27.369  25.071  1.00  0.00     0.134 C 
ATOM     28  H   UNL A   1      32.145  26.624  25.839  1.00  0.00     0.078 H 
ATOM     29  H   UNL A   1      31.162  27.520  24.635  1.00  0.00     0.078 H 
BRANCH  27  30
ATOM     30  O   UNL A   1      32.976  26.919  23.999  1.00  0.00    -0.487 OA
BRANCH  30  31
ATOM     31  C   UNL A   1      33.698  25.770  24.173  1.00  0.00     0.119 A 
ATOM     32  C   UNL A   1      34.844  23.207  24.342  1.00  0.00    -0.024 A 
ATOM     33  C   UNL A   1      34.435  23.713  23.106  1.00  0.00    -0.051 A 
ATOM     34  C   UNL A   1      34.771  24.029  25.468  1.00  0.00    -0.051 A 
ATOM     35  C   UNL A   1      33.856  24.987  23.028  1.00  0.00    -0.019 A 
ATOM     36  H   UNL A   1      34.558  23.149  22.251  1.00  0.00     0.063 H 
ATOM     37  C   UNL A   1      34.236  25.314  25.374  1.00  0.00    -0.019 A 
ATOM     38  H   UNL A   1      35.115  23.683  26.377  1.00  0.00     0.063 H 
ATOM     39  H   UNL A   1      33.543  25.350  22.113  1.00  0.00     0.066 H 
ATOM     40  H   UNL A   1      34.239  25.933  26.201  1.00  0.00     0.066 H 
BRANCH  32  41
ATOM     41  C   UNL A   1      35.366  21.844  24.463  1.00  0.00    -0.035 C 
ATOM     42  O   UNL A   1      32.018  18.179  25.345  1.00  0.00    -0.261 OA
ATOM     43  C   UNL A   1      32.997  18.895  25.144  1.00  0.00     0.290 C 
ATOM     44  N   UNL A   1      34.284  18.485  25.140  1.00  0.00    -0.282 N 
ATOM     45  S   UNL A   1      32.912  20.611  24.812  1.00  0.00    -0.022 SA
ATOM     46  C   UNL A   1      35.253  19.414  24.891  1.00  0.00     0.265 C 
ATOM     47  H   UNL A   1      34.516  17.544  25.314  1.00  0.00     0.174 HD
ATOM     48  C   UNL A   1      34.628  20.747  24.687  1.00  0.00     0.083 C 
ATOM     49  O   UNL A   1      36.447  19.179  24.856  1.00  0.00    -0.268 OA
ATOM     50  H   UNL A   1      36.387  21.718  24.368  1.00  0.00     0.064 H 
ENDBRANCH  32  41
ENDBRANCH  30  31
ENDBRANCH  27  30
ENDBRANCH  22  27
ENDBRANCH  12  21
ENDBRANCH   8  11
ENDBRANCH   4   7
ENDBRANCH   1   4
BRANCH   1  51
ATOM     51  C   UNL A   1      36.556  33.684  34.321  1.00  0.00    -0.052 C 
ATOM     52  H   UNL A   1      36.661  32.784  33.752  1.00  0.00     0.027 H 
ATOM     53  H   UNL A   1      35.931  33.572  35.182  1.00  0.00     0.027 H 
BRANCH  51  54
ATOM     54  C   UNL A   1      37.947  34.081  34.847  1.00  0.00    -0.052 C 
ATOM     55  H   UNL A   1      38.414  33.200  35.235  1.00  0.00     0.027 H 
ATOM     56  H   UNL A   1      37.771  34.842  35.579  1.00  0.00     0.027 H 
BRANCH  54  57
ATOM     57  C   UNL A   1      38.903  34.707  33.819  1.00  0.00    -0.036 C 
ATOM     58  H   UNL A   1      39.759  35.087  34.337  1.00  0.00     0.028 H 
ATOM     59  H   UNL A   1      38.365  35.481  33.314  1.00  0.00     0.028 H 
BRANCH  57  60
ATOM     60  C   UNL A   1      39.373  33.721  32.765  1.00  0.00     0.018 C 
ATOM     61  H   UNL A   1      38.564  33.065  32.519  1.00  0.00     0.049 H 
ATOM     62  H   UNL A   1      40.201  33.175  33.167  1.00  0.00     0.049 H 
BRANCH  60  63
ATOM     63  N   UNL A   1      39.825  34.399  31.542  1.00  0.00    -0.352 N 
ATOM     64  C   UNL A   1      40.782  34.018  30.619  1.00  0.00     0.251 C 
ATOM     65  H   UNL A   1      39.377  35.254  31.349  1.00  0.00     0.163 HD
ATOM     66  O   UNL A   1      41.309  34.838  29.877  1.00  0.00    -0.269 OA
BRANCH  64  67
ATOM     67  C   UNL A   1      41.140  32.595  30.524  1.00  0.00     0.039 A 
ATOM     68  C   UNL A   1      40.218  31.579  30.250  1.00  0.00    -0.049 A 
ATOM     69  C   UNL A   1      42.482  32.299  30.689  1.00  0.00    -0.049 A 
ATOM     70  C   UNL A   1      40.690  30.271  30.155  1.00  0.00    -0.053 A 
ATOM     71  H   UNL A   1      39.216  31.792  30.120  1.00  0.00     0.063 H 
ATOM     72  C   UNL A   1      42.956  31.123  30.212  1.00  0.00    -0.053 A 
ATOM     73  H   UNL A   1      43.111  32.962  31.166  1.00  0.00     0.063 H 
ATOM     74  C   UNL A   1      42.074  30.064  30.164  1.00  0.00    -0.014 A 
ATOM     75  H   UNL A   1      40.035  29.476  30.080  1.00  0.00     0.063 H 
ATOM     76  H   UNL A   1      43.934  31.023  29.899  1.00  0.00     0.063 H 
BRANCH  74  77
ATOM     77  C   UNL A   1      42.711  28.767  30.070  1.00  0.00     0.031 A 
ATOM     78  C   UNL A   1      43.137  28.234  31.379  1.00  0.00     0.074 A 
ATOM     79  C   UNL A   1      42.598  28.006  28.956  1.00  0.00     0.049 A 
ATOM     80  N   UNL A   1      44.344  28.110  31.812  1.00  0.00    -0.248 NA
ATOM     81  C   UNL A   1      42.105  28.000  32.404  1.00  0.00    -0.034 C 
ATOM     82  C   UNL A   1      41.853  28.285  27.719  1.00  0.00    -0.036 A 
ATOM     83  N   UNL A   1      43.036  26.734  28.752  1.00  0.00    -0.354 N 
ATOM     84  C   UNL A   1      44.226  27.557  33.081  1.00  0.00     0.074 A 
ATOM     85  C   UNL A   1      42.861  27.766  33.479  1.00  0.00    -0.034 C 
ATOM     86  H   UNL A   1      41.078  28.011  32.314  1.00  0.00     0.065 H 
ATOM     87  C   UNL A   1      41.703  27.143  27.009  1.00  0.00    -0.036 A 
ATOM     88  H   UNL A   1      41.498  29.212  27.436  1.00  0.00     0.065 H 
ATOM     89  C   UNL A   1      42.454  26.088  27.661  1.00  0.00     0.049 A 
ATOM     90  H   UNL A   1      43.709  26.303  29.329  1.00  0.00     0.167 HD
ATOM     91  C   UNL A   1      45.177  26.707  33.557  1.00  0.00     0.037 A 
ATOM     92  H   UNL A   1      42.516  27.742  34.451  1.00  0.00     0.065 H 
ATOM     93  H   UNL A   1      41.145  27.039  26.147  1.00  0.00     0.065 H 
ATOM     94  C   UNL A   1      42.551  24.758  27.398  1.00  0.00     0.037 A 
ATOM     95  C   UNL A   1      46.366  26.769  32.735  1.00  0.00     0.049 A 
ATOM     96  C   UNL A   1      43.717  24.249  28.179  1.00  0.00     0.074 A 
ATOM     97  C   UNL A   1      47.211  27.792  32.344  1.00  0.00    -0.036 A 
ATOM     98  N   UNL A   1      46.576  25.752  31.832  1.00  0.00    -0.354 N 
ATOM     99  N   UNL A   1      44.953  24.596  27.933  1.00  0.00    -0.248 NA
ATOM    100  C   UNL A   1      43.456  23.801  29.542  1.00  0.00    -0.034 C 
ATOM    101  C   UNL A   1      47.468  27.543  30.961  1.00  0.00    -0.036 A 
ATOM    102  H   UNL A   1      47.577  28.564  32.924  1.00  0.00     0.065 H 
ATOM    103  C   UNL A   1      46.864  26.332  30.622  1.00  0.00     0.049 A 
ATOM    104  H   UNL A   1      46.527  24.787  32.019  1.00  0.00     0.167 HD
ATOM    105  C   UNL A   1      45.511  24.829  29.183  1.00  0.00     0.074 A 
ATOM    106  C   UNL A   1      44.555  24.273  30.139  1.00  0.00    -0.034 C 
ATOM    107  H   UNL A   1      42.659  23.273  29.930  1.00  0.00     0.065 H 
ATOM    108  H   UNL A   1      48.006  28.151  30.325  1.00  0.00     0.065 H 
ATOM    109  C   UNL A   1      46.528  25.727  29.354  1.00  0.00     0.037 A 
ATOM    110  H   UNL A   1      44.710  24.248  31.160  1.00  0.00     0.065 H 
BRANCH  91 111
ATOM    111  C   UNL A   1      44.910  25.542  34.484  1.00  0.00     0.064 A 
ATOM    112  C   UNL A   1      45.572  25.513  35.727  1.00  0.00     0.173 A 
ATOM    113  C   UNL A   1      44.284  24.332  34.106  1.00  0.00     0.173 A 
ATOM    114  F   UNL A   1      46.199  26.604  36.193  1.00  0.00    -0.203 F 
ATOM    115  C   UNL A   1      45.692  24.341  36.476  1.00  0.00     0.198 A 
ATOM    116  C   UNL A   1      44.359  23.179  34.884  1.00  0.00     0.198 A 
ATOM    117  F   UNL A   1      43.671  24.169  32.931  1.00  0.00    -0.203 F 
ATOM    118  F   UNL A   1      46.451  24.333  37.580  1.00  0.00    -0.200 F 
ATOM    119  C   UNL A   1      45.094  23.171  36.047  1.00  0.00     0.200 A 
ATOM    120  F   UNL A   1      43.780  22.053  34.444  1.00  0.00    -0.200 F 
ATOM    121  F   UNL A   1      45.263  22.029  36.726  1.00  0.00    -0.200 F 
ENDBRANCH  91 111
BRANCH  94 122
ATOM    122  C   UNL A   1      41.519  23.860  26.814  1.00  0.00     0.064 A 
ATOM    123  C   UNL A   1      41.837  22.563  26.374  1.00  0.00     0.173 A 
ATOM    124  C   UNL A   1      40.145  24.157  26.920  1.00  0.00     0.173 A 
ATOM    125  F   UNL A   1      43.118  22.175  26.292  1.00  0.00    -0.203 F 
ATOM    126  C   UNL A   1      40.843  21.621  26.076  1.00  0.00     0.198 A 
ATOM    127  C   UNL A   1      39.156  23.220  26.617  1.00  0.00     0.198 A 
ATOM    128  F   UNL A   1      39.733  25.333  27.415  1.00  0.00    -0.203 F 
ATOM    129  F   UNL A   1      41.187  20.376  25.714  1.00  0.00    -0.200 F 
ATOM    130  C   UNL A   1      39.504  21.948  26.206  1.00  0.00     0.200 A 
ATOM    131  F   UNL A   1      37.865  23.540  26.789  1.00  0.00    -0.200 F 
ATOM    132  F   UNL A   1      38.553  21.030  25.979  1.00  0.00    -0.200 F 
ENDBRANCH  94 122
BRANCH 109 133
ATOM    133  C   UNL A   1      47.202  26.300  28.137  1.00  0.00     0.064 A 
ATOM    134  C   UNL A   1      48.232  25.662  27.424  1.00  0.00     0.173 A 
ATOM    135  C   UNL A   1      46.658  27.461  27.572  1.00  0.00     0.173 A 
ATOM    136  F   UNL A   1      48.732  24.490  27.833  1.00  0.00    -0.203 F 
ATOM    137  C   UNL A   1      48.723  26.189  26.229  1.00  0.00     0.198 A 
ATOM    138  C   UNL A   1      47.122  27.964  26.359  1.00  0.00     0.198 A 
ATOM    139  F   UNL A   1      45.632  28.083  28.173  1.00  0.00    -0.203 F 
ATOM    140  F   UNL A   1      49.714  25.564  25.576  1.00  0.00    -0.200 F 
ATOM    141  C   UNL A   1      48.162  27.336  25.694  1.00  0.00     0.200 A 
ATOM    142  F   UNL A   1      46.536  29.043  25.820  1.00  0.00    -0.200 F 
ATOM    143  F   UNL A   1      48.602  27.820  24.525  1.00  0.00    -0.200 F 
ENDBRANCH 109 133
ENDBRANCH  74  77
ENDBRANCH  64  67
ENDBRANCH  60  63
ENDBRANCH  57  60
ENDBRANCH  54  57
ENDBRANCH  51  54
ENDBRANCH   1  51
TORSDOF 18
ENDMDL
MODEL 7
REMARK VINA RESULT:     -13.2      5.751     12.961
REMARK SMILES O=C1NC(=O)/C(=C/c2ccc(OCc3cn(-c4ccc(C(=O)NCCCCCCNC(=O)c5ccc(-c6c7nc(c(-c8c(F)c(F)c(F)c(F)c8F)c8ccc([nH]8)c(-c8c(F)c(F)c(F)c(F)c8F)c8nc(c(-c9c(F)c(F)c(F)c(F)c9F)c9ccc6[nH]9)C=C8)C=C7)cc5)cc4)nn3)cc2)S1
REMARK SMILES IDX 25 1 24 4 23 7 21 8 22 9 20 11 17 12 18 13 97 14 19 15 96 17
REMARK SMILES IDX 16 21 14 22 15 23 99 24 98 26 13 27 12 30 11 31 8 32 9 33
REMARK SMILES IDX 101 34 10 35 100 37 7 41 1 42 2 43 3 44 102 45 4 46 6 48
REMARK SMILES IDX 5 49 26 51 27 54 28 57 29 60 30 63 31 64 32 66 33 67 34 68
REMARK SMILES IDX 95 69 35 70 94 72 36 74 37 77 38 78 88 79 39 80 93 81 87 82
REMARK SMILES IDX 89 83 40 84 92 85 86 87 85 89 41 91 73 94 53 95 72 96 54 97
REMARK SMILES IDX 57 98 71 99 90 100 55 101 56 103 70 105 91 106 58 109 42 111
REMARK SMILES IDX 43 112 51 113 44 114 45 115 49 116 52 117 46 118 47 119
REMARK SMILES IDX 50 120 48 121 74 122 75 123 83 124 76 125 77 126 81 127
REMARK SMILES IDX 84 128 78 129 79 130 82 131 80 132 59 133 60 134 68 135
REMARK SMILES IDX 61 136 62 137 66 138 69 139 63 140 64 141 67 142 65 143
REMARK H PARENT 25 2 25 3 24 5 24 6 23 10 18 16 97 18 19 19 96 20 15 25 13 28
REMARK H PARENT 13 29 9 36 101 38 10 39 100 40 3 47 7 50 26 52 26 53 27 55
REMARK H PARENT 27 56 28 58 28 59 29 61 29 62 30 65 34 71 95 73 35 75 94 76
REMARK H PARENT 93 86 87 88 89 90 92 92 86 93 54 102 57 104 90 107 55 108
REMARK H PARENT 91 110
REMARK Flexibility Score: inf
ROOT
ATOM      1  C   UNL A   1      46.935  24.479  25.102  1.00  0.00    -0.036 C 
ATOM      2  H   UNL A   1      47.984  24.415  25.301  1.00  0.00     0.028 H 
ATOM      3  H   UNL A   1      46.685  24.030  24.164  1.00  0.00     0.028 H 
ENDROOT
BRANCH   1   4
ATOM      4  C   UNL A   1      46.537  25.956  25.031  1.00  0.00     0.018 C 
ATOM      5  H   UNL A   1      46.369  26.231  24.011  1.00  0.00     0.049 H 
ATOM      6  H   UNL A   1      45.642  26.111  25.595  1.00  0.00     0.049 H 
BRANCH   4   7
ATOM      7  N   UNL A   1      47.601  26.769  25.579  1.00  0.00    -0.352 N 
ATOM      8  C   UNL A   1      47.874  27.220  26.843  1.00  0.00     0.251 C 
ATOM      9  O   UNL A   1      48.842  27.968  26.980  1.00  0.00    -0.269 OA
ATOM     10  H   UNL A   1      48.264  27.054  24.909  1.00  0.00     0.163 HD
BRANCH   8  11
ATOM     11  C   UNL A   1      47.119  26.776  28.047  1.00  0.00     0.039 A 
ATOM     12  C   UNL A   1      45.861  25.628  30.268  1.00  0.00     0.066 A 
ATOM     13  C   UNL A   1      47.256  25.720  30.231  1.00  0.00    -0.036 A 
ATOM     14  C   UNL A   1      45.090  26.181  29.246  1.00  0.00    -0.036 A 
ATOM     15  C   UNL A   1      47.879  26.256  29.106  1.00  0.00    -0.047 A 
ATOM     16  H   UNL A   1      47.820  25.392  31.031  1.00  0.00     0.065 H 
ATOM     17  C   UNL A   1      45.728  26.822  28.183  1.00  0.00    -0.047 A 
ATOM     18  H   UNL A   1      44.060  26.117  29.276  1.00  0.00     0.065 H 
ATOM     19  H   UNL A   1      48.910  26.272  29.050  1.00  0.00     0.063 H 
ATOM     20  H   UNL A   1      45.165  27.337  27.487  1.00  0.00     0.063 H 
BRANCH  12  21
ATOM     21  N   UNL A   1      45.241  25.005  31.364  1.00  0.00    -0.220 N 
ATOM     22  C   UNL A   1      44.552  24.382  33.335  1.00  0.00     0.120 A 
ATOM     23  C   UNL A   1      45.306  25.344  32.697  1.00  0.00     0.058 A 
ATOM     24  N   UNL A   1      44.036  23.538  32.385  1.00  0.00    -0.131 NA
ATOM     25  H   UNL A   1      45.807  26.140  33.123  1.00  0.00     0.086 H 
ATOM     26  N   UNL A   1      44.427  23.947  31.194  1.00  0.00    -0.062 NA
BRANCH  22  27
ATOM     27  C   UNL A   1      44.160  24.227  34.768  1.00  0.00     0.134 C 
ATOM     28  H   UNL A   1      44.755  24.903  35.347  1.00  0.00     0.078 H 
ATOM     29  H   UNL A   1      43.110  24.430  34.808  1.00  0.00     0.078 H 
BRANCH  27  30
ATOM     30  O   UNL A   1      44.325  22.908  35.320  1.00  0.00    -0.487 OA
BRANCH  30  31
ATOM     31  C   UNL A   1      45.589  22.389  35.409  1.00  0.00     0.119 A 
ATOM     32  C   UNL A   1      47.988  20.956  35.721  1.00  0.00    -0.024 A 
ATOM     33  C   UNL A   1      46.980  20.466  34.887  1.00  0.00    -0.051 A 
ATOM     34  C   UNL A   1      47.828  22.211  36.311  1.00  0.00    -0.051 A 
ATOM     35  C   UNL A   1      45.783  21.178  34.742  1.00  0.00    -0.019 A 
ATOM     36  H   UNL A   1      47.118  19.578  34.379  1.00  0.00     0.063 H 
ATOM     37  C   UNL A   1      46.650  22.937  36.124  1.00  0.00    -0.019 A 
ATOM     38  H   UNL A   1      48.586  22.605  36.890  1.00  0.00     0.063 H 
ATOM     39  H   UNL A   1      45.037  20.803  34.135  1.00  0.00     0.066 H 
ATOM     40  H   UNL A   1      46.566  23.887  36.519  1.00  0.00     0.066 H 
BRANCH  32  41
ATOM     41  C   UNL A   1      49.210  20.186  35.961  1.00  0.00    -0.035 C 
ATOM     42  O   UNL A   1      52.859  20.545  32.500  1.00  0.00    -0.261 OA
ATOM     43  C   UNL A   1      52.119  20.301  33.451  1.00  0.00     0.290 C 
ATOM     44  N   UNL A   1      52.377  19.422  34.443  1.00  0.00    -0.282 N 
ATOM     45  S   UNL A   1      50.566  21.063  33.712  1.00  0.00    -0.022 SA
ATOM     46  C   UNL A   1      51.446  19.278  35.432  1.00  0.00     0.265 C 
ATOM     47  H   UNL A   1      53.211  18.898  34.452  1.00  0.00     0.174 HD
ATOM     48  C   UNL A   1      50.284  20.164  35.158  1.00  0.00     0.083 C 
ATOM     49  O   UNL A   1      51.553  18.525  36.382  1.00  0.00    -0.268 OA
ATOM     50  H   UNL A   1      49.248  19.611  36.818  1.00  0.00     0.064 H 
ENDBRANCH  32  41
ENDBRANCH  30  31
ENDBRANCH  27  30
ENDBRANCH  22  27
ENDBRANCH  12  21
ENDBRANCH   8  11
ENDBRANCH   4   7
ENDBRANCH   1   4
BRANCH   1  51
ATOM     51  C   UNL A   1      46.179  23.720  26.200  1.00  0.00    -0.052 C 
ATOM     52  H   UNL A   1      45.396  24.353  26.563  1.00  0.00     0.027 H 
ATOM     53  H   UNL A   1      46.904  23.471  26.946  1.00  0.00     0.027 H 
BRANCH  51  54
ATOM     54  C   UNL A   1      45.547  22.390  25.752  1.00  0.00    -0.052 C 
ATOM     55  H   UNL A   1      44.961  22.016  26.565  1.00  0.00     0.027 H 
ATOM     56  H   UNL A   1      46.367  21.760  25.477  1.00  0.00     0.027 H 
BRANCH  54  57
ATOM     57  C   UNL A   1      44.642  22.457  24.511  1.00  0.00    -0.036 C 
ATOM     58  H   UNL A   1      44.315  21.466  24.274  1.00  0.00     0.028 H 
ATOM     59  H   UNL A   1      45.218  22.889  23.720  1.00  0.00     0.028 H 
BRANCH  57  60
ATOM     60  C   UNL A   1      43.420  23.335  24.712  1.00  0.00     0.018 C 
ATOM     61  H   UNL A   1      43.160  23.786  23.776  1.00  0.00     0.049 H 
ATOM     62  H   UNL A   1      43.662  24.078  25.443  1.00  0.00     0.049 H 
BRANCH  60  63
ATOM     63  N   UNL A   1      42.268  22.567  25.206  1.00  0.00    -0.352 N 
ATOM     64  C   UNL A   1      41.431  22.815  26.278  1.00  0.00     0.251 C 
ATOM     65  H   UNL A   1      42.059  21.752  24.694  1.00  0.00     0.163 HD
ATOM     66  O   UNL A   1      40.770  21.918  26.787  1.00  0.00    -0.269 OA
BRANCH  64  67
ATOM     67  C   UNL A   1      41.327  24.192  26.785  1.00  0.00     0.039 A 
ATOM     68  C   UNL A   1      40.485  25.162  26.231  1.00  0.00    -0.049 A 
ATOM     69  C   UNL A   1      42.101  24.486  27.894  1.00  0.00    -0.049 A 
ATOM     70  C   UNL A   1      40.454  26.423  26.824  1.00  0.00    -0.053 A 
ATOM     71  H   UNL A   1      39.900  24.949  25.407  1.00  0.00     0.063 H 
ATOM     72  C   UNL A   1      41.765  25.549  28.664  1.00  0.00    -0.053 A 
ATOM     73  H   UNL A   1      42.919  23.904  28.132  1.00  0.00     0.063 H 
ATOM     74  C   UNL A   1      41.129  26.600  28.037  1.00  0.00    -0.014 A 
ATOM     75  H   UNL A   1      39.947  27.205  26.379  1.00  0.00     0.063 H 
ATOM     76  H   UNL A   1      41.976  25.572  29.673  1.00  0.00     0.063 H 
BRANCH  74  77
ATOM     77  C   UNL A   1      41.184  27.848  28.771  1.00  0.00     0.031 A 
ATOM     78  C   UNL A   1      42.248  28.753  28.295  1.00  0.00     0.074 A 
ATOM     79  C   UNL A   1      40.155  28.251  29.551  1.00  0.00     0.049 A 
ATOM     80  N   UNL A   1      43.341  29.058  28.906  1.00  0.00    -0.248 NA
ATOM     81  C   UNL A   1      42.194  29.217  26.899  1.00  0.00    -0.034 C 
ATOM     82  C   UNL A   1      38.861  27.593  29.787  1.00  0.00    -0.036 A 
ATOM     83  N   UNL A   1      40.005  29.432  30.210  1.00  0.00    -0.354 N 
ATOM     84  C   UNL A   1      44.000  29.944  28.064  1.00  0.00     0.074 A 
ATOM     85  C   UNL A   1      43.394  29.787  26.771  1.00  0.00    -0.034 C 
ATOM     86  H   UNL A   1      41.433  29.127  26.207  1.00  0.00     0.065 H 
ATOM     87  C   UNL A   1      37.992  28.475  30.333  1.00  0.00    -0.036 A 
ATOM     88  H   UNL A   1      38.649  26.606  29.569  1.00  0.00     0.065 H 
ATOM     89  C   UNL A   1      38.698  29.709  30.615  1.00  0.00     0.049 A 
ATOM     90  H   UNL A   1      40.757  30.044  30.385  1.00  0.00     0.167 HD
ATOM     91  C   UNL A   1      44.772  30.943  28.576  1.00  0.00     0.037 A 
ATOM     92  H   UNL A   1      43.822  30.070  25.876  1.00  0.00     0.065 H 
ATOM     93  H   UNL A   1      36.993  28.298  30.517  1.00  0.00     0.065 H 
ATOM     94  C   UNL A   1      38.260  30.911  31.073  1.00  0.00     0.037 A 
ATOM     95  C   UNL A   1      45.032  30.709  29.980  1.00  0.00     0.049 A 
ATOM     96  C   UNL A   1      39.472  31.681  31.485  1.00  0.00     0.074 A 
ATOM     97  C   UNL A   1      45.588  29.662  30.693  1.00  0.00    -0.036 A 
ATOM     98  N   UNL A   1      44.306  31.435  30.897  1.00  0.00    -0.354 N 
ATOM     99  N   UNL A   1      40.230  31.342  32.494  1.00  0.00    -0.248 NA
ATOM    100  C   UNL A   1      40.124  32.487  30.459  1.00  0.00    -0.034 C 
ATOM    101  C   UNL A   1      44.749  29.518  31.841  1.00  0.00    -0.036 A 
ATOM    102  H   UNL A   1      46.424  29.108  30.451  1.00  0.00     0.065 H 
ATOM    103  C   UNL A   1      43.810  30.549  31.820  1.00  0.00     0.049 A 
ATOM    104  H   UNL A   1      44.167  32.409  30.891  1.00  0.00     0.167 HD
ATOM    105  C   UNL A   1      41.529  31.506  32.031  1.00  0.00     0.074 A 
ATOM    106  C   UNL A   1      41.401  32.262  30.787  1.00  0.00    -0.034 C 
ATOM    107  H   UNL A   1      39.720  33.061  29.703  1.00  0.00     0.065 H 
ATOM    108  H   UNL A   1      44.826  28.781  32.559  1.00  0.00     0.065 H 
ATOM    109  C   UNL A   1      42.559  30.748  32.515  1.00  0.00     0.037 A 
ATOM    110  H   UNL A   1      42.204  32.586  30.225  1.00  0.00     0.065 H 
BRANCH  91 111
ATOM    111  C   UNL A   1      44.946  32.308  27.951  1.00  0.00     0.064 A 
ATOM    112  C   UNL A   1      46.202  32.636  27.403  1.00  0.00     0.173 A 
ATOM    113  C   UNL A   1      44.059  33.396  28.118  1.00  0.00     0.173 A 
ATOM    114  F   UNL A   1      47.125  31.686  27.194  1.00  0.00    -0.203 F 
ATOM    115  C   UNL A   1      46.578  33.957  27.150  1.00  0.00     0.198 A 
ATOM    116  C   UNL A   1      44.418  34.706  27.812  1.00  0.00     0.198 A 
ATOM    117  F   UNL A   1      42.855  33.269  28.683  1.00  0.00    -0.203 F 
ATOM    118  F   UNL A   1      47.832  34.228  26.765  1.00  0.00    -0.200 F 
ATOM    119  C   UNL A   1      45.689  34.993  27.366  1.00  0.00     0.200 A 
ATOM    120  F   UNL A   1      43.543  35.696  28.037  1.00  0.00    -0.200 F 
ATOM    121  F   UNL A   1      46.066  36.265  27.189  1.00  0.00    -0.200 F 
ENDBRANCH  91 111
BRANCH  94 122
ATOM    122  C   UNL A   1      36.936  31.550  30.854  1.00  0.00     0.064 A 
ATOM    123  C   UNL A   1      36.059  31.811  31.921  1.00  0.00     0.173 A 
ATOM    124  C   UNL A   1      36.614  32.163  29.626  1.00  0.00     0.173 A 
ATOM    125  F   UNL A   1      36.315  31.312  33.140  1.00  0.00    -0.203 F 
ATOM    126  C   UNL A   1      34.941  32.644  31.771  1.00  0.00     0.198 A 
ATOM    127  C   UNL A   1      35.496  32.988  29.476  1.00  0.00     0.198 A 
ATOM    128  F   UNL A   1      37.430  32.054  28.568  1.00  0.00    -0.203 F 
ATOM    129  F   UNL A   1      34.161  32.913  32.828  1.00  0.00    -0.200 F 
ATOM    130  C   UNL A   1      34.667  33.238  30.551  1.00  0.00     0.200 A 
ATOM    131  F   UNL A   1      35.269  33.588  28.299  1.00  0.00    -0.200 F 
ATOM    132  F   UNL A   1      33.633  34.081  30.422  1.00  0.00    -0.200 F 
ENDBRANCH  94 122
BRANCH 109 133
ATOM    133  C   UNL A   1      42.319  29.887  33.725  1.00  0.00     0.064 A 
ATOM    134  C   UNL A   1      41.820  28.572  33.680  1.00  0.00     0.173 A 
ATOM    135  C   UNL A   1      42.778  30.353  34.964  1.00  0.00     0.173 A 
ATOM    136  F   UNL A   1      41.464  28.008  32.521  1.00  0.00    -0.203 F 
ATOM    137  C   UNL A   1      41.743  27.785  34.830  1.00  0.00     0.198 A 
ATOM    138  C   UNL A   1      42.738  29.552  36.103  1.00  0.00     0.198 A 
ATOM    139  F   UNL A   1      43.321  31.577  35.061  1.00  0.00    -0.203 F 
ATOM    140  F   UNL A   1      41.254  26.538  34.758  1.00  0.00    -0.200 F 
ATOM    141  C   UNL A   1      42.210  28.273  36.038  1.00  0.00     0.200 A 
ATOM    142  F   UNL A   1      43.243  30.012  37.256  1.00  0.00    -0.200 F 
ATOM    143  F   UNL A   1      42.178  27.504  37.135  1.00  0.00    -0.200 F 
ENDBRANCH 109 133
ENDBRANCH  74  77
ENDBRANCH  64  67
ENDBRANCH  60  63
ENDBRANCH  57  60
ENDBRANCH  54  57
ENDBRANCH  51  54
ENDBRANCH   1  51
TORSDOF 18
ENDMDL
MODEL 8
REMARK VINA RESULT:     -13.2      2.398      3.195
REMARK SMILES O=C1NC(=O)/C(=C/c2ccc(OCc3cn(-c4ccc(C(=O)NCCCCCCNC(=O)c5ccc(-c6c7nc(c(-c8c(F)c(F)c(F)c(F)c8F)c8ccc([nH]8)c(-c8c(F)c(F)c(F)c(F)c8F)c8nc(c(-c9c(F)c(F)c(F)c(F)c9F)c9ccc6[nH]9)C=C8)C=C7)cc5)cc4)nn3)cc2)S1
REMARK SMILES IDX 25 1 24 4 23 7 21 8 22 9 20 11 17 12 18 13 97 14 19 15 96 17
REMARK SMILES IDX 16 21 14 22 15 23 99 24 98 26 13 27 12 30 11 31 8 32 9 33
REMARK SMILES IDX 101 34 10 35 100 37 7 41 1 42 2 43 3 44 102 45 4 46 6 48
REMARK SMILES IDX 5 49 26 51 27 54 28 57 29 60 30 63 31 64 32 66 33 67 34 68
REMARK SMILES IDX 95 69 35 70 94 72 36 74 37 77 38 78 88 79 39 80 93 81 87 82
REMARK SMILES IDX 89 83 40 84 92 85 86 87 85 89 41 91 73 94 53 95 72 96 54 97
REMARK SMILES IDX 57 98 71 99 90 100 55 101 56 103 70 105 91 106 58 109 42 111
REMARK SMILES IDX 43 112 51 113 44 114 45 115 49 116 52 117 46 118 47 119
REMARK SMILES IDX 50 120 48 121 74 122 75 123 83 124 76 125 77 126 81 127
REMARK SMILES IDX 84 128 78 129 79 130 82 131 80 132 59 133 60 134 68 135
REMARK SMILES IDX 61 136 62 137 66 138 69 139 63 140 64 141 67 142 65 143
REMARK H PARENT 25 2 25 3 24 5 24 6 23 10 18 16 97 18 19 19 96 20 15 25 13 28
REMARK H PARENT 13 29 9 36 101 38 10 39 100 40 3 47 7 50 26 52 26 53 27 55
REMARK H PARENT 27 56 28 58 28 59 29 61 29 62 30 65 34 71 95 73 35 75 94 76
REMARK H PARENT 93 86 87 88 89 90 92 92 86 93 54 102 57 104 90 107 55 108
REMARK H PARENT 91 110
REMARK Flexibility Score: inf
ROOT
ATOM      1  C   UNL A   1      34.831  32.329  31.440  1.00  0.00    -0.036 C 
ATOM      2  H   UNL A   1      35.885  32.151  31.401  1.00  0.00     0.028 H 
ATOM      3  H   UNL A   1      34.279  31.412  31.460  1.00  0.00     0.028 H 
ENDROOT
BRANCH   1   4
ATOM      4  C   UNL A   1      34.414  33.096  30.183  1.00  0.00     0.018 C 
ATOM      5  H   UNL A   1      33.468  32.733  29.841  1.00  0.00     0.049 H 
ATOM      6  H   UNL A   1      34.336  34.138  30.411  1.00  0.00     0.049 H 
BRANCH   4   7
ATOM      7  N   UNL A   1      35.408  32.902  29.148  1.00  0.00    -0.352 N 
ATOM      8  C   UNL A   1      35.538  31.984  28.141  1.00  0.00     0.251 C 
ATOM      9  O   UNL A   1      36.555  32.042  27.450  1.00  0.00    -0.269 OA
ATOM     10  H   UNL A   1      36.136  33.563  29.173  1.00  0.00     0.163 HD
BRANCH   8  11
ATOM     11  C   UNL A   1      34.477  30.998  27.794  1.00  0.00     0.039 A 
ATOM     12  C   UNL A   1      32.703  29.033  26.889  1.00  0.00     0.066 A 
ATOM     13  C   UNL A   1      33.963  28.662  27.369  1.00  0.00    -0.036 A 
ATOM     14  C   UNL A   1      32.292  30.364  26.938  1.00  0.00    -0.036 A 
ATOM     15  C   UNL A   1      34.857  29.648  27.780  1.00  0.00    -0.047 A 
ATOM     16  H   UNL A   1      34.229  27.666  27.415  1.00  0.00     0.065 H 
ATOM     17  C   UNL A   1      33.157  31.324  27.467  1.00  0.00    -0.047 A 
ATOM     18  H   UNL A   1      31.360  30.636  26.588  1.00  0.00     0.065 H 
ATOM     19  H   UNL A   1      35.809  29.382  28.079  1.00  0.00     0.063 H 
ATOM     20  H   UNL A   1      32.818  32.287  27.618  1.00  0.00     0.063 H 
BRANCH  12  21
ATOM     21  N   UNL A   1      31.838  28.044  26.390  1.00  0.00    -0.220 N 
ATOM     22  C   UNL A   1      30.523  26.790  25.186  1.00  0.00     0.120 A 
ATOM     23  C   UNL A   1      31.356  27.887  25.110  1.00  0.00     0.058 A 
ATOM     24  N   UNL A   1      30.561  26.309  26.469  1.00  0.00    -0.131 NA
ATOM     25  H   UNL A   1      31.569  28.461  24.280  1.00  0.00     0.086 H 
ATOM     26  N   UNL A   1      31.388  27.050  27.179  1.00  0.00    -0.062 NA
BRANCH  22  27
ATOM     27  C   UNL A   1      29.760  26.056  24.132  1.00  0.00     0.134 C 
ATOM     28  H   UNL A   1      29.350  25.174  24.578  1.00  0.00     0.078 H 
ATOM     29  H   UNL A   1      29.022  26.743  23.774  1.00  0.00     0.078 H 
BRANCH  27  30
ATOM     30  O   UNL A   1      30.520  25.657  22.977  1.00  0.00    -0.487 OA
BRANCH  30  31
ATOM     31  C   UNL A   1      31.505  24.720  23.133  1.00  0.00     0.119 A 
ATOM     32  C   UNL A   1      33.479  22.863  23.881  1.00  0.00    -0.024 A 
ATOM     33  C   UNL A   1      32.181  22.747  24.383  1.00  0.00    -0.051 A 
ATOM     34  C   UNL A   1      33.753  23.846  22.929  1.00  0.00    -0.051 A 
ATOM     35  C   UNL A   1      31.202  23.680  24.015  1.00  0.00    -0.019 A 
ATOM     36  H   UNL A   1      31.943  21.976  25.026  1.00  0.00     0.063 H 
ATOM     37  C   UNL A   1      32.760  24.743  22.532  1.00  0.00    -0.019 A 
ATOM     38  H   UNL A   1      34.696  23.910  22.515  1.00  0.00     0.063 H 
ATOM     39  H   UNL A   1      30.248  23.597  24.400  1.00  0.00     0.066 H 
ATOM     40  H   UNL A   1      32.957  25.429  21.786  1.00  0.00     0.066 H 
BRANCH  32  41
ATOM     41  C   UNL A   1      34.541  21.956  24.322  1.00  0.00    -0.035 C 
ATOM     42  O   UNL A   1      38.547  24.041  26.565  1.00  0.00    -0.261 OA
ATOM     43  C   UNL A   1      37.691  23.326  26.047  1.00  0.00     0.290 C 
ATOM     44  N   UNL A   1      37.792  21.993  25.855  1.00  0.00    -0.282 N 
ATOM     45  S   UNL A   1      36.150  23.904  25.454  1.00  0.00    -0.022 SA
ATOM     46  C   UNL A   1      36.741  21.347  25.270  1.00  0.00     0.265 C 
ATOM     47  H   UNL A   1      38.600  21.501  26.128  1.00  0.00     0.174 HD
ATOM     48  C   UNL A   1      35.671  22.327  24.942  1.00  0.00     0.083 C 
ATOM     49  O   UNL A   1      36.699  20.153  25.042  1.00  0.00    -0.268 OA
ATOM     50  H   UNL A   1      34.410  20.948  24.141  1.00  0.00     0.064 H 
ENDBRANCH  32  41
ENDBRANCH  30  31
ENDBRANCH  27  30
ENDBRANCH  22  27
ENDBRANCH  12  21
ENDBRANCH   8  11
ENDBRANCH   4   7
ENDBRANCH   1   4
BRANCH   1  51
ATOM     51  C   UNL A   1      34.509  33.096  32.729  1.00  0.00    -0.052 C 
ATOM     52  H   UNL A   1      33.739  32.565  33.249  1.00  0.00     0.027 H 
ATOM     53  H   UNL A   1      34.216  34.080  32.427  1.00  0.00     0.027 H 
BRANCH  51  54
ATOM     54  C   UNL A   1      35.697  33.277  33.691  1.00  0.00    -0.052 C 
ATOM     55  H   UNL A   1      35.409  32.887  34.644  1.00  0.00     0.027 H 
ATOM     56  H   UNL A   1      35.909  34.326  33.693  1.00  0.00     0.027 H 
BRANCH  54  57
ATOM     57  C   UNL A   1      37.009  32.590  33.278  1.00  0.00    -0.036 C 
ATOM     58  H   UNL A   1      36.797  31.892  32.496  1.00  0.00     0.028 H 
ATOM     59  H   UNL A   1      37.404  32.109  34.148  1.00  0.00     0.028 H 
BRANCH  57  60
ATOM     60  C   UNL A   1      38.062  33.565  32.783  1.00  0.00     0.018 C 
ATOM     61  H   UNL A   1      39.029  33.120  32.899  1.00  0.00     0.049 H 
ATOM     62  H   UNL A   1      37.980  34.463  33.360  1.00  0.00     0.049 H 
BRANCH  60  63
ATOM     63  N   UNL A   1      37.866  33.913  31.369  1.00  0.00    -0.352 N 
ATOM     64  C   UNL A   1      38.570  33.507  30.249  1.00  0.00     0.251 C 
ATOM     65  H   UNL A   1      37.118  34.528  31.190  1.00  0.00     0.163 HD
ATOM     66  O   UNL A   1      38.537  34.155  29.210  1.00  0.00    -0.269 OA
BRANCH  64  67
ATOM     67  C   UNL A   1      39.344  32.258  30.321  1.00  0.00     0.039 A 
ATOM     68  C   UNL A   1      38.805  30.995  30.057  1.00  0.00    -0.049 A 
ATOM     69  C   UNL A   1      40.683  32.398  30.639  1.00  0.00    -0.049 A 
ATOM     70  C   UNL A   1      39.652  29.890  30.128  1.00  0.00    -0.053 A 
ATOM     71  H   UNL A   1      37.808  30.883  29.814  1.00  0.00     0.063 H 
ATOM     72  C   UNL A   1      41.539  31.397  30.319  1.00  0.00    -0.053 A 
ATOM     73  H   UNL A   1      41.025  33.249  31.110  1.00  0.00     0.063 H 
ATOM     74  C   UNL A   1      41.024  30.118  30.286  1.00  0.00    -0.014 A 
ATOM     75  H   UNL A   1      39.278  28.930  30.066  1.00  0.00     0.063 H 
ATOM     76  H   UNL A   1      42.533  31.583  30.110  1.00  0.00     0.063 H 
BRANCH  74  77
ATOM     77  C   UNL A   1      42.025  29.075  30.374  1.00  0.00     0.031 A 
ATOM     78  C   UNL A   1      42.331  28.679  31.762  1.00  0.00     0.074 A 
ATOM     79  C   UNL A   1      42.360  28.329  29.295  1.00  0.00     0.049 A 
ATOM     80  N   UNL A   1      43.413  28.920  32.419  1.00  0.00    -0.248 NA
ATOM     81  C   UNL A   1      41.240  28.132  32.586  1.00  0.00    -0.034 C 
ATOM     82  C   UNL A   1      41.818  28.385  27.929  1.00  0.00    -0.036 A 
ATOM     83  N   UNL A   1      43.189  27.251  29.235  1.00  0.00    -0.354 N 
ATOM     84  C   UNL A   1      43.224  28.341  33.667  1.00  0.00     0.074 A 
ATOM     85  C   UNL A   1      41.809  28.124  33.793  1.00  0.00    -0.034 C 
ATOM     86  H   UNL A   1      40.292  27.834  32.305  1.00  0.00     0.065 H 
ATOM     87  C   UNL A   1      42.155  27.260  27.257  1.00  0.00    -0.036 A 
ATOM     88  H   UNL A   1      41.264  29.165  27.541  1.00  0.00     0.065 H 
ATOM     89  C   UNL A   1      43.047  26.473  28.085  1.00  0.00     0.049 A 
ATOM     90  H   UNL A   1      43.835  27.037  29.947  1.00  0.00     0.167 HD
ATOM     91  C   UNL A   1      44.276  27.812  34.352  1.00  0.00     0.037 A 
ATOM     92  H   UNL A   1      41.307  27.985  34.684  1.00  0.00     0.065 H 
ATOM     93  H   UNL A   1      41.830  27.004  26.312  1.00  0.00     0.065 H 
ATOM     94  C   UNL A   1      43.585  25.238  27.907  1.00  0.00     0.037 A 
ATOM     95  C   UNL A   1      45.527  28.240  33.765  1.00  0.00     0.049 A 
ATOM     96  C   UNL A   1      44.678  25.095  28.916  1.00  0.00     0.074 A 
ATOM     97  C   UNL A   1      46.087  29.475  33.491  1.00  0.00    -0.036 A 
ATOM     98  N   UNL A   1      46.200  27.345  32.965  1.00  0.00    -0.354 N 
ATOM     99  N   UNL A   1      45.777  25.802  28.889  1.00  0.00    -0.248 NA
ATOM    100  C   UNL A   1      44.306  24.572  30.225  1.00  0.00    -0.034 C 
ATOM    101  C   UNL A   1      46.666  29.332  32.194  1.00  0.00    -0.036 A 
ATOM    102  H   UNL A   1      46.086  30.314  34.092  1.00  0.00     0.065 H 
ATOM    103  C   UNL A   1      46.528  28.000  31.804  1.00  0.00     0.049 A 
ATOM    104  H   UNL A   1      46.406  26.408  33.184  1.00  0.00     0.167 HD
ATOM    105  C   UNL A   1      45.988  26.177  30.209  1.00  0.00     0.074 A 
ATOM    106  C   UNL A   1      45.077  25.347  30.994  1.00  0.00    -0.034 C 
ATOM    107  H   UNL A   1      43.643  23.824  30.481  1.00  0.00     0.065 H 
ATOM    108  H   UNL A   1      47.110  30.083  31.642  1.00  0.00     0.065 H 
ATOM    109  C   UNL A   1      46.638  27.338  30.525  1.00  0.00     0.037 A 
ATOM    110  H   UNL A   1      45.034  25.357  32.026  1.00  0.00     0.065 H 
BRANCH  91 111
ATOM    111  C   UNL A   1      44.196  26.609  35.265  1.00  0.00     0.064 A 
ATOM    112  C   UNL A   1      44.759  26.711  36.553  1.00  0.00     0.173 A 
ATOM    113  C   UNL A   1      43.868  25.298  34.853  1.00  0.00     0.173 A 
ATOM    114  F   UNL A   1      45.107  27.906  37.054  1.00  0.00    -0.203 F 
ATOM    115  C   UNL A   1      45.071  25.584  37.316  1.00  0.00     0.198 A 
ATOM    116  C   UNL A   1      44.129  24.180  35.641  1.00  0.00     0.198 A 
ATOM    117  F   UNL A   1      43.387  25.019  33.638  1.00  0.00    -0.203 F 
ATOM    118  F   UNL A   1      45.735  25.728  38.470  1.00  0.00    -0.200 F 
ATOM    119  C   UNL A   1      44.765  24.318  36.854  1.00  0.00     0.200 A 
ATOM    120  F   UNL A   1      43.832  22.961  35.169  1.00  0.00    -0.200 F 
ATOM    121  F   UNL A   1      45.123  23.232  37.551  1.00  0.00    -0.200 F 
ENDBRANCH  91 111
BRANCH  94 122
ATOM    122  C   UNL A   1      43.001  24.078  27.183  1.00  0.00     0.064 A 
ATOM    123  C   UNL A   1      43.696  23.434  26.145  1.00  0.00     0.173 A 
ATOM    124  C   UNL A   1      41.861  23.408  27.673  1.00  0.00     0.173 A 
ATOM    125  F   UNL A   1      44.822  23.972  25.653  1.00  0.00    -0.203 F 
ATOM    126  C   UNL A   1      43.285  22.192  25.641  1.00  0.00     0.198 A 
ATOM    127  C   UNL A   1      41.448  22.174  27.165  1.00  0.00     0.198 A 
ATOM    128  F   UNL A   1      41.178  23.890  28.721  1.00  0.00    -0.203 F 
ATOM    129  F   UNL A   1      44.007  21.582  24.689  1.00  0.00    -0.200 F 
ATOM    130  C   UNL A   1      42.166  21.560  26.158  1.00  0.00     0.200 A 
ATOM    131  F   UNL A   1      40.388  21.557  27.707  1.00  0.00    -0.200 F 
ATOM    132  F   UNL A   1      41.806  20.346  25.719  1.00  0.00    -0.200 F 
ENDBRANCH  94 122
BRANCH 109 133
ATOM    133  C   UNL A   1      47.331  28.102  29.430  1.00  0.00     0.064 A 
ATOM    134  C   UNL A   1      46.731  29.120  28.667  1.00  0.00     0.173 A 
ATOM    135  C   UNL A   1      48.710  27.912  29.268  1.00  0.00     0.173 A 
ATOM    136  F   UNL A   1      45.444  29.444  28.839  1.00  0.00    -0.203 F 
ATOM    137  C   UNL A   1      47.469  29.875  27.756  1.00  0.00     0.198 A 
ATOM    138  C   UNL A   1      49.453  28.694  28.387  1.00  0.00     0.198 A 
ATOM    139  F   UNL A   1      49.352  26.997  30.010  1.00  0.00    -0.203 F 
ATOM    140  F   UNL A   1      46.868  30.834  27.035  1.00  0.00    -0.200 F 
ATOM    141  C   UNL A   1      48.831  29.667  27.623  1.00  0.00     0.200 A 
ATOM    142  F   UNL A   1      50.780  28.523  28.305  1.00  0.00    -0.200 F 
ATOM    143  F   UNL A   1      49.550  30.421  26.780  1.00  0.00    -0.200 F 
ENDBRANCH 109 133
ENDBRANCH  74  77
ENDBRANCH  64  67
ENDBRANCH  60  63
ENDBRANCH  57  60
ENDBRANCH  54  57
ENDBRANCH  51  54
ENDBRANCH   1  51
TORSDOF 18
ENDMDL
MODEL 9
REMARK VINA RESULT:     -13.0      1.958      2.824
REMARK SMILES O=C1NC(=O)/C(=C/c2ccc(OCc3cn(-c4ccc(C(=O)NCCCCCCNC(=O)c5ccc(-c6c7nc(c(-c8c(F)c(F)c(F)c(F)c8F)c8ccc([nH]8)c(-c8c(F)c(F)c(F)c(F)c8F)c8nc(c(-c9c(F)c(F)c(F)c(F)c9F)c9ccc6[nH]9)C=C8)C=C7)cc5)cc4)nn3)cc2)S1
REMARK SMILES IDX 25 1 24 4 23 7 21 8 22 9 20 11 17 12 18 13 97 14 19 15 96 17
REMARK SMILES IDX 16 21 14 22 15 23 99 24 98 26 13 27 12 30 11 31 8 32 9 33
REMARK SMILES IDX 101 34 10 35 100 37 7 41 1 42 2 43 3 44 102 45 4 46 6 48
REMARK SMILES IDX 5 49 26 51 27 54 28 57 29 60 30 63 31 64 32 66 33 67 34 68
REMARK SMILES IDX 95 69 35 70 94 72 36 74 37 77 38 78 88 79 39 80 93 81 87 82
REMARK SMILES IDX 89 83 40 84 92 85 86 87 85 89 41 91 73 94 53 95 72 96 54 97
REMARK SMILES IDX 57 98 71 99 90 100 55 101 56 103 70 105 91 106 58 109 42 111
REMARK SMILES IDX 43 112 51 113 44 114 45 115 49 116 52 117 46 118 47 119
REMARK SMILES IDX 50 120 48 121 74 122 75 123 83 124 76 125 77 126 81 127
REMARK SMILES IDX 84 128 78 129 79 130 82 131 80 132 59 133 60 134 68 135
REMARK SMILES IDX 61 136 62 137 66 138 69 139 63 140 64 141 67 142 65 143
REMARK H PARENT 25 2 25 3 24 5 24 6 23 10 18 16 97 18 19 19 96 20 15 25 13 28
REMARK H PARENT 13 29 9 36 101 38 10 39 100 40 3 47 7 50 26 52 26 53 27 55
REMARK H PARENT 27 56 28 58 28 59 29 61 29 62 30 65 34 71 95 73 35 75 94 76
REMARK H PARENT 93 86 87 88 89 90 92 92 86 93 54 102 57 104 90 107 55 108
REMARK H PARENT 91 110
REMARK Flexibility Score: inf
ROOT
ATOM      1  C   UNL A   1      36.033  35.113  32.824  1.00  0.00    -0.036 C 
ATOM      2  H   UNL A   1      36.377  36.067  33.167  1.00  0.00     0.028 H 
ATOM      3  H   UNL A   1      36.275  34.957  31.793  1.00  0.00     0.028 H 
ENDROOT
BRANCH   1   4
ATOM      4  C   UNL A   1      34.509  35.065  32.956  1.00  0.00     0.018 C 
ATOM      5  H   UNL A   1      34.163  34.078  32.735  1.00  0.00     0.049 H 
ATOM      6  H   UNL A   1      34.230  35.326  33.956  1.00  0.00     0.049 H 
BRANCH   4   7
ATOM      7  N   UNL A   1      33.914  36.004  32.029  1.00  0.00    -0.352 N 
ATOM      8  C   UNL A   1      33.657  35.952  30.685  1.00  0.00     0.251 C 
ATOM      9  O   UNL A   1      33.194  36.963  30.158  1.00  0.00    -0.269 OA
ATOM     10  H   UNL A   1      33.637  36.850  32.449  1.00  0.00     0.163 HD
BRANCH   8  11
ATOM     11  C   UNL A   1      33.825  34.716  29.871  1.00  0.00     0.039 A 
ATOM     12  C   UNL A   1      33.785  32.373  28.341  1.00  0.00     0.066 A 
ATOM     13  C   UNL A   1      33.160  33.528  27.858  1.00  0.00    -0.036 A 
ATOM     14  C   UNL A   1      34.500  32.405  29.538  1.00  0.00    -0.036 A 
ATOM     15  C   UNL A   1      33.148  34.680  28.642  1.00  0.00    -0.047 A 
ATOM     16  H   UNL A   1      32.710  33.526  26.930  1.00  0.00     0.065 H 
ATOM     17  C   UNL A   1      34.579  33.602  30.251  1.00  0.00    -0.047 A 
ATOM     18  H   UNL A   1      34.964  31.554  29.890  1.00  0.00     0.065 H 
ATOM     19  H   UNL A   1      32.638  35.516  28.315  1.00  0.00     0.063 H 
ATOM     20  H   UNL A   1      35.203  33.665  31.071  1.00  0.00     0.063 H 
BRANCH  12  21
ATOM     21  N   UNL A   1      33.716  31.189  27.589  1.00  0.00    -0.220 N 
ATOM     22  C   UNL A   1      33.106  29.453  26.420  1.00  0.00     0.120 A 
ATOM     23  C   UNL A   1      32.622  30.617  26.980  1.00  0.00     0.058 A 
ATOM     24  N   UNL A   1      34.453  29.383  26.669  1.00  0.00    -0.131 NA
ATOM     25  H   UNL A   1      31.656  30.979  26.948  1.00  0.00     0.086 H 
ATOM     26  N   UNL A   1      34.819  30.455  27.343  1.00  0.00    -0.062 NA
BRANCH  22  27
ATOM     27  C   UNL A   1      32.449  28.426  25.558  1.00  0.00     0.134 C 
ATOM     28  H   UNL A   1      32.200  27.589  26.176  1.00  0.00     0.078 H 
ATOM     29  H   UNL A   1      31.601  28.910  25.121  1.00  0.00     0.078 H 
BRANCH  27  30
ATOM     30  O   UNL A   1      33.236  27.942  24.454  1.00  0.00    -0.487 OA
BRANCH  30  31
ATOM     31  C   UNL A   1      33.570  26.615  24.420  1.00  0.00     0.119 A 
ATOM     32  C   UNL A   1      34.595  24.003  24.597  1.00  0.00    -0.024 A 
ATOM     33  C   UNL A   1      34.306  24.724  25.758  1.00  0.00    -0.051 A 
ATOM     34  C   UNL A   1      34.272  24.557  23.357  1.00  0.00    -0.051 A 
ATOM     35  C   UNL A   1      33.804  26.028  25.665  1.00  0.00    -0.019 A 
ATOM     36  H   UNL A   1      34.463  24.296  26.684  1.00  0.00     0.063 H 
ATOM     37  C   UNL A   1      33.728  25.840  23.275  1.00  0.00    -0.019 A 
ATOM     38  H   UNL A   1      34.436  24.014  22.496  1.00  0.00     0.063 H 
ATOM     39  H   UNL A   1      33.606  26.561  26.527  1.00  0.00     0.066 H 
ATOM     40  H   UNL A   1      33.440  26.217  22.358  1.00  0.00     0.066 H 
BRANCH  32  41
ATOM     41  C   UNL A   1      35.207  22.674  24.668  1.00  0.00    -0.035 C 
ATOM     42  O   UNL A   1      32.085  18.739  25.109  1.00  0.00    -0.261 OA
ATOM     43  C   UNL A   1      33.020  19.532  25.015  1.00  0.00     0.290 C 
ATOM     44  N   UNL A   1      34.331  19.211  25.068  1.00  0.00    -0.282 N 
ATOM     45  S   UNL A   1      32.832  21.256  24.784  1.00  0.00    -0.022 SA
ATOM     46  C   UNL A   1      35.244  20.218  24.938  1.00  0.00     0.265 C 
ATOM     47  H   UNL A   1      34.620  18.279  25.198  1.00  0.00     0.174 HD
ATOM     48  C   UNL A   1      34.538  21.517  24.777  1.00  0.00     0.083 C 
ATOM     49  O   UNL A   1      36.452  20.068  24.965  1.00  0.00    -0.268 OA
ATOM     50  H   UNL A   1      36.237  22.623  24.630  1.00  0.00     0.064 H 
ENDBRANCH  32  41
ENDBRANCH  30  31
ENDBRANCH  27  30
ENDBRANCH  22  27
ENDBRANCH  12  21
ENDBRANCH   8  11
ENDBRANCH   4   7
ENDBRANCH   1   4
BRANCH   1  51
ATOM     51  C   UNL A   1      36.728  34.016  33.639  1.00  0.00    -0.052 C 
ATOM     52  H   UNL A   1      36.582  34.230  34.677  1.00  0.00     0.027 H 
ATOM     53  H   UNL A   1      37.756  34.029  33.343  1.00  0.00     0.027 H 
BRANCH  51  54
ATOM     54  C   UNL A   1      36.220  32.588  33.371  1.00  0.00    -0.052 C 
ATOM     55  H   UNL A   1      35.719  32.590  32.426  1.00  0.00     0.027 H 
ATOM     56  H   UNL A   1      35.590  32.345  34.201  1.00  0.00     0.027 H 
BRANCH  54  57
ATOM     57  C   UNL A   1      37.294  31.487  33.330  1.00  0.00    -0.036 C 
ATOM     58  H   UNL A   1      36.816  30.553  33.123  1.00  0.00     0.028 H 
ATOM     59  H   UNL A   1      37.783  31.485  34.281  1.00  0.00     0.028 H 
BRANCH  57  60
ATOM     60  C   UNL A   1      38.358  31.731  32.275  1.00  0.00     0.018 C 
ATOM     61  H   UNL A   1      39.037  30.904  32.270  1.00  0.00     0.049 H 
ATOM     62  H   UNL A   1      38.863  32.643  32.518  1.00  0.00     0.049 H 
BRANCH  60  63
ATOM     63  N   UNL A   1      37.776  31.876  30.933  1.00  0.00    -0.352 N 
ATOM     64  C   UNL A   1      38.241  31.424  29.711  1.00  0.00     0.251 C 
ATOM     65  H   UNL A   1      36.924  32.369  30.898  1.00  0.00     0.163 HD
ATOM     66  O   UNL A   1      37.862  31.930  28.662  1.00  0.00    -0.269 OA
BRANCH  64  67
ATOM     67  C   UNL A   1      39.186  30.297  29.693  1.00  0.00     0.039 A 
ATOM     68  C   UNL A   1      38.796  28.956  29.766  1.00  0.00    -0.049 A 
ATOM     69  C   UNL A   1      40.522  30.633  29.559  1.00  0.00    -0.049 A 
ATOM     70  C   UNL A   1      39.787  27.978  29.706  1.00  0.00    -0.053 A 
ATOM     71  H   UNL A   1      37.801  28.697  29.860  1.00  0.00     0.063 H 
ATOM     72  C   UNL A   1      41.392  29.693  29.116  1.00  0.00    -0.053 A 
ATOM     73  H   UNL A   1      40.849  31.583  29.793  1.00  0.00     0.063 H 
ATOM     74  C   UNL A   1      41.093  28.378  29.402  1.00  0.00    -0.014 A 
ATOM     75  H   UNL A   1      39.564  26.985  29.882  1.00  0.00     0.063 H 
ATOM     76  H   UNL A   1      42.240  29.951  28.588  1.00  0.00     0.063 H 
BRANCH  74  77
ATOM     77  C   UNL A   1      42.225  27.480  29.303  1.00  0.00     0.031 A 
ATOM     78  C   UNL A   1      43.001  27.383  30.554  1.00  0.00     0.074 A 
ATOM     79  C   UNL A   1      42.327  26.586  28.291  1.00  0.00     0.049 A 
ATOM     80  N   UNL A   1      44.180  27.854  30.776  1.00  0.00    -0.248 NA
ATOM     81  C   UNL A   1      42.317  26.887  31.761  1.00  0.00    -0.034 C 
ATOM     82  C   UNL A   1      41.390  26.330  27.187  1.00  0.00    -0.036 A 
ATOM     83  N   UNL A   1      43.258  25.609  28.116  1.00  0.00    -0.354 N 
ATOM     84  C   UNL A   1      44.478  27.501  32.087  1.00  0.00     0.074 A 
ATOM     85  C   UNL A   1      43.222  27.164  32.701  1.00  0.00    -0.034 C 
ATOM     86  H   UNL A   1      41.389  26.445  31.852  1.00  0.00     0.065 H 
ATOM     87  C   UNL A   1      41.679  25.141  26.609  1.00  0.00    -0.036 A 
ATOM     88  H   UNL A   1      40.628  26.962  26.896  1.00  0.00     0.065 H 
ATOM     89  C   UNL A   1      42.896  24.620  27.200  1.00  0.00     0.049 A 
ATOM     90  H   UNL A   1      44.117  25.599  28.598  1.00  0.00     0.167 HD
ATOM     91  C   UNL A   1      45.759  27.221  32.455  1.00  0.00     0.037 A 
ATOM     92  H   UNL A   1      43.047  27.141  33.717  1.00  0.00     0.065 H 
ATOM     93  H   UNL A   1      41.125  24.682  25.870  1.00  0.00     0.065 H 
ATOM     94  C   UNL A   1      43.542  23.436  27.033  1.00  0.00     0.037 A 
ATOM     95  C   UNL A   1      46.684  27.661  31.433  1.00  0.00     0.049 A 
ATOM     96  C   UNL A   1      44.899  23.599  27.635  1.00  0.00     0.074 A 
ATOM     97  C   UNL A   1      46.929  28.876  30.818  1.00  0.00    -0.036 A 
ATOM     98  N   UNL A   1      47.213  26.709  30.593  1.00  0.00    -0.354 N 
ATOM     99  N   UNL A   1      45.810  24.399  27.147  1.00  0.00    -0.248 NA
ATOM    100  C   UNL A   1      45.035  23.292  29.054  1.00  0.00    -0.034 C 
ATOM    101  C   UNL A   1      47.098  28.556  29.436  1.00  0.00    -0.036 A 
ATOM    102  H   UNL A   1      46.980  29.807  31.260  1.00  0.00     0.065 H 
ATOM    103  C   UNL A   1      47.061  27.168  29.308  1.00  0.00     0.049 A 
ATOM    104  H   UNL A   1      47.623  25.855  30.862  1.00  0.00     0.167 HD
ATOM    105  C   UNL A   1      46.354  25.033  28.256  1.00  0.00     0.074 A 
ATOM    106  C   UNL A   1      45.872  24.272  29.407  1.00  0.00    -0.034 C 
ATOM    107  H   UNL A   1      44.611  22.539  29.618  1.00  0.00     0.065 H 
ATOM    108  H   UNL A   1      47.225  29.233  28.668  1.00  0.00     0.065 H 
ATOM    109  C   UNL A   1      46.877  26.294  28.172  1.00  0.00     0.037 A 
ATOM    110  H   UNL A   1      46.146  24.469  30.383  1.00  0.00     0.065 H 
BRANCH  91 111
ATOM    111  C   UNL A   1      46.155  26.208  33.504  1.00  0.00     0.064 A 
ATOM    112  C   UNL A   1      47.142  26.570  34.443  1.00  0.00     0.173 A 
ATOM    113  C   UNL A   1      45.842  24.830  33.461  1.00  0.00     0.173 A 
ATOM    114  F   UNL A   1      47.519  27.851  34.577  1.00  0.00    -0.203 F 
ATOM    115  C   UNL A   1      47.835  25.619  35.194  1.00  0.00     0.198 A 
ATOM    116  C   UNL A   1      46.497  23.890  34.253  1.00  0.00     0.198 A 
ATOM    117  F   UNL A   1      44.978  24.310  32.585  1.00  0.00    -0.203 F 
ATOM    118  F   UNL A   1      48.861  26.002  35.966  1.00  0.00    -0.200 F 
ATOM    119  C   UNL A   1      47.520  24.278  35.090  1.00  0.00     0.200 A 
ATOM    120  F   UNL A   1      46.181  22.594  34.129  1.00  0.00    -0.200 F 
ATOM    121  F   UNL A   1      48.226  23.356  35.756  1.00  0.00    -0.200 F 
ENDBRANCH  91 111
BRANCH  94 122
ATOM    122  C   UNL A   1      42.956  22.107  26.714  1.00  0.00     0.064 A 
ATOM    123  C   UNL A   1      43.484  21.296  25.694  1.00  0.00     0.173 A 
ATOM    124  C   UNL A   1      42.033  21.488  27.581  1.00  0.00     0.173 A 
ATOM    125  F   UNL A   1      44.408  21.786  24.854  1.00  0.00    -0.203 F 
ATOM    126  C   UNL A   1      43.122  19.948  25.562  1.00  0.00     0.198 A 
ATOM    127  C   UNL A   1      41.668  20.146  27.444  1.00  0.00     0.198 A 
ATOM    128  F   UNL A   1      41.538  22.143  28.640  1.00  0.00    -0.203 F 
ATOM    129  F   UNL A   1      43.690  19.193  24.610  1.00  0.00    -0.200 F 
ATOM    130  C   UNL A   1      42.221  19.373  26.442  1.00  0.00     0.200 A 
ATOM    131  F   UNL A   1      40.827  19.595  28.331  1.00  0.00    -0.200 F 
ATOM    132  F   UNL A   1      41.920  18.070  26.353  1.00  0.00    -0.200 F 
ENDBRANCH  94 122
BRANCH 109 133
ATOM    133  C   UNL A   1      47.069  26.909  26.813  1.00  0.00     0.064 A 
ATOM    134  C   UNL A   1      48.260  26.836  26.067  1.00  0.00     0.173 A 
ATOM    135  C   UNL A   1      45.945  27.444  26.169  1.00  0.00     0.173 A 
ATOM    136  F   UNL A   1      49.350  26.241  26.564  1.00  0.00    -0.203 F 
ATOM    137  C   UNL A   1      48.329  27.318  24.760  1.00  0.00     0.198 A 
ATOM    138  C   UNL A   1      46.005  27.887  24.851  1.00  0.00     0.198 A 
ATOM    139  F   UNL A   1      44.765  27.487  26.806  1.00  0.00    -0.203 F 
ATOM    140  F   UNL A   1      49.480  27.243  24.076  1.00  0.00    -0.200 F 
ATOM    141  C   UNL A   1      47.199  27.835  24.150  1.00  0.00     0.200 A 
ATOM    142  F   UNL A   1      44.894  28.335  24.250  1.00  0.00    -0.200 F 
ATOM    143  F   UNL A   1      47.251  28.258  22.880  1.00  0.00    -0.200 F 
ENDBRANCH 109 133
ENDBRANCH  74  77
ENDBRANCH  64  67
ENDBRANCH  60  63
ENDBRANCH  57  60
ENDBRANCH  54  57
ENDBRANCH  51  54
ENDBRANCH   1  51
TORSDOF 18
ENDMDL
MODEL 10
REMARK VINA RESULT:     -13.0      4.865     10.894
REMARK SMILES O=C1NC(=O)/C(=C/c2ccc(OCc3cn(-c4ccc(C(=O)NCCCCCCNC(=O)c5ccc(-c6c7nc(c(-c8c(F)c(F)c(F)c(F)c8F)c8ccc([nH]8)c(-c8c(F)c(F)c(F)c(F)c8F)c8nc(c(-c9c(F)c(F)c(F)c(F)c9F)c9ccc6[nH]9)C=C8)C=C7)cc5)cc4)nn3)cc2)S1
REMARK SMILES IDX 25 1 24 4 23 7 21 8 22 9 20 11 17 12 18 13 97 14 19 15 96 17
REMARK SMILES IDX 16 21 14 22 15 23 99 24 98 26 13 27 12 30 11 31 8 32 9 33
REMARK SMILES IDX 101 34 10 35 100 37 7 41 1 42 2 43 3 44 102 45 4 46 6 48
REMARK SMILES IDX 5 49 26 51 27 54 28 57 29 60 30 63 31 64 32 66 33 67 34 68
REMARK SMILES IDX 95 69 35 70 94 72 36 74 37 77 38 78 88 79 39 80 93 81 87 82
REMARK SMILES IDX 89 83 40 84 92 85 86 87 85 89 41 91 73 94 53 95 72 96 54 97
REMARK SMILES IDX 57 98 71 99 90 100 55 101 56 103 70 105 91 106 58 109 42 111
REMARK SMILES IDX 43 112 51 113 44 114 45 115 49 116 52 117 46 118 47 119
REMARK SMILES IDX 50 120 48 121 74 122 75 123 83 124 76 125 77 126 81 127
REMARK SMILES IDX 84 128 78 129 79 130 82 131 80 132 59 133 60 134 68 135
REMARK SMILES IDX 61 136 62 137 66 138 69 139 63 140 64 141 67 142 65 143
REMARK H PARENT 25 2 25 3 24 5 24 6 23 10 18 16 97 18 19 19 96 20 15 25 13 28
REMARK H PARENT 13 29 9 36 101 38 10 39 100 40 3 47 7 50 26 52 26 53 27 55
REMARK H PARENT 27 56 28 58 28 59 29 61 29 62 30 65 34 71 95 73 35 75 94 76
REMARK H PARENT 93 86 87 88 89 90 92 92 86 93 54 102 57 104 90 107 55 108
REMARK H PARENT 91 110
REMARK Flexibility Score: inf
ROOT
ATOM      1  C   UNL A   1      45.502  28.329  28.453  1.00  0.00    -0.036 C 
ATOM      2  H   UNL A   1      44.851  28.785  27.738  1.00  0.00     0.028 H 
ATOM      3  H   UNL A   1      45.601  28.929  29.333  1.00  0.00     0.028 H 
ENDROOT
BRANCH   1   4
ATOM      4  C   UNL A   1      46.893  28.187  27.829  1.00  0.00     0.018 C 
ATOM      5  H   UNL A   1      47.598  28.757  28.397  1.00  0.00     0.049 H 
ATOM      6  H   UNL A   1      47.181  27.157  27.833  1.00  0.00     0.049 H 
BRANCH   4   7
ATOM      7  N   UNL A   1      46.863  28.675  26.467  1.00  0.00    -0.352 N 
ATOM      8  C   UNL A   1      46.348  28.167  25.305  1.00  0.00     0.251 C 
ATOM      9  O   UNL A   1      46.549  28.804  24.271  1.00  0.00    -0.269 OA
ATOM     10  H   UNL A   1      47.301  29.550  26.353  1.00  0.00     0.163 HD
BRANCH   8  11
ATOM     11  C   UNL A   1      45.492  26.950  25.257  1.00  0.00     0.039 A 
ATOM     12  C   UNL A   1      43.739  24.779  25.469  1.00  0.00     0.066 A 
ATOM     13  C   UNL A   1      43.227  26.078  25.379  1.00  0.00    -0.036 A 
ATOM     14  C   UNL A   1      45.111  24.552  25.368  1.00  0.00    -0.036 A 
ATOM     15  C   UNL A   1      44.105  27.158  25.314  1.00  0.00    -0.047 A 
ATOM     16  H   UNL A   1      42.208  26.235  25.363  1.00  0.00     0.065 H 
ATOM     17  C   UNL A   1      45.968  25.637  25.181  1.00  0.00    -0.047 A 
ATOM     18  H   UNL A   1      45.487  23.593  25.429  1.00  0.00     0.065 H 
ATOM     19  H   UNL A   1      43.732  28.121  25.307  1.00  0.00     0.063 H 
ATOM     20  H   UNL A   1      46.968  25.469  24.985  1.00  0.00     0.063 H 
BRANCH  12  21
ATOM     21  N   UNL A   1      42.853  23.700  25.626  1.00  0.00    -0.220 N 
ATOM     22  C   UNL A   1      41.213  22.364  26.152  1.00  0.00     0.120 A 
ATOM     23  C   UNL A   1      41.630  23.675  26.256  1.00  0.00     0.058 A 
ATOM     24  N   UNL A   1      42.159  21.667  25.445  1.00  0.00    -0.131 NA
ATOM     25  H   UNL A   1      41.134  24.461  26.705  1.00  0.00     0.086 H 
ATOM     26  N   UNL A   1      43.127  22.492  25.098  1.00  0.00    -0.062 NA
BRANCH  22  27
ATOM     27  C   UNL A   1      39.940  21.698  26.559  1.00  0.00     0.134 C 
ATOM     28  H   UNL A   1      40.191  20.798  27.081  1.00  0.00     0.078 H 
ATOM     29  H   UNL A   1      39.414  22.413  27.157  1.00  0.00     0.078 H 
BRANCH  27  30
ATOM     30  O   UNL A   1      39.047  21.352  25.485  1.00  0.00    -0.487 OA
BRANCH  30  31
ATOM     31  C   UNL A   1      37.744  21.765  25.558  1.00  0.00     0.119 A 
ATOM     32  C   UNL A   1      35.178  22.784  26.091  1.00  0.00    -0.024 A 
ATOM     33  C   UNL A   1      36.286  23.635  26.093  1.00  0.00    -0.051 A 
ATOM     34  C   UNL A   1      35.349  21.449  25.721  1.00  0.00    -0.051 A 
ATOM     35  C   UNL A   1      37.564  23.121  25.836  1.00  0.00    -0.019 A 
ATOM     36  H   UNL A   1      36.163  24.641  26.285  1.00  0.00     0.063 H 
ATOM     37  C   UNL A   1      36.620  20.955  25.420  1.00  0.00    -0.019 A 
ATOM     38  H   UNL A   1      34.531  20.823  25.669  1.00  0.00     0.063 H 
ATOM     39  H   UNL A   1      38.380  23.753  25.853  1.00  0.00     0.066 H 
ATOM     40  H   UNL A   1      36.727  19.982  25.093  1.00  0.00     0.066 H 
BRANCH  32  41
ATOM     41  C   UNL A   1      33.846  23.279  26.448  1.00  0.00    -0.035 C 
ATOM     42  O   UNL A   1      31.054  25.219  22.724  1.00  0.00    -0.261 OA
ATOM     43  C   UNL A   1      31.548  24.807  23.772  1.00  0.00     0.290 C 
ATOM     44  N   UNL A   1      30.986  24.900  24.997  1.00  0.00    -0.282 N 
ATOM     45  S   UNL A   1      33.098  24.003  23.882  1.00  0.00    -0.022 SA
ATOM     46  C   UNL A   1      31.670  24.382  26.059  1.00  0.00     0.265 C 
ATOM     47  H   UNL A   1      30.109  25.331  25.120  1.00  0.00     0.174 HD
ATOM     48  C   UNL A   1      32.964  23.817  25.593  1.00  0.00     0.083 C 
ATOM     49  O   UNL A   1      31.278  24.396  27.211  1.00  0.00    -0.268 OA
ATOM     50  H   UNL A   1      33.564  23.208  27.438  1.00  0.00     0.064 H 
ENDBRANCH  32  41
ENDBRANCH  30  31
ENDBRANCH  27  30
ENDBRANCH  22  27
ENDBRANCH  12  21
ENDBRANCH   8  11
ENDBRANCH   4   7
ENDBRANCH   1   4
BRANCH   1  51
ATOM     51  C   UNL A   1      44.906  26.979  28.871  1.00  0.00    -0.052 C 
ATOM     52  H   UNL A   1      44.112  26.742  28.195  1.00  0.00     0.027 H 
ATOM     53  H   UNL A   1      44.581  27.096  29.884  1.00  0.00     0.027 H 
BRANCH  51  54
ATOM     54  C   UNL A   1      45.899  25.803  28.871  1.00  0.00    -0.052 C 
ATOM     55  H   UNL A   1      46.686  26.039  29.555  1.00  0.00     0.027 H 
ATOM     56  H   UNL A   1      46.219  25.696  27.855  1.00  0.00     0.027 H 
BRANCH  54  57
ATOM     57  C   UNL A   1      45.323  24.434  29.270  1.00  0.00    -0.036 C 
ATOM     58  H   UNL A   1      46.131  23.794  29.556  1.00  0.00     0.028 H 
ATOM     59  H   UNL A   1      44.791  24.054  28.424  1.00  0.00     0.028 H 
BRANCH  57  60
ATOM     60  C   UNL A   1      44.340  24.516  30.424  1.00  0.00     0.018 C 
ATOM     61  H   UNL A   1      43.622  23.727  30.324  1.00  0.00     0.049 H 
ATOM     62  H   UNL A   1      43.865  25.474  30.389  1.00  0.00     0.049 H 
BRANCH  60  63
ATOM     63  N   UNL A   1      45.009  24.386  31.726  1.00  0.00    -0.352 N 
ATOM     64  C   UNL A   1      45.463  25.366  32.591  1.00  0.00     0.251 C 
ATOM     65  H   UNL A   1      45.156  23.461  32.030  1.00  0.00     0.163 HD
ATOM     66  O   UNL A   1      46.317  25.120  33.434  1.00  0.00    -0.269 OA
BRANCH  64  67
ATOM     67  C   UNL A   1      44.878  26.711  32.498  1.00  0.00     0.039 A 
ATOM     68  C   UNL A   1      45.622  27.864  32.223  1.00  0.00    -0.049 A 
ATOM     69  C   UNL A   1      43.507  26.785  32.664  1.00  0.00    -0.049 A 
ATOM     70  C   UNL A   1      44.944  29.078  32.129  1.00  0.00    -0.053 A 
ATOM     71  H   UNL A   1      46.645  27.817  32.093  1.00  0.00     0.063 H 
ATOM     72  C   UNL A   1      42.847  27.868  32.187  1.00  0.00    -0.053 A 
ATOM     73  H   UNL A   1      42.995  26.028  33.141  1.00  0.00     0.063 H 
ATOM     74  C   UNL A   1      43.545  29.057  32.139  1.00  0.00    -0.014 A 
ATOM     75  H   UNL A   1      45.461  29.969  32.054  1.00  0.00     0.063 H 
ATOM     76  H   UNL A   1      41.865  27.807  31.875  1.00  0.00     0.063 H 
BRANCH  74  77
ATOM     77  C   UNL A   1      42.705  30.233  32.047  1.00  0.00     0.031 A 
ATOM     78  C   UNL A   1      42.191  30.682  33.355  1.00  0.00     0.074 A 
ATOM     79  C   UNL A   1      42.699  31.008  30.937  1.00  0.00     0.049 A 
ATOM     80  N   UNL A   1      40.977  30.606  33.781  1.00  0.00    -0.248 NA
ATOM     81  C   UNL A   1      43.164  31.077  34.387  1.00  0.00    -0.034 C 
ATOM     82  C   UNL A   1      43.486  30.860  29.703  1.00  0.00    -0.036 A 
ATOM     83  N   UNL A   1      42.060  32.192  30.735  1.00  0.00    -0.354 N 
ATOM     84  C   UNL A   1      40.996  31.164  35.053  1.00  0.00     0.074 A 
ATOM     85  C   UNL A   1      42.375  31.178  35.458  1.00  0.00    -0.034 C 
ATOM     86  H   UNL A   1      44.181  31.233  34.303  1.00  0.00     0.065 H 
ATOM     87  C   UNL A   1      43.452  32.015  28.999  1.00  0.00    -0.036 A 
ATOM     88  H   UNL A   1      43.989  30.005  29.418  1.00  0.00     0.065 H 
ATOM     89  C   UNL A   1      42.535  32.930  29.649  1.00  0.00     0.049 A 
ATOM     90  H   UNL A   1      41.323  32.504  31.309  1.00  0.00     0.167 HD
ATOM     91  C   UNL A   1      39.916  31.845  35.526  1.00  0.00     0.037 A 
ATOM     92  H   UNL A   1      42.706  31.254  36.433  1.00  0.00     0.065 H 
ATOM     93  H   UNL A   1      43.990  32.212  28.141  1.00  0.00     0.065 H 
ATOM     94  C   UNL A   1      42.224  34.228  29.392  1.00  0.00     0.037 A 
ATOM     95  C   UNL A   1      38.758  31.594  34.697  1.00  0.00     0.049 A 
ATOM     96  C   UNL A   1      40.985  34.535  30.168  1.00  0.00     0.074 A 
ATOM     97  C   UNL A   1      38.093  30.449  34.296  1.00  0.00    -0.036 A 
ATOM     98  N   UNL A   1      38.390  32.567  33.796  1.00  0.00    -0.354 N 
ATOM     99  N   UNL A   1      39.824  33.992  29.912  1.00  0.00    -0.248 NA
ATOM    100  C   UNL A   1      41.162  35.013  31.534  1.00  0.00    -0.034 C 
ATOM    101  C   UNL A   1      37.807  30.659  32.912  1.00  0.00    -0.036 A 
ATOM    102  H   UNL A   1      37.856  29.625  34.870  1.00  0.00     0.065 H 
ATOM    103  C   UNL A   1      38.207  31.954  32.582  1.00  0.00     0.049 A 
ATOM    104  H   UNL A   1      38.279  33.527  33.987  1.00  0.00     0.167 HD
ATOM    105  C   UNL A   1      39.305  33.665  31.158  1.00  0.00     0.074 A 
ATOM    106  C   UNL A   1      40.151  34.365  32.122  1.00  0.00    -0.034 C 
ATOM    107  H   UNL A   1      41.860  35.662  31.929  1.00  0.00     0.065 H 
ATOM    108  H   UNL A   1      37.380  29.974  32.270  1.00  0.00     0.065 H 
ATOM    109  C   UNL A   1      38.447  32.612  31.319  1.00  0.00     0.037 A 
ATOM    110  H   UNL A   1      39.988  34.359  33.141  1.00  0.00     0.065 H 
BRANCH  91 111
ATOM    111  C   UNL A   1      39.984  33.033  36.459  1.00  0.00     0.064 A 
ATOM    112  C   UNL A   1      39.126  33.054  37.577  1.00  0.00     0.173 A 
ATOM    113  C   UNL A   1      40.618  34.261  36.164  1.00  0.00     0.173 A 
ATOM    114  F   UNL A   1      38.472  31.945  37.956  1.00  0.00    -0.203 F 
ATOM    115  C   UNL A   1      38.841  34.232  38.271  1.00  0.00     0.198 A 
ATOM    116  C   UNL A   1      40.374  35.422  36.893  1.00  0.00     0.198 A 
ATOM    117  F   UNL A   1      41.410  34.432  35.101  1.00  0.00    -0.203 F 
ATOM    118  F   UNL A   1      37.912  34.225  39.235  1.00  0.00    -0.200 F 
ATOM    119  C   UNL A   1      39.458  35.418  37.921  1.00  0.00     0.200 A 
ATOM    120  F   UNL A   1      40.976  36.564  36.530  1.00  0.00    -0.200 F 
ATOM    121  F   UNL A   1      39.138  36.562  38.539  1.00  0.00    -0.200 F 
ENDBRANCH  91 111
BRANCH  94 122
ATOM    122  C   UNL A   1      43.098  35.284  28.818  1.00  0.00     0.064 A 
ATOM    123  C   UNL A   1      42.679  36.077  27.735  1.00  0.00     0.173 A 
ATOM    124  C   UNL A   1      44.257  35.720  29.490  1.00  0.00     0.173 A 
ATOM    125  F   UNL A   1      41.556  35.768  27.068  1.00  0.00    -0.203 F 
ATOM    126  C   UNL A   1      43.368  37.239  27.361  1.00  0.00     0.198 A 
ATOM    127  C   UNL A   1      44.947  36.875  29.113  1.00  0.00     0.198 A 
ATOM    128  F   UNL A   1      44.692  35.089  30.590  1.00  0.00    -0.203 F 
ATOM    129  F   UNL A   1      42.905  38.000  26.358  1.00  0.00    -0.200 F 
ATOM    130  C   UNL A   1      44.497  37.641  28.056  1.00  0.00     0.200 A 
ATOM    131  F   UNL A   1      46.013  37.271  29.824  1.00  0.00    -0.200 F 
ATOM    132  F   UNL A   1      45.122  38.783  27.738  1.00  0.00    -0.200 F 
ENDBRANCH  94 122
BRANCH 109 133
ATOM    133  C   UNL A   1      37.883  31.943  30.095  1.00  0.00     0.064 A 
ATOM    134  C   UNL A   1      38.512  30.896  29.399  1.00  0.00     0.173 A 
ATOM    135  C   UNL A   1      36.571  32.262  29.718  1.00  0.00     0.173 A 
ATOM    136  F   UNL A   1      39.720  30.452  29.764  1.00  0.00    -0.203 F 
ATOM    137  C   UNL A   1      37.874  30.235  28.349  1.00  0.00     0.198 A 
ATOM    138  C   UNL A   1      35.921  31.575  28.697  1.00  0.00     0.198 A 
ATOM    139  F   UNL A   1      35.895  33.212  30.383  1.00  0.00    -0.203 F 
ATOM    140  F   UNL A   1      38.502  29.245  27.697  1.00  0.00    -0.200 F 
ATOM    141  C   UNL A   1      36.575  30.570  28.005  1.00  0.00     0.200 A 
ATOM    142  F   UNL A   1      34.645  31.868  28.407  1.00  0.00    -0.200 F 
ATOM    143  F   UNL A   1      35.944  29.907  27.026  1.00  0.00    -0.200 F 
ENDBRANCH 109 133
ENDBRANCH  74  77
ENDBRANCH  64  67
ENDBRANCH  60  63
ENDBRANCH  57  60
ENDBRANCH  54  57
ENDBRANCH  51  54
ENDBRANCH   1  51
TORSDOF 18
ENDMDL
