MODEL 1
REMARK VINA RESULT:     -12.1      0.000      0.000
REMARK SMILES C[C@H]1[C@H](C)CC[C@@]2(C(=O)NCCCCCCNC(=O)c3ccc(-c4c5nc(c(-c6c(F)c(F)c(F)c(F)c6F)c6ccc([nH]6)c(-c6c(F)c(F)c(F)c(F)c6F)c6nc(c(-c7c(F)c(F)c(F)c(F)c7F)c7ccc4[nH]7)C=C6)C=C5)cc3)CC[C@@]3(C)C(=CC[C@@H]4[C@@]5(C)CC[C@H](O)C(C)(C)[C@@H]5CC[C@]43C)[C@H]12
REMARK SMILES IDX 14 1 13 4 12 7 11 10 10 13 8 14 9 15 7 17 2 18 3 19 105 20
REMARK SMILES IDX 5 22 87 24 6 26 83 29 85 30 88 31 84 34 103 37 89 38 90 42
REMARK SMILES IDX 102 43 91 46 101 48 93 51 100 52 94 55 97 58 95 60 1 64 4 68
REMARK SMILES IDX 86 72 104 76 92 80 98 84 99 88 96 92 15 94 16 97 17 100
REMARK SMILES IDX 18 101 19 103 20 104 21 105 82 106 22 107 81 109 23 111
REMARK SMILES IDX 24 114 25 115 75 116 26 117 80 118 74 119 76 120 27 121
REMARK SMILES IDX 79 122 73 124 72 126 28 128 60 131 40 132 59 133 41 134
REMARK SMILES IDX 44 135 58 136 77 137 42 138 43 140 57 142 78 143 45 146
REMARK SMILES IDX 29 148 30 149 38 150 31 151 32 152 36 153 39 154 33 155
REMARK SMILES IDX 34 156 37 157 35 158 61 159 62 160 70 161 63 162 64 163
REMARK SMILES IDX 68 164 71 165 65 166 66 167 69 168 67 169 46 170 47 171
REMARK SMILES IDX 55 172 48 173 49 174 53 175 56 176 50 177 51 178 54 179
REMARK SMILES IDX 52 180
REMARK H PARENT 14 2 14 3 13 5 13 6 12 8 12 9 11 11 11 12 10 16 2 21 3 23
REMARK H PARENT 105 25 5 27 5 28 6 32 6 33 83 35 83 36 88 39 84 40 84 41 89 44
REMARK H PARENT 89 45 90 47 102 49 102 50 101 53 101 54 93 56 93 57 100 59
REMARK H PARENT 94 61 94 62 95 63 1 65 1 66 1 67 4 69 4 70 4 71 86 73 86 74
REMARK H PARENT 86 75 104 77 104 78 104 79 92 81 92 82 92 83 98 85 98 86 98 87
REMARK H PARENT 99 89 99 90 99 91 96 93 15 95 15 96 16 98 16 99 17 102 21 108
REMARK H PARENT 82 110 22 112 81 113 80 123 74 125 76 127 79 129 73 130 41 139
REMARK H PARENT 44 141 77 144 42 145 78 147
REMARK Flexibility Score: inf
ROOT
ATOM      1  C   UNL A   1      39.330  22.158  26.461  1.00  0.00    -0.052 C 
ATOM      2  H   UNL A   1      38.677  21.911  27.270  1.00  0.00     0.027 H 
ATOM      3  H   UNL A   1      40.312  22.490  26.731  1.00  0.00     0.027 H 
ENDROOT
BRANCH   1   4
ATOM      4  C   UNL A   1      38.716  23.358  25.733  1.00  0.00    -0.052 C 
ATOM      5  H   UNL A   1      39.525  24.008  25.470  1.00  0.00     0.027 H 
ATOM      6  H   UNL A   1      38.168  22.909  24.930  1.00  0.00     0.027 H 
BRANCH   4   7
ATOM      7  C   UNL A   1      37.662  24.223  26.442  1.00  0.00    -0.036 C 
ATOM      8  H   UNL A   1      37.813  24.103  27.495  1.00  0.00     0.028 H 
ATOM      9  H   UNL A   1      37.824  25.204  26.049  1.00  0.00     0.028 H 
BRANCH   7  10
ATOM     10  C   UNL A   1      36.179  23.953  26.167  1.00  0.00     0.017 C 
ATOM     11  H   UNL A   1      35.613  24.765  26.572  1.00  0.00     0.049 H 
ATOM     12  H   UNL A   1      36.085  23.856  25.106  1.00  0.00     0.049 H 
BRANCH  10  13
ATOM     13  N   UNL A   1      35.664  22.719  26.734  1.00  0.00    -0.356 N 
ATOM     14  C   UNL A   1      34.917  21.716  26.170  1.00  0.00     0.226 C 
ATOM     15  O   UNL A   1      34.035  21.269  26.914  1.00  0.00    -0.274 OA
ATOM     16  H   UNL A   1      35.890  22.578  27.682  1.00  0.00     0.163 HD
BRANCH  14  17
ATOM     17  C   UNL A   1      35.163  21.085  24.743  1.00  0.00     0.056 C 
ATOM     18  C   UNL A   1      33.408  19.183  24.655  1.00  0.00    -0.034 C 
ATOM     19  C   UNL A   1      34.563  18.144  24.458  1.00  0.00    -0.041 C 
ATOM     20  C   UNL A   1      33.845  20.568  24.092  1.00  0.00    -0.002 C 
ATOM     21  H   UNL A   1      33.219  19.286  25.702  1.00  0.00     0.031 H 
ATOM     22  C   UNL A   1      35.950  18.603  24.946  1.00  0.00    -0.049 C 
ATOM     23  H   UNL A   1      34.548  18.053  23.391  1.00  0.00     0.030 H 
ATOM     24  C   UNL A   1      32.892  21.787  24.112  1.00  0.00    -0.063 C 
ATOM     25  H   UNL A   1      33.909  20.269  23.066  1.00  0.00     0.036 H 
ATOM     26  C   UNL A   1      36.306  20.060  24.775  1.00  0.00    -0.038 C 
ATOM     27  H   UNL A   1      36.681  18.031  24.415  1.00  0.00     0.027 H 
ATOM     28  H   UNL A   1      35.928  18.453  26.005  1.00  0.00     0.027 H 
ATOM     29  C   UNL A   1      35.704  22.198  23.764  1.00  0.00    -0.037 C 
ATOM     30  C   UNL A   1      33.247  22.932  23.115  1.00  0.00    -0.006 C 
ATOM     31  C   UNL A   1      32.025  21.977  25.129  1.00  0.00    -0.084 C 
ATOM     32  H   UNL A   1      36.840  20.150  23.852  1.00  0.00     0.028 H 
ATOM     33  H   UNL A   1      36.859  20.305  25.659  1.00  0.00     0.028 H 
ATOM     34  C   UNL A   1      34.747  23.317  23.344  1.00  0.00    -0.043 C 
ATOM     35  H   UNL A   1      36.027  21.706  22.870  1.00  0.00     0.028 H 
ATOM     36  H   UNL A   1      36.467  22.697  24.323  1.00  0.00     0.028 H 
ATOM     37  C   UNL A   1      32.300  24.242  23.329  1.00  0.00    -0.020 C 
ATOM     38  C   UNL A   1      31.510  23.332  25.551  1.00  0.00    -0.031 C 
ATOM     39  H   UNL A   1      31.695  21.148  25.649  1.00  0.00     0.058 H 
ATOM     40  H   UNL A   1      35.117  23.730  22.429  1.00  0.00     0.028 H 
ATOM     41  H   UNL A   1      34.733  23.992  24.176  1.00  0.00     0.028 H 
ATOM     42  C   UNL A   1      32.291  24.496  24.881  1.00  0.00    -0.026 C 
ATOM     43  C   UNL A   1      32.817  25.479  22.547  1.00  0.00    -0.046 C 
ATOM     44  H   UNL A   1      31.607  23.420  26.613  1.00  0.00     0.031 H 
ATOM     45  H   UNL A   1      30.489  23.403  25.244  1.00  0.00     0.031 H 
ATOM     46  C   UNL A   1      32.002  25.955  25.431  1.00  0.00    -0.025 C 
ATOM     47  H   UNL A   1      33.315  24.481  25.194  1.00  0.00     0.032 H 
ATOM     48  C   UNL A   1      32.192  26.797  23.009  1.00  0.00    -0.049 C 
ATOM     49  H   UNL A   1      33.877  25.544  22.676  1.00  0.00     0.027 H 
ATOM     50  H   UNL A   1      32.541  25.341  21.522  1.00  0.00     0.027 H 
ATOM     51  C   UNL A   1      32.803  26.136  26.764  1.00  0.00    -0.045 C 
ATOM     52  C   UNL A   1      32.587  27.056  24.466  1.00  0.00    -0.028 C 
ATOM     53  H   UNL A   1      32.548  27.598  22.394  1.00  0.00     0.027 H 
ATOM     54  H   UNL A   1      31.127  26.739  22.929  1.00  0.00     0.027 H 
ATOM     55  C   UNL A   1      32.718  27.543  27.358  1.00  0.00    -0.026 C 
ATOM     56  H   UNL A   1      33.832  25.915  26.570  1.00  0.00     0.027 H 
ATOM     57  H   UNL A   1      32.365  25.472  27.480  1.00  0.00     0.027 H 
ATOM     58  C   UNL A   1      32.428  28.547  24.955  1.00  0.00    -0.006 C 
ATOM     59  H   UNL A   1      33.649  26.943  24.510  1.00  0.00     0.031 H 
ATOM     60  C   UNL A   1      33.075  28.659  26.372  1.00  0.00     0.059 C 
ATOM     61  H   UNL A   1      33.391  27.598  28.187  1.00  0.00     0.029 H 
ATOM     62  H   UNL A   1      31.698  27.696  27.642  1.00  0.00     0.029 H 
ATOM     63  H   UNL A   1      34.123  28.558  26.174  1.00  0.00     0.061 H 
BRANCH  18  64
ATOM     64  C   UNL A   1      32.094  18.701  24.019  1.00  0.00    -0.062 C 
ATOM     65  H   UNL A   1      32.173  18.755  22.954  1.00  0.00     0.023 H 
ATOM     66  H   UNL A   1      31.288  19.324  24.349  1.00  0.00     0.023 H 
ATOM     67  H   UNL A   1      31.906  17.689  24.312  1.00  0.00     0.023 H 
ENDBRANCH  18  64
BRANCH  19  68
ATOM     68  C   UNL A   1      34.334  16.780  25.131  1.00  0.00    -0.062 C 
ATOM     69  H   UNL A   1      34.923  16.035  24.637  1.00  0.00     0.023 H 
ATOM     70  H   UNL A   1      33.299  16.518  25.062  1.00  0.00     0.023 H 
ATOM     71  H   UNL A   1      34.620  16.838  26.160  1.00  0.00     0.023 H 
ENDBRANCH  19  68
BRANCH  30  72
ATOM     72  C   UNL A   1      33.101  22.415  21.659  1.00  0.00    -0.055 C 
ATOM     73  H   UNL A   1      32.734  23.205  21.037  1.00  0.00     0.024 H 
ATOM     74  H   UNL A   1      32.415  21.595  21.639  1.00  0.00     0.024 H 
ATOM     75  H   UNL A   1      34.055  22.092  21.299  1.00  0.00     0.024 H 
ENDBRANCH  30  72
BRANCH  37  76
ATOM     76  C   UNL A   1      30.860  23.984  22.786  1.00  0.00    -0.059 C 
ATOM     77  H   UNL A   1      30.151  24.124  23.575  1.00  0.00     0.024 H 
ATOM     78  H   UNL A   1      30.793  22.980  22.420  1.00  0.00     0.024 H 
ATOM     79  H   UNL A   1      30.650  24.668  21.991  1.00  0.00     0.024 H 
ENDBRANCH  37  76
BRANCH  46  80
ATOM     80  C   UNL A   1      30.501  26.101  25.740  1.00  0.00    -0.059 C 
ATOM     81  H   UNL A   1      29.944  26.059  24.827  1.00  0.00     0.024 H 
ATOM     82  H   UNL A   1      30.326  27.040  26.222  1.00  0.00     0.024 H 
ATOM     83  H   UNL A   1      30.191  25.305  26.384  1.00  0.00     0.024 H 
ENDBRANCH  46  80
BRANCH  58  84
ATOM     84  C   UNL A   1      30.979  29.079  24.922  1.00  0.00    -0.057 C 
ATOM     85  H   UNL A   1      30.844  29.795  25.706  1.00  0.00     0.024 H 
ATOM     86  H   UNL A   1      30.297  28.266  25.061  1.00  0.00     0.024 H 
ATOM     87  H   UNL A   1      30.791  29.544  23.977  1.00  0.00     0.024 H 
ENDBRANCH  58  84
BRANCH  58  88
ATOM     88  C   UNL A   1      33.224  29.508  24.024  1.00  0.00    -0.057 C 
ATOM     89  H   UNL A   1      34.051  29.923  24.562  1.00  0.00     0.024 H 
ATOM     90  H   UNL A   1      32.583  30.298  23.694  1.00  0.00     0.024 H 
ATOM     91  H   UNL A   1      33.587  28.965  23.176  1.00  0.00     0.024 H 
ENDBRANCH  58  88
BRANCH  60  92
ATOM     92  O   UNL A   1      32.784  29.919  26.978  1.00  0.00    -0.393 OA
ATOM     93  H   UNL A   1      32.722  30.601  26.292  1.00  0.00     0.210 HD
ENDBRANCH  60  92
ENDBRANCH  14  17
ENDBRANCH  10  13
ENDBRANCH   7  10
ENDBRANCH   4   7
ENDBRANCH   1   4
BRANCH   1  94
ATOM     94  C   UNL A   1      39.575  20.875  25.671  1.00  0.00    -0.036 C 
ATOM     95  H   UNL A   1      40.406  21.057  25.022  1.00  0.00     0.028 H 
ATOM     96  H   UNL A   1      38.641  20.679  25.187  1.00  0.00     0.028 H 
BRANCH  94  97
ATOM     97  C   UNL A   1      39.875  19.604  26.447  1.00  0.00     0.018 C 
ATOM     98  H   UNL A   1      39.018  18.966  26.391  1.00  0.00     0.049 H 
ATOM     99  H   UNL A   1      40.105  19.903  27.449  1.00  0.00     0.049 H 
BRANCH  97 100
ATOM    100  N   UNL A   1      41.022  18.868  25.960  1.00  0.00    -0.352 N 
ATOM    101  C   UNL A   1      42.331  19.278  25.836  1.00  0.00     0.251 C 
ATOM    102  H   UNL A   1      40.841  17.942  25.677  1.00  0.00     0.163 HD
ATOM    103  O   UNL A   1      43.160  18.536  25.329  1.00  0.00    -0.269 OA
BRANCH 101 104
ATOM    104  C   UNL A   1      42.734  20.637  26.276  1.00  0.00     0.039 A 
ATOM    105  C   UNL A   1      43.151  21.555  25.308  1.00  0.00    -0.049 A 
ATOM    106  C   UNL A   1      42.709  21.012  27.623  1.00  0.00    -0.049 A 
ATOM    107  C   UNL A   1      43.484  22.860  25.682  1.00  0.00    -0.053 A 
ATOM    108  H   UNL A   1      43.212  21.269  24.319  1.00  0.00     0.063 H 
ATOM    109  C   UNL A   1      42.956  22.336  27.982  1.00  0.00    -0.053 A 
ATOM    110  H   UNL A   1      42.508  20.309  28.350  1.00  0.00     0.063 H 
ATOM    111  C   UNL A   1      43.358  23.272  27.018  1.00  0.00    -0.014 A 
ATOM    112  H   UNL A   1      43.827  23.525  24.970  1.00  0.00     0.063 H 
ATOM    113  H   UNL A   1      42.842  22.629  28.965  1.00  0.00     0.063 H 
BRANCH 111 114
ATOM    114  C   UNL A   1      43.662  24.669  27.423  1.00  0.00     0.031 A 
ATOM    115  C   UNL A   1      45.091  25.134  27.519  1.00  0.00     0.074 A 
ATOM    116  C   UNL A   1      42.658  25.508  27.747  1.00  0.00     0.049 A 
ATOM    117  N   UNL A   1      45.562  26.296  27.894  1.00  0.00    -0.248 NA
ATOM    118  C   UNL A   1      46.131  24.152  27.172  1.00  0.00    -0.034 C 
ATOM    119  C   UNL A   1      41.235  25.164  27.739  1.00  0.00    -0.036 A 
ATOM    120  N   UNL A   1      42.679  26.820  28.152  1.00  0.00    -0.354 N 
ATOM    121  C   UNL A   1      46.945  26.179  27.841  1.00  0.00     0.074 A 
ATOM    122  C   UNL A   1      47.239  24.816  27.460  1.00  0.00    -0.034 C 
ATOM    123  H   UNL A   1      46.023  23.195  26.802  1.00  0.00     0.065 H 
ATOM    124  C   UNL A   1      40.519  26.244  28.091  1.00  0.00    -0.036 A 
ATOM    125  H   UNL A   1      40.844  24.240  27.499  1.00  0.00     0.065 H 
ATOM    126  C   UNL A   1      41.431  27.343  28.392  1.00  0.00     0.049 A 
ATOM    127  H   UNL A   1      43.510  27.337  28.260  1.00  0.00     0.167 HD
ATOM    128  C   UNL A   1      47.884  27.130  28.063  1.00  0.00     0.037 A 
ATOM    129  H   UNL A   1      48.189  24.413  27.416  1.00  0.00     0.065 H 
ATOM    130  H   UNL A   1      39.489  26.289  28.141  1.00  0.00     0.065 H 
ATOM    131  C   UNL A   1      41.065  28.569  28.812  1.00  0.00     0.037 A 
ATOM    132  C   UNL A   1      47.586  28.491  28.422  1.00  0.00     0.049 A 
ATOM    133  C   UNL A   1      42.130  29.603  29.069  1.00  0.00     0.074 A 
ATOM    134  C   UNL A   1      48.460  29.545  28.614  1.00  0.00    -0.036 A 
ATOM    135  N   UNL A   1      46.308  28.985  28.649  1.00  0.00    -0.354 N 
ATOM    136  N   UNL A   1      43.430  29.500  28.946  1.00  0.00    -0.248 NA
ATOM    137  C   UNL A   1      41.674  30.926  29.518  1.00  0.00    -0.034 C 
ATOM    138  C   UNL A   1      47.719  30.662  29.015  1.00  0.00    -0.036 A 
ATOM    139  H   UNL A   1      49.484  29.513  28.484  1.00  0.00     0.065 H 
ATOM    140  C   UNL A   1      46.376  30.322  29.007  1.00  0.00     0.049 A 
ATOM    141  H   UNL A   1      45.478  28.463  28.567  1.00  0.00     0.167 HD
ATOM    142  C   UNL A   1      43.946  30.749  29.267  1.00  0.00     0.074 A 
ATOM    143  C   UNL A   1      42.814  31.598  29.577  1.00  0.00    -0.034 C 
ATOM    144  H   UNL A   1      40.717  31.247  29.731  1.00  0.00     0.065 H 
ATOM    145  H   UNL A   1      48.108  31.582  29.272  1.00  0.00     0.065 H 
ATOM    146  C   UNL A   1      45.239  31.156  29.304  1.00  0.00     0.037 A 
ATOM    147  H   UNL A   1      42.887  32.600  29.813  1.00  0.00     0.065 H 
BRANCH 128 148
ATOM    148  C   UNL A   1      49.327  26.729  27.923  1.00  0.00     0.064 A 
ATOM    149  C   UNL A   1      49.951  26.637  26.669  1.00  0.00     0.173 A 
ATOM    150  C   UNL A   1      50.106  26.468  29.061  1.00  0.00     0.173 A 
ATOM    151  F   UNL A   1      49.250  26.866  25.548  1.00  0.00    -0.203 F 
ATOM    152  C   UNL A   1      51.288  26.265  26.557  1.00  0.00     0.198 A 
ATOM    153  C   UNL A   1      51.453  26.131  28.947  1.00  0.00     0.198 A 
ATOM    154  F   UNL A   1      49.565  26.546  30.286  1.00  0.00    -0.203 F 
ATOM    155  F   UNL A   1      51.845  26.128  25.345  1.00  0.00    -0.200 F 
ATOM    156  C   UNL A   1      52.040  26.019  27.696  1.00  0.00     0.200 A 
ATOM    157  F   UNL A   1      52.182  25.908  30.049  1.00  0.00    -0.200 F 
ATOM    158  F   UNL A   1      53.329  25.669  27.587  1.00  0.00    -0.200 F 
ENDBRANCH 128 148
BRANCH 131 159
ATOM    159  C   UNL A   1      39.625  28.895  29.001  1.00  0.00     0.064 A 
ATOM    160  C   UNL A   1      39.013  28.760  30.255  1.00  0.00     0.173 A 
ATOM    161  C   UNL A   1      38.830  29.337  27.933  1.00  0.00     0.173 A 
ATOM    162  F   UNL A   1      39.724  28.323  31.304  1.00  0.00    -0.203 F 
ATOM    163  C   UNL A   1      37.656  29.030  30.428  1.00  0.00     0.198 A 
ATOM    164  C   UNL A   1      37.482  29.638  28.115  1.00  0.00     0.198 A 
ATOM    165  F   UNL A   1      39.366  29.489  26.713  1.00  0.00    -0.203 F 
ATOM    166  F   UNL A   1      37.085  28.840  31.625  1.00  0.00    -0.200 F 
ATOM    167  C   UNL A   1      36.893  29.474  29.360  1.00  0.00     0.200 A 
ATOM    168  F   UNL A   1      36.753  30.083  27.082  1.00  0.00    -0.200 F 
ATOM    169  F   UNL A   1      35.590  29.737  29.527  1.00  0.00    -0.200 F 
ENDBRANCH 131 159
BRANCH 146 170
ATOM    170  C   UNL A   1      45.500  32.593  29.653  1.00  0.00     0.064 A 
ATOM    171  C   UNL A   1      45.757  33.001  30.970  1.00  0.00     0.173 A 
ATOM    172  C   UNL A   1      45.533  33.571  28.646  1.00  0.00     0.173 A 
ATOM    173  F   UNL A   1      45.723  32.109  31.972  1.00  0.00    -0.203 F 
ATOM    174  C   UNL A   1      46.008  34.338  31.271  1.00  0.00     0.198 A 
ATOM    175  C   UNL A   1      45.821  34.900  28.945  1.00  0.00     0.198 A 
ATOM    176  F   UNL A   1      45.304  33.234  27.368  1.00  0.00    -0.203 F 
ATOM    177  F   UNL A   1      46.197  34.712  32.543  1.00  0.00    -0.200 F 
ATOM    178  C   UNL A   1      46.048  35.283  30.257  1.00  0.00     0.200 A 
ATOM    179  F   UNL A   1      45.877  35.809  27.962  1.00  0.00    -0.200 F 
ATOM    180  F   UNL A   1      46.301  36.568  30.547  1.00  0.00    -0.200 F 
ENDBRANCH 146 170
ENDBRANCH 111 114
ENDBRANCH 101 104
ENDBRANCH  97 100
ENDBRANCH  94  97
ENDBRANCH   1  94
TORSDOF 21
ENDMDL
MODEL 2
REMARK VINA RESULT:     -12.0      0.067      1.467
REMARK SMILES C[C@H]1[C@H](C)CC[C@@]2(C(=O)NCCCCCCNC(=O)c3ccc(-c4c5nc(c(-c6c(F)c(F)c(F)c(F)c6F)c6ccc([nH]6)c(-c6c(F)c(F)c(F)c(F)c6F)c6nc(c(-c7c(F)c(F)c(F)c(F)c7F)c7ccc4[nH]7)C=C6)C=C5)cc3)CC[C@@]3(C)C(=CC[C@@H]4[C@@]5(C)CC[C@H](O)C(C)(C)[C@@H]5CC[C@]43C)[C@H]12
REMARK SMILES IDX 14 1 13 4 12 7 11 10 10 13 8 14 9 15 7 17 2 18 3 19 105 20
REMARK SMILES IDX 5 22 87 24 6 26 83 29 85 30 88 31 84 34 103 37 89 38 90 42
REMARK SMILES IDX 102 43 91 46 101 48 93 51 100 52 94 55 97 58 95 60 1 64 4 68
REMARK SMILES IDX 86 72 104 76 92 80 98 84 99 88 96 92 15 94 16 97 17 100
REMARK SMILES IDX 18 101 19 103 20 104 21 105 82 106 22 107 81 109 23 111
REMARK SMILES IDX 24 114 25 115 75 116 26 117 80 118 74 119 76 120 27 121
REMARK SMILES IDX 79 122 73 124 72 126 28 128 60 131 40 132 59 133 41 134
REMARK SMILES IDX 44 135 58 136 77 137 42 138 43 140 57 142 78 143 45 146
REMARK SMILES IDX 29 148 30 149 38 150 31 151 32 152 36 153 39 154 33 155
REMARK SMILES IDX 34 156 37 157 35 158 61 159 62 160 70 161 63 162 64 163
REMARK SMILES IDX 68 164 71 165 65 166 66 167 69 168 67 169 46 170 47 171
REMARK SMILES IDX 55 172 48 173 49 174 53 175 56 176 50 177 51 178 54 179
REMARK SMILES IDX 52 180
REMARK H PARENT 14 2 14 3 13 5 13 6 12 8 12 9 11 11 11 12 10 16 2 21 3 23
REMARK H PARENT 105 25 5 27 5 28 6 32 6 33 83 35 83 36 88 39 84 40 84 41 89 44
REMARK H PARENT 89 45 90 47 102 49 102 50 101 53 101 54 93 56 93 57 100 59
REMARK H PARENT 94 61 94 62 95 63 1 65 1 66 1 67 4 69 4 70 4 71 86 73 86 74
REMARK H PARENT 86 75 104 77 104 78 104 79 92 81 92 82 92 83 98 85 98 86 98 87
REMARK H PARENT 99 89 99 90 99 91 96 93 15 95 15 96 16 98 16 99 17 102 21 108
REMARK H PARENT 82 110 22 112 81 113 80 123 74 125 76 127 79 129 73 130 41 139
REMARK H PARENT 44 141 77 144 42 145 78 147
REMARK Flexibility Score: inf
ROOT
ATOM      1  C   UNL A   1      39.329  22.156  26.450  1.00  0.00    -0.052 C 
ATOM      2  H   UNL A   1      38.665  21.902  27.248  1.00  0.00     0.027 H 
ATOM      3  H   UNL A   1      40.304  22.495  26.737  1.00  0.00     0.027 H 
ENDROOT
BRANCH   1   4
ATOM      4  C   UNL A   1      38.717  23.354  25.717  1.00  0.00    -0.052 C 
ATOM      5  H   UNL A   1      39.526  23.999  25.447  1.00  0.00     0.027 H 
ATOM      6  H   UNL A   1      38.164  22.902  24.919  1.00  0.00     0.027 H 
BRANCH   4   7
ATOM      7  C   UNL A   1      37.669  24.227  26.424  1.00  0.00    -0.036 C 
ATOM      8  H   UNL A   1      37.818  24.108  27.478  1.00  0.00     0.028 H 
ATOM      9  H   UNL A   1      37.837  25.207  26.030  1.00  0.00     0.028 H 
BRANCH   7  10
ATOM     10  C   UNL A   1      36.184  23.966  26.149  1.00  0.00     0.017 C 
ATOM     11  H   UNL A   1      35.623  24.783  26.554  1.00  0.00     0.049 H 
ATOM     12  H   UNL A   1      36.089  23.871  25.088  1.00  0.00     0.049 H 
BRANCH  10  13
ATOM     13  N   UNL A   1      35.661  22.736  26.716  1.00  0.00    -0.356 N 
ATOM     14  C   UNL A   1      34.906  21.739  26.152  1.00  0.00     0.226 C 
ATOM     15  O   UNL A   1      34.021  21.297  26.897  1.00  0.00    -0.274 OA
ATOM     16  H   UNL A   1      35.886  22.593  27.664  1.00  0.00     0.163 HD
BRANCH  14  17
ATOM     17  C   UNL A   1      35.144  21.107  24.724  1.00  0.00     0.056 C 
ATOM     18  C   UNL A   1      33.402  19.193  24.652  1.00  0.00    -0.034 C 
ATOM     19  C   UNL A   1      34.562  18.162  24.448  1.00  0.00    -0.041 C 
ATOM     20  C   UNL A   1      33.825  20.580  24.084  1.00  0.00    -0.002 C 
ATOM     21  H   UNL A   1      33.220  19.296  25.701  1.00  0.00     0.031 H 
ATOM     22  C   UNL A   1      35.950  18.631  24.924  1.00  0.00    -0.049 C 
ATOM     23  H   UNL A   1      34.540  18.069  23.382  1.00  0.00     0.030 H 
ATOM     24  C   UNL A   1      32.864  21.793  24.110  1.00  0.00    -0.063 C 
ATOM     25  H   UNL A   1      33.883  20.281  23.058  1.00  0.00     0.036 H 
ATOM     26  C   UNL A   1      36.295  20.091  24.749  1.00  0.00    -0.038 C 
ATOM     27  H   UNL A   1      36.681  18.063  24.389  1.00  0.00     0.027 H 
ATOM     28  H   UNL A   1      35.937  18.483  25.984  1.00  0.00     0.027 H 
ATOM     29  C   UNL A   1      35.670  22.223  23.739  1.00  0.00    -0.037 C 
ATOM     30  C   UNL A   1      33.204  22.939  23.109  1.00  0.00    -0.006 C 
ATOM     31  C   UNL A   1      32.004  21.979  25.133  1.00  0.00    -0.084 C 
ATOM     32  H   UNL A   1      36.820  20.182  23.821  1.00  0.00     0.028 H 
ATOM     33  H   UNL A   1      36.853  20.340  25.628  1.00  0.00     0.028 H 
ATOM     34  C   UNL A   1      34.703  23.335  23.325  1.00  0.00    -0.043 C 
ATOM     35  H   UNL A   1      35.990  21.731  22.844  1.00  0.00     0.028 H 
ATOM     36  H   UNL A   1      36.434  22.728  24.292  1.00  0.00     0.028 H 
ATOM     37  C   UNL A   1      32.249  24.243  23.328  1.00  0.00    -0.020 C 
ATOM     38  C   UNL A   1      31.483  23.331  25.558  1.00  0.00    -0.031 C 
ATOM     39  H   UNL A   1      31.683  21.149  25.657  1.00  0.00     0.058 H 
ATOM     40  H   UNL A   1      35.063  23.749  22.407  1.00  0.00     0.028 H 
ATOM     41  H   UNL A   1      34.691  24.010  24.156  1.00  0.00     0.028 H 
ATOM     42  C   UNL A   1      32.251  24.499  24.880  1.00  0.00    -0.026 C 
ATOM     43  C   UNL A   1      32.752  25.482  22.540  1.00  0.00    -0.046 C 
ATOM     44  H   UNL A   1      31.587  23.421  26.619  1.00  0.00     0.031 H 
ATOM     45  H   UNL A   1      30.459  23.395  25.258  1.00  0.00     0.031 H 
ATOM     46  C   UNL A   1      31.956  25.957  25.429  1.00  0.00    -0.025 C 
ATOM     47  H   UNL A   1      33.277  24.492  25.185  1.00  0.00     0.032 H 
ATOM     48  C   UNL A   1      32.121  26.797  23.005  1.00  0.00    -0.049 C 
ATOM     49  H   UNL A   1      33.813  25.554  22.660  1.00  0.00     0.027 H 
ATOM     50  H   UNL A   1      32.468  25.341  21.517  1.00  0.00     0.027 H 
ATOM     51  C   UNL A   1      32.766  26.146  26.756  1.00  0.00    -0.045 C 
ATOM     52  C   UNL A   1      32.526  27.061  24.459  1.00  0.00    -0.028 C 
ATOM     53  H   UNL A   1      32.467  27.599  22.386  1.00  0.00     0.027 H 
ATOM     54  H   UNL A   1      31.056  26.731  22.933  1.00  0.00     0.027 H 
ATOM     55  C   UNL A   1      32.676  27.553  27.348  1.00  0.00    -0.026 C 
ATOM     56  H   UNL A   1      33.795  25.931  26.555  1.00  0.00     0.027 H 
ATOM     57  H   UNL A   1      32.338  25.480  27.476  1.00  0.00     0.027 H 
ATOM     58  C   UNL A   1      32.361  28.552  24.947  1.00  0.00    -0.006 C 
ATOM     59  H   UNL A   1      33.589  26.955  24.494  1.00  0.00     0.031 H 
ATOM     60  C   UNL A   1      33.018  28.669  26.358  1.00  0.00     0.059 C 
ATOM     61  H   UNL A   1      33.355  27.614  28.173  1.00  0.00     0.029 H 
ATOM     62  H   UNL A   1      31.657  27.699  27.640  1.00  0.00     0.029 H 
ATOM     63  H   UNL A   1      34.065  28.575  26.152  1.00  0.00     0.061 H 
BRANCH  18  64
ATOM     64  C   UNL A   1      32.086  18.702  24.028  1.00  0.00    -0.062 C 
ATOM     65  H   UNL A   1      31.931  19.193  23.090  1.00  0.00     0.023 H 
ATOM     66  H   UNL A   1      31.273  18.926  24.686  1.00  0.00     0.023 H 
ATOM     67  H   UNL A   1      32.138  17.644  23.872  1.00  0.00     0.023 H 
ENDBRANCH  18  64
BRANCH  19  68
ATOM     68  C   UNL A   1      34.347  16.798  25.125  1.00  0.00    -0.062 C 
ATOM     69  H   UNL A   1      33.743  16.925  25.999  1.00  0.00     0.023 H 
ATOM     70  H   UNL A   1      35.294  16.384  25.403  1.00  0.00     0.023 H 
ATOM     71  H   UNL A   1      33.854  16.136  24.444  1.00  0.00     0.023 H 
ENDBRANCH  19  68
BRANCH  30  72
ATOM     72  C   UNL A   1      33.050  22.419  21.654  1.00  0.00    -0.055 C 
ATOM     73  H   UNL A   1      32.468  23.116  21.087  1.00  0.00     0.024 H 
ATOM     74  H   UNL A   1      32.560  21.469  21.665  1.00  0.00     0.024 H 
ATOM     75  H   UNL A   1      34.017  22.316  21.209  1.00  0.00     0.024 H 
ENDBRANCH  30  72
BRANCH  37  76
ATOM     76  C   UNL A   1      30.807  23.974  22.796  1.00  0.00    -0.059 C 
ATOM     77  H   UNL A   1      30.092  24.354  23.496  1.00  0.00     0.024 H 
ATOM     78  H   UNL A   1      30.663  22.920  22.676  1.00  0.00     0.024 H 
ATOM     79  H   UNL A   1      30.678  24.461  21.853  1.00  0.00     0.024 H 
ENDBRANCH  37  76
BRANCH  46  80
ATOM     80  C   UNL A   1      30.457  26.093  25.750  1.00  0.00    -0.059 C 
ATOM     81  H   UNL A   1      29.903  25.380  25.174  1.00  0.00     0.024 H 
ATOM     82  H   UNL A   1      30.128  27.082  25.505  1.00  0.00     0.024 H 
ATOM     83  H   UNL A   1      30.296  25.911  26.792  1.00  0.00     0.024 H 
ENDBRANCH  46  80
BRANCH  58  84
ATOM     84  C   UNL A   1      30.908  29.073  24.924  1.00  0.00    -0.057 C 
ATOM     85  H   UNL A   1      30.676  29.521  25.867  1.00  0.00     0.024 H 
ATOM     86  H   UNL A   1      30.239  28.258  24.741  1.00  0.00     0.024 H 
ATOM     87  H   UNL A   1      30.802  29.801  24.147  1.00  0.00     0.024 H 
ENDBRANCH  58  84
BRANCH  58  88
ATOM     88  C   UNL A   1      33.143  29.516  24.008  1.00  0.00    -0.057 C 
ATOM     89  H   UNL A   1      34.173  29.539  24.298  1.00  0.00     0.024 H 
ATOM     90  H   UNL A   1      32.730  30.500  24.083  1.00  0.00     0.024 H 
ATOM     91  H   UNL A   1      33.065  29.173  22.997  1.00  0.00     0.024 H 
ENDBRANCH  58  88
BRANCH  60  92
ATOM     92  O   UNL A   1      32.723  29.929  26.965  1.00  0.00    -0.393 OA
ATOM     93  H   UNL A   1      33.275  30.617  26.564  1.00  0.00     0.210 HD
ENDBRANCH  60  92
ENDBRANCH  14  17
ENDBRANCH  10  13
ENDBRANCH   7  10
ENDBRANCH   4   7
ENDBRANCH   1   4
BRANCH   1  94
ATOM     94  C   UNL A   1      39.596  20.878  25.660  1.00  0.00    -0.036 C 
ATOM     95  H   UNL A   1      40.439  21.067  25.029  1.00  0.00     0.028 H 
ATOM     96  H   UNL A   1      38.673  20.680  25.155  1.00  0.00     0.028 H 
BRANCH  94  97
ATOM     97  C   UNL A   1      39.887  19.605  26.436  1.00  0.00     0.018 C 
ATOM     98  H   UNL A   1      39.029  18.968  26.369  1.00  0.00     0.049 H 
ATOM     99  H   UNL A   1      40.105  19.901  27.441  1.00  0.00     0.049 H 
BRANCH  97 100
ATOM    100  N   UNL A   1      41.038  18.869  25.960  1.00  0.00    -0.352 N 
ATOM    101  C   UNL A   1      42.347  19.280  25.844  1.00  0.00     0.251 C 
ATOM    102  H   UNL A   1      40.860  17.941  25.679  1.00  0.00     0.163 HD
ATOM    103  O   UNL A   1      43.181  18.538  25.346  1.00  0.00    -0.269 OA
BRANCH 101 104
ATOM    104  C   UNL A   1      42.745  20.642  26.283  1.00  0.00     0.039 A 
ATOM    105  C   UNL A   1      43.165  21.558  25.314  1.00  0.00    -0.049 A 
ATOM    106  C   UNL A   1      42.712  21.020  27.628  1.00  0.00    -0.049 A 
ATOM    107  C   UNL A   1      43.493  22.865  25.686  1.00  0.00    -0.053 A 
ATOM    108  H   UNL A   1      43.231  21.269  24.326  1.00  0.00     0.063 H 
ATOM    109  C   UNL A   1      42.954  22.346  27.985  1.00  0.00    -0.053 A 
ATOM    110  H   UNL A   1      42.509  20.319  28.357  1.00  0.00     0.063 H 
ATOM    111  C   UNL A   1      43.359  23.280  27.020  1.00  0.00    -0.014 A 
ATOM    112  H   UNL A   1      43.838  23.528  24.974  1.00  0.00     0.063 H 
ATOM    113  H   UNL A   1      42.834  22.642  28.967  1.00  0.00     0.063 H 
BRANCH 111 114
ATOM    114  C   UNL A   1      43.658  24.680  27.423  1.00  0.00     0.031 A 
ATOM    115  C   UNL A   1      45.085  25.147  27.526  1.00  0.00     0.074 A 
ATOM    116  C   UNL A   1      42.650  25.517  27.739  1.00  0.00     0.049 A 
ATOM    117  N   UNL A   1      45.551  26.312  27.901  1.00  0.00    -0.248 NA
ATOM    118  C   UNL A   1      46.129  24.167  27.188  1.00  0.00    -0.034 C 
ATOM    119  C   UNL A   1      41.227  25.170  27.723  1.00  0.00    -0.036 A 
ATOM    120  N   UNL A   1      42.665  26.830  28.141  1.00  0.00    -0.354 N 
ATOM    121  C   UNL A   1      46.935  26.198  27.856  1.00  0.00     0.074 A 
ATOM    122  C   UNL A   1      47.234  24.834  27.480  1.00  0.00    -0.034 C 
ATOM    123  H   UNL A   1      46.025  23.208  26.820  1.00  0.00     0.065 H 
ATOM    124  C   UNL A   1      40.508  26.249  28.068  1.00  0.00    -0.036 A 
ATOM    125  H   UNL A   1      40.840  24.244  27.484  1.00  0.00     0.065 H 
ATOM    126  C   UNL A   1      41.416  27.352  28.371  1.00  0.00     0.049 A 
ATOM    127  H   UNL A   1      43.495  27.349  28.252  1.00  0.00     0.167 HD
ATOM    128  C   UNL A   1      47.871  27.151  28.080  1.00  0.00     0.037 A 
ATOM    129  H   UNL A   1      48.185  24.433  27.443  1.00  0.00     0.065 H 
ATOM    130  H   UNL A   1      39.477  26.292  28.112  1.00  0.00     0.065 H 
ATOM    131  C   UNL A   1      41.045  28.578  28.786  1.00  0.00     0.037 A 
ATOM    132  C   UNL A   1      47.567  28.513  28.434  1.00  0.00     0.049 A 
ATOM    133  C   UNL A   1      42.105  29.614  29.046  1.00  0.00     0.074 A 
ATOM    134  C   UNL A   1      48.438  29.569  28.628  1.00  0.00    -0.036 A 
ATOM    135  N   UNL A   1      46.287  29.005  28.651  1.00  0.00    -0.354 N 
ATOM    136  N   UNL A   1      43.407  29.514  28.930  1.00  0.00    -0.248 NA
ATOM    137  C   UNL A   1      41.644  30.938  29.488  1.00  0.00    -0.034 C 
ATOM    138  C   UNL A   1      47.693  30.685  29.020  1.00  0.00    -0.036 A 
ATOM    139  H   UNL A   1      49.463  29.539  28.503  1.00  0.00     0.065 H 
ATOM    140  C   UNL A   1      46.350  30.343  29.006  1.00  0.00     0.049 A 
ATOM    141  H   UNL A   1      45.459  28.480  28.566  1.00  0.00     0.167 HD
ATOM    142  C   UNL A   1      43.918  30.765  29.251  1.00  0.00     0.074 A 
ATOM    143  C   UNL A   1      42.782  31.613  29.551  1.00  0.00    -0.034 C 
ATOM    144  H   UNL A   1      40.685  31.258  29.695  1.00  0.00     0.065 H 
ATOM    145  H   UNL A   1      48.078  31.607  29.277  1.00  0.00     0.065 H 
ATOM    146  C   UNL A   1      45.209  31.175  29.294  1.00  0.00     0.037 A 
ATOM    147  H   UNL A   1      42.852  32.616  29.785  1.00  0.00     0.065 H 
BRANCH 128 148
ATOM    148  C   UNL A   1      49.315  26.753  27.950  1.00  0.00     0.064 A 
ATOM    149  C   UNL A   1      49.955  26.690  26.702  1.00  0.00     0.173 A 
ATOM    150  C   UNL A   1      50.080  26.465  29.091  1.00  0.00     0.173 A 
ATOM    151  F   UNL A   1      49.269  26.945  25.578  1.00  0.00    -0.203 F 
ATOM    152  C   UNL A   1      51.294  26.320  26.599  1.00  0.00     0.198 A 
ATOM    153  C   UNL A   1      51.428  26.130  28.987  1.00  0.00     0.198 A 
ATOM    154  F   UNL A   1      49.522  26.515  30.311  1.00  0.00    -0.203 F 
ATOM    155  F   UNL A   1      51.866  26.211  25.392  1.00  0.00    -0.200 F 
ATOM    156  C   UNL A   1      52.030  26.047  27.741  1.00  0.00     0.200 A 
ATOM    157  F   UNL A   1      52.142  25.881  30.093  1.00  0.00    -0.200 F 
ATOM    158  F   UNL A   1      53.321  25.699  27.641  1.00  0.00    -0.200 F 
ENDBRANCH 128 148
BRANCH 131 159
ATOM    159  C   UNL A   1      39.603  28.901  28.965  1.00  0.00     0.064 A 
ATOM    160  C   UNL A   1      38.820  29.335  27.886  1.00  0.00     0.173 A 
ATOM    161  C   UNL A   1      38.980  28.794  30.218  1.00  0.00     0.173 A 
ATOM    162  F   UNL A   1      39.373  29.473  26.672  1.00  0.00    -0.203 F 
ATOM    163  C   UNL A   1      37.479  29.673  28.057  1.00  0.00     0.198 A 
ATOM    164  C   UNL A   1      37.630  29.101  30.381  1.00  0.00     0.198 A 
ATOM    165  F   UNL A   1      39.680  28.378  31.284  1.00  0.00    -0.203 F 
ATOM    166  F   UNL A   1      36.770  30.137  27.018  1.00  0.00    -0.200 F 
ATOM    167  C   UNL A   1      36.884  29.551  29.302  1.00  0.00     0.200 A 
ATOM    168  F   UNL A   1      37.056  28.965  31.583  1.00  0.00    -0.200 F 
ATOM    169  F   UNL A   1      35.593  29.872  29.466  1.00  0.00    -0.200 F 
ENDBRANCH 131 159
BRANCH 146 170
ATOM    170  C   UNL A   1      45.466  32.614  29.641  1.00  0.00     0.064 A 
ATOM    171  C   UNL A   1      45.482  33.620  28.663  1.00  0.00     0.173 A 
ATOM    172  C   UNL A   1      45.658  32.995  30.978  1.00  0.00     0.173 A 
ATOM    173  F   UNL A   1      45.318  33.306  27.369  1.00  0.00    -0.203 F 
ATOM    174  C   UNL A   1      45.711  34.949  29.008  1.00  0.00     0.198 A 
ATOM    175  C   UNL A   1      45.850  34.331  31.323  1.00  0.00     0.198 A 
ATOM    176  F   UNL A   1      45.643  32.075  31.954  1.00  0.00    -0.203 F 
ATOM    177  F   UNL A   1      45.777  35.886  28.051  1.00  0.00    -0.200 F 
ATOM    178  C   UNL A   1      45.886  35.304  30.337  1.00  0.00     0.200 A 
ATOM    179  F   UNL A   1      46.000  34.674  32.610  1.00  0.00    -0.200 F 
ATOM    180  F   UNL A   1      46.095  36.587  30.668  1.00  0.00    -0.200 F 
ENDBRANCH 146 170
ENDBRANCH 111 114
ENDBRANCH 101 104
ENDBRANCH  97 100
ENDBRANCH  94  97
ENDBRANCH   1  94
TORSDOF 21
ENDMDL
MODEL 3
REMARK VINA RESULT:     -12.0      0.201      1.479
REMARK SMILES C[C@H]1[C@H](C)CC[C@@]2(C(=O)NCCCCCCNC(=O)c3ccc(-c4c5nc(c(-c6c(F)c(F)c(F)c(F)c6F)c6ccc([nH]6)c(-c6c(F)c(F)c(F)c(F)c6F)c6nc(c(-c7c(F)c(F)c(F)c(F)c7F)c7ccc4[nH]7)C=C6)C=C5)cc3)CC[C@@]3(C)C(=CC[C@@H]4[C@@]5(C)CC[C@H](O)C(C)(C)[C@@H]5CC[C@]43C)[C@H]12
REMARK SMILES IDX 14 1 13 4 12 7 11 10 10 13 8 14 9 15 7 17 2 18 3 19 105 20
REMARK SMILES IDX 5 22 87 24 6 26 83 29 85 30 88 31 84 34 103 37 89 38 90 42
REMARK SMILES IDX 102 43 91 46 101 48 93 51 100 52 94 55 97 58 95 60 1 64 4 68
REMARK SMILES IDX 86 72 104 76 92 80 98 84 99 88 96 92 15 94 16 97 17 100
REMARK SMILES IDX 18 101 19 103 20 104 21 105 82 106 22 107 81 109 23 111
REMARK SMILES IDX 24 114 25 115 75 116 26 117 80 118 74 119 76 120 27 121
REMARK SMILES IDX 79 122 73 124 72 126 28 128 60 131 40 132 59 133 41 134
REMARK SMILES IDX 44 135 58 136 77 137 42 138 43 140 57 142 78 143 45 146
REMARK SMILES IDX 29 148 30 149 38 150 31 151 32 152 36 153 39 154 33 155
REMARK SMILES IDX 34 156 37 157 35 158 61 159 62 160 70 161 63 162 64 163
REMARK SMILES IDX 68 164 71 165 65 166 66 167 69 168 67 169 46 170 47 171
REMARK SMILES IDX 55 172 48 173 49 174 53 175 56 176 50 177 51 178 54 179
REMARK SMILES IDX 52 180
REMARK H PARENT 14 2 14 3 13 5 13 6 12 8 12 9 11 11 11 12 10 16 2 21 3 23
REMARK H PARENT 105 25 5 27 5 28 6 32 6 33 83 35 83 36 88 39 84 40 84 41 89 44
REMARK H PARENT 89 45 90 47 102 49 102 50 101 53 101 54 93 56 93 57 100 59
REMARK H PARENT 94 61 94 62 95 63 1 65 1 66 1 67 4 69 4 70 4 71 86 73 86 74
REMARK H PARENT 86 75 104 77 104 78 104 79 92 81 92 82 92 83 98 85 98 86 98 87
REMARK H PARENT 99 89 99 90 99 91 96 93 15 95 15 96 16 98 16 99 17 102 21 108
REMARK H PARENT 82 110 22 112 81 113 80 123 74 125 76 127 79 129 73 130 41 139
REMARK H PARENT 44 141 77 144 42 145 78 147
REMARK Flexibility Score: inf
ROOT
ATOM      1  C   UNL A   1      39.280  22.133  26.496  1.00  0.00    -0.052 C 
ATOM      2  H   UNL A   1      38.604  21.899  27.291  1.00  0.00     0.027 H 
ATOM      3  H   UNL A   1      40.259  22.451  26.789  1.00  0.00     0.027 H 
ENDROOT
BRANCH   1   4
ATOM      4  C   UNL A   1      38.700  23.340  25.751  1.00  0.00    -0.052 C 
ATOM      5  H   UNL A   1      39.522  23.986  25.521  1.00  0.00     0.027 H 
ATOM      6  H   UNL A   1      38.180  22.898  24.927  1.00  0.00     0.027 H 
BRANCH   4   7
ATOM      7  C   UNL A   1      37.626  24.209  26.424  1.00  0.00    -0.036 C 
ATOM      8  H   UNL A   1      37.758  24.109  27.482  1.00  0.00     0.028 H 
ATOM      9  H   UNL A   1      37.788  25.184  26.016  1.00  0.00     0.028 H 
BRANCH   7  10
ATOM     10  C   UNL A   1      36.151  23.921  26.126  1.00  0.00     0.017 C 
ATOM     11  H   UNL A   1      35.571  24.739  26.499  1.00  0.00     0.049 H 
ATOM     12  H   UNL A   1      36.079  23.798  25.066  1.00  0.00     0.049 H 
BRANCH  10  13
ATOM     13  N   UNL A   1      35.633  22.698  26.713  1.00  0.00    -0.356 N 
ATOM     14  C   UNL A   1      34.887  21.686  26.164  1.00  0.00     0.226 C 
ATOM     15  O   UNL A   1      34.002  21.252  26.913  1.00  0.00    -0.274 OA
ATOM     16  H   UNL A   1      35.854  22.574  27.664  1.00  0.00     0.163 HD
BRANCH  14  17
ATOM     17  C   UNL A   1      35.138  21.029  24.749  1.00  0.00     0.056 C 
ATOM     18  C   UNL A   1      33.456  19.060  24.732  1.00  0.00    -0.034 C 
ATOM     19  C   UNL A   1      34.647  18.062  24.544  1.00  0.00    -0.041 C 
ATOM     20  C   UNL A   1      33.832  20.446  24.130  1.00  0.00    -0.002 C 
ATOM     21  H   UNL A   1      33.277  19.182  25.780  1.00  0.00     0.031 H 
ATOM     22  C   UNL A   1      36.022  18.585  25.001  1.00  0.00    -0.049 C 
ATOM     23  H   UNL A   1      34.622  17.943  23.481  1.00  0.00     0.030 H 
ATOM     24  C   UNL A   1      32.833  21.628  24.134  1.00  0.00    -0.063 C 
ATOM     25  H   UNL A   1      33.894  20.125  23.111  1.00  0.00     0.036 H 
ATOM     26  C   UNL A   1      36.320  20.050  24.790  1.00  0.00    -0.038 C 
ATOM     27  H   UNL A   1      36.767  18.027  24.474  1.00  0.00     0.027 H 
ATOM     28  H   UNL A   1      36.020  18.460  26.064  1.00  0.00     0.027 H 
ATOM     29  C   UNL A   1      35.622  22.138  23.736  1.00  0.00    -0.037 C 
ATOM     30  C   UNL A   1      33.131  22.761  23.105  1.00  0.00    -0.006 C 
ATOM     31  C   UNL A   1      31.974  21.811  25.158  1.00  0.00    -0.084 C 
ATOM     32  H   UNL A   1      36.837  20.137  23.857  1.00  0.00     0.028 H 
ATOM     33  H   UNL A   1      36.874  20.337  25.659  1.00  0.00     0.028 H 
ATOM     34  C   UNL A   1      34.618  23.209  23.303  1.00  0.00    -0.043 C 
ATOM     35  H   UNL A   1      35.952  21.636  22.850  1.00  0.00     0.028 H 
ATOM     36  H   UNL A   1      36.374  22.679  24.272  1.00  0.00     0.028 H 
ATOM     37  C   UNL A   1      32.137  24.039  23.301  1.00  0.00    -0.020 C 
ATOM     38  C   UNL A   1      31.413  23.155  25.555  1.00  0.00    -0.031 C 
ATOM     39  H   UNL A   1      31.683  20.983  25.703  1.00  0.00     0.058 H 
ATOM     40  H   UNL A   1      34.960  23.613  22.373  1.00  0.00     0.028 H 
ATOM     41  H   UNL A   1      34.589  23.902  24.118  1.00  0.00     0.028 H 
ATOM     42  C   UNL A   1      32.140  24.331  24.846  1.00  0.00    -0.026 C 
ATOM     43  C   UNL A   1      32.596  25.275  22.481  1.00  0.00    -0.046 C 
ATOM     44  H   UNL A   1      31.520  23.274  26.613  1.00  0.00     0.031 H 
ATOM     45  H   UNL A   1      30.385  23.180  25.260  1.00  0.00     0.031 H 
ATOM     46  C   UNL A   1      31.802  25.791  25.364  1.00  0.00    -0.025 C 
ATOM     47  H   UNL A   1      33.167  24.363  25.144  1.00  0.00     0.032 H 
ATOM     48  C   UNL A   1      31.927  26.580  22.920  1.00  0.00    -0.049 C 
ATOM     49  H   UNL A   1      33.655  25.383  22.593  1.00  0.00     0.027 H 
ATOM     50  H   UNL A   1      32.311  25.102  21.464  1.00  0.00     0.027 H 
ATOM     51  C   UNL A   1      32.613  26.036  26.680  1.00  0.00    -0.045 C 
ATOM     52  C   UNL A   1      32.331  26.890  24.364  1.00  0.00    -0.028 C 
ATOM     53  H   UNL A   1      32.244  27.378  22.281  1.00  0.00     0.027 H 
ATOM     54  H   UNL A   1      30.864  26.479  22.857  1.00  0.00     0.027 H 
ATOM     55  C   UNL A   1      32.482  27.453  27.241  1.00  0.00    -0.026 C 
ATOM     56  H   UNL A   1      33.647  25.849  26.478  1.00  0.00     0.027 H 
ATOM     57  H   UNL A   1      32.210  25.374  27.419  1.00  0.00     0.027 H 
ATOM     58  C   UNL A   1      32.122  28.385  24.819  1.00  0.00    -0.006 C 
ATOM     59  H   UNL A   1      33.398  26.818  24.396  1.00  0.00     0.031 H 
ATOM     60  C   UNL A   1      32.783  28.556  26.223  1.00  0.00     0.059 C 
ATOM     61  H   UNL A   1      33.164  27.554  28.059  1.00  0.00     0.029 H 
ATOM     62  H   UNL A   1      31.461  27.574  27.536  1.00  0.00     0.029 H 
ATOM     63  H   UNL A   1      33.831  28.491  26.013  1.00  0.00     0.061 H 
BRANCH  18  64
ATOM     64  C   UNL A   1      32.153  18.514  24.128  1.00  0.00    -0.062 C 
ATOM     65  H   UNL A   1      31.567  18.057  24.898  1.00  0.00     0.023 H 
ATOM     66  H   UNL A   1      32.385  17.786  23.377  1.00  0.00     0.023 H 
ATOM     67  H   UNL A   1      31.600  19.317  23.687  1.00  0.00     0.023 H 
ENDBRANCH  18  64
BRANCH  19  68
ATOM     68  C   UNL A   1      34.479  16.707  25.254  1.00  0.00    -0.062 C 
ATOM     69  H   UNL A   1      33.940  16.848  26.167  1.00  0.00     0.023 H 
ATOM     70  H   UNL A   1      35.442  16.294  25.469  1.00  0.00     0.023 H 
ATOM     71  H   UNL A   1      33.937  16.038  24.619  1.00  0.00     0.023 H 
ENDBRANCH  19  68
BRANCH  30  72
ATOM     72  C   UNL A   1      32.985  22.203  21.664  1.00  0.00    -0.055 C 
ATOM     73  H   UNL A   1      33.516  22.835  20.982  1.00  0.00     0.024 H 
ATOM     74  H   UNL A   1      31.951  22.176  21.395  1.00  0.00     0.024 H 
ATOM     75  H   UNL A   1      33.390  21.214  21.623  1.00  0.00     0.024 H 
ENDBRANCH  30  72
BRANCH  37  76
ATOM     76  C   UNL A   1      30.701  23.713  22.784  1.00  0.00    -0.059 C 
ATOM     77  H   UNL A   1      30.341  22.828  23.267  1.00  0.00     0.024 H 
ATOM     78  H   UNL A   1      30.731  23.554  21.726  1.00  0.00     0.024 H 
ATOM     79  H   UNL A   1      30.048  24.531  23.004  1.00  0.00     0.024 H 
ENDBRANCH  37  76
BRANCH  46  80
ATOM     80  C   UNL A   1      30.301  25.888  25.690  1.00  0.00    -0.059 C 
ATOM     81  H   UNL A   1      29.894  26.769  25.241  1.00  0.00     0.024 H 
ATOM     82  H   UNL A   1      30.169  25.935  26.752  1.00  0.00     0.024 H 
ATOM     83  H   UNL A   1      29.796  25.026  25.305  1.00  0.00     0.024 H 
ENDBRANCH  46  80
BRANCH  58  84
ATOM     84  C   UNL A   1      30.653  28.861  24.794  1.00  0.00    -0.057 C 
ATOM     85  H   UNL A   1      30.392  29.260  25.751  1.00  0.00     0.024 H 
ATOM     86  H   UNL A   1      30.014  28.033  24.566  1.00  0.00     0.024 H 
ATOM     87  H   UNL A   1      30.536  29.618  24.047  1.00  0.00     0.024 H 
ENDBRANCH  58  84
BRANCH  58  88
ATOM     88  C   UNL A   1      32.868  29.352  23.854  1.00  0.00    -0.057 C 
ATOM     89  H   UNL A   1      32.186  30.095  23.495  1.00  0.00     0.024 H 
ATOM     90  H   UNL A   1      33.260  28.799  23.026  1.00  0.00     0.024 H 
ATOM     91  H   UNL A   1      33.671  29.830  24.376  1.00  0.00     0.024 H 
ENDBRANCH  58  88
BRANCH  60  92
ATOM     92  O   UNL A   1      32.452  29.819  26.803  1.00  0.00    -0.393 OA
ATOM     93  H   UNL A   1      33.211  30.153  27.304  1.00  0.00     0.210 HD
ENDBRANCH  60  92
ENDBRANCH  14  17
ENDBRANCH  10  13
ENDBRANCH   7  10
ENDBRANCH   4   7
ENDBRANCH   1   4
BRANCH   1  94
ATOM     94  C   UNL A   1      39.524  20.845  25.716  1.00  0.00    -0.036 C 
ATOM     95  H   UNL A   1      40.358  21.020  25.069  1.00  0.00     0.028 H 
ATOM     96  H   UNL A   1      38.591  20.648  25.229  1.00  0.00     0.028 H 
BRANCH  94  97
ATOM     97  C   UNL A   1      39.818  19.578  26.501  1.00  0.00     0.018 C 
ATOM     98  H   UNL A   1      38.958  18.943  26.448  1.00  0.00     0.049 H 
ATOM     99  H   UNL A   1      40.047  19.883  27.501  1.00  0.00     0.049 H 
BRANCH  97 100
ATOM    100  N   UNL A   1      40.963  18.834  26.021  1.00  0.00    -0.352 N 
ATOM    101  C   UNL A   1      42.272  19.242  25.887  1.00  0.00     0.251 C 
ATOM    102  H   UNL A   1      40.780  17.904  25.752  1.00  0.00     0.163 HD
ATOM    103  O   UNL A   1      43.099  18.492  25.389  1.00  0.00    -0.269 OA
BRANCH 101 104
ATOM    104  C   UNL A   1      42.677  20.607  26.307  1.00  0.00     0.039 A 
ATOM    105  C   UNL A   1      43.083  21.514  25.324  1.00  0.00    -0.049 A 
ATOM    106  C   UNL A   1      42.663  20.998  27.649  1.00  0.00    -0.049 A 
ATOM    107  C   UNL A   1      43.418  22.823  25.678  1.00  0.00    -0.053 A 
ATOM    108  H   UNL A   1      43.136  21.215  24.338  1.00  0.00     0.063 H 
ATOM    109  C   UNL A   1      42.911  22.328  27.989  1.00  0.00    -0.053 A 
ATOM    110  H   UNL A   1      42.470  20.304  28.387  1.00  0.00     0.063 H 
ATOM    111  C   UNL A   1      43.303  23.252  27.010  1.00  0.00    -0.014 A 
ATOM    112  H   UNL A   1      43.753  23.479  24.955  1.00  0.00     0.063 H 
ATOM    113  H   UNL A   1      42.805  22.633  28.970  1.00  0.00     0.063 H 
BRANCH 111 114
ATOM    114  C   UNL A   1      43.609  24.655  27.395  1.00  0.00     0.031 A 
ATOM    115  C   UNL A   1      45.036  25.130  27.444  1.00  0.00     0.074 A 
ATOM    116  C   UNL A   1      42.609  25.488  27.743  1.00  0.00     0.049 A 
ATOM    117  N   UNL A   1      45.510  26.299  27.796  1.00  0.00    -0.248 NA
ATOM    118  C   UNL A   1      46.072  24.153  27.073  1.00  0.00    -0.034 C 
ATOM    119  C   UNL A   1      41.188  25.134  27.780  1.00  0.00    -0.036 A 
ATOM    120  N   UNL A   1      42.631  26.803  28.138  1.00  0.00    -0.354 N 
ATOM    121  C   UNL A   1      46.892  26.192  27.702  1.00  0.00     0.074 A 
ATOM    122  C   UNL A   1      47.184  24.828  27.322  1.00  0.00    -0.034 C 
ATOM    123  H   UNL A   1      45.961  23.193  26.714  1.00  0.00     0.065 H 
ATOM    124  C   UNL A   1      40.476  26.211  28.146  1.00  0.00    -0.036 A 
ATOM    125  H   UNL A   1      40.798  24.205  27.560  1.00  0.00     0.065 H 
ATOM    126  C   UNL A   1      41.388  27.320  28.410  1.00  0.00     0.049 A 
ATOM    127  H   UNL A   1      43.462  27.328  28.216  1.00  0.00     0.167 HD
ATOM    128  C   UNL A   1      47.830  27.151  27.888  1.00  0.00     0.037 A 
ATOM    129  H   UNL A   1      48.135  24.432  27.253  1.00  0.00     0.065 H 
ATOM    130  H   UNL A   1      39.447  26.249  28.226  1.00  0.00     0.065 H 
ATOM    131  C   UNL A   1      41.026  28.546  28.833  1.00  0.00     0.037 A 
ATOM    132  C   UNL A   1      47.532  28.513  28.246  1.00  0.00     0.049 A 
ATOM    133  C   UNL A   1      42.089  29.590  29.049  1.00  0.00     0.074 A 
ATOM    134  C   UNL A   1      48.404  29.575  28.403  1.00  0.00    -0.036 A 
ATOM    135  N   UNL A   1      46.258  28.999  28.507  1.00  0.00    -0.354 N 
ATOM    136  N   UNL A   1      43.387  29.496  28.887  1.00  0.00    -0.248 NA
ATOM    137  C   UNL A   1      41.638  30.913  29.501  1.00  0.00    -0.034 C 
ATOM    138  C   UNL A   1      47.667  30.689  28.817  1.00  0.00    -0.036 A 
ATOM    139  H   UNL A   1      49.424  29.549  28.242  1.00  0.00     0.065 H 
ATOM    140  C   UNL A   1      46.327  30.340  28.853  1.00  0.00     0.049 A 
ATOM    141  H   UNL A   1      45.430  28.470  28.454  1.00  0.00     0.167 HD
ATOM    142  C   UNL A   1      43.902  30.750  29.183  1.00  0.00     0.074 A 
ATOM    143  C   UNL A   1      42.774  31.594  29.520  1.00  0.00    -0.034 C 
ATOM    144  H   UNL A   1      40.685  31.229  29.740  1.00  0.00     0.065 H 
ATOM    145  H   UNL A   1      48.056  31.614  29.055  1.00  0.00     0.065 H 
ATOM    146  C   UNL A   1      45.192  31.167  29.178  1.00  0.00     0.037 A 
ATOM    147  H   UNL A   1      42.846  32.598  29.746  1.00  0.00     0.065 H 
BRANCH 128 148
ATOM    148  C   UNL A   1      49.270  26.760  27.707  1.00  0.00     0.064 A 
ATOM    149  C   UNL A   1      50.109  26.500  28.802  1.00  0.00     0.173 A 
ATOM    150  C   UNL A   1      49.811  26.608  26.421  1.00  0.00     0.173 A 
ATOM    151  F   UNL A   1      49.647  26.640  30.054  1.00  0.00    -0.203 F 
ATOM    152  C   UNL A   1      51.441  26.139  28.618  1.00  0.00     0.198 A 
ATOM    153  C   UNL A   1      51.134  26.211  26.240  1.00  0.00     0.198 A 
ATOM    154  F   UNL A   1      49.054  26.837  25.337  1.00  0.00    -0.203 F 
ATOM    155  F   UNL A   1      52.237  25.953  29.681  1.00  0.00    -0.200 F 
ATOM    156  C   UNL A   1      51.950  25.988  27.337  1.00  0.00     0.200 A 
ATOM    157  F   UNL A   1      51.620  26.052  25.001  1.00  0.00    -0.200 F 
ATOM    158  F   UNL A   1      53.230  25.632  27.161  1.00  0.00    -0.200 F 
ENDBRANCH 128 148
BRANCH 131 159
ATOM    159  C   UNL A   1      39.590  28.863  29.062  1.00  0.00     0.064 A 
ATOM    160  C   UNL A   1      38.769  29.296  28.011  1.00  0.00     0.173 A 
ATOM    161  C   UNL A   1      39.011  28.751  30.335  1.00  0.00     0.173 A 
ATOM    162  F   UNL A   1      39.278  29.438  26.779  1.00  0.00    -0.203 F 
ATOM    163  C   UNL A   1      37.432  29.628  28.229  1.00  0.00     0.198 A 
ATOM    164  C   UNL A   1      37.666  29.051  30.545  1.00  0.00     0.198 A 
ATOM    165  F   UNL A   1      39.749  28.336  31.375  1.00  0.00    -0.203 F 
ATOM    166  F   UNL A   1      36.686  30.090  27.217  1.00  0.00    -0.200 F 
ATOM    167  C   UNL A   1      36.881  29.500  29.494  1.00  0.00     0.200 A 
ATOM    168  F   UNL A   1      37.134  28.911  31.767  1.00  0.00    -0.200 F 
ATOM    169  F   UNL A   1      35.596  29.816  29.703  1.00  0.00    -0.200 F 
ENDBRANCH 131 159
BRANCH 146 170
ATOM    170  C   UNL A   1      45.453  32.609  29.508  1.00  0.00     0.064 A 
ATOM    171  C   UNL A   1      45.751  33.029  30.812  1.00  0.00     0.173 A 
ATOM    172  C   UNL A   1      45.444  33.580  28.493  1.00  0.00     0.173 A 
ATOM    173  F   UNL A   1      45.757  32.144  31.821  1.00  0.00    -0.203 F 
ATOM    174  C   UNL A   1      46.000  34.370  31.094  1.00  0.00     0.198 A 
ATOM    175  C   UNL A   1      45.731  34.913  28.772  1.00  0.00     0.198 A 
ATOM    176  F   UNL A   1      45.175  33.232  27.225  1.00  0.00    -0.203 F 
ATOM    177  F   UNL A   1      46.229  34.755  32.357  1.00  0.00    -0.200 F 
ATOM    178  C   UNL A   1      45.999  35.308  30.073  1.00  0.00     0.200 A 
ATOM    179  F   UNL A   1      45.747  35.816  27.781  1.00  0.00    -0.200 F 
ATOM    180  F   UNL A   1      46.250  36.596  30.345  1.00  0.00    -0.200 F 
ENDBRANCH 146 170
ENDBRANCH 111 114
ENDBRANCH 101 104
ENDBRANCH  97 100
ENDBRANCH  94  97
ENDBRANCH   1  94
TORSDOF 21
ENDMDL
MODEL 4
REMARK VINA RESULT:     -12.0      5.045     10.075
REMARK SMILES C[C@H]1[C@H](C)CC[C@@]2(C(=O)NCCCCCCNC(=O)c3ccc(-c4c5nc(c(-c6c(F)c(F)c(F)c(F)c6F)c6ccc([nH]6)c(-c6c(F)c(F)c(F)c(F)c6F)c6nc(c(-c7c(F)c(F)c(F)c(F)c7F)c7ccc4[nH]7)C=C6)C=C5)cc3)CC[C@@]3(C)C(=CC[C@@H]4[C@@]5(C)CC[C@H](O)C(C)(C)[C@@H]5CC[C@]43C)[C@H]12
REMARK SMILES IDX 14 1 13 4 12 7 11 10 10 13 8 14 9 15 7 17 2 18 3 19 105 20
REMARK SMILES IDX 5 22 87 24 6 26 83 29 85 30 88 31 84 34 103 37 89 38 90 42
REMARK SMILES IDX 102 43 91 46 101 48 93 51 100 52 94 55 97 58 95 60 1 64 4 68
REMARK SMILES IDX 86 72 104 76 92 80 98 84 99 88 96 92 15 94 16 97 17 100
REMARK SMILES IDX 18 101 19 103 20 104 21 105 82 106 22 107 81 109 23 111
REMARK SMILES IDX 24 114 25 115 75 116 26 117 80 118 74 119 76 120 27 121
REMARK SMILES IDX 79 122 73 124 72 126 28 128 60 131 40 132 59 133 41 134
REMARK SMILES IDX 44 135 58 136 77 137 42 138 43 140 57 142 78 143 45 146
REMARK SMILES IDX 29 148 30 149 38 150 31 151 32 152 36 153 39 154 33 155
REMARK SMILES IDX 34 156 37 157 35 158 61 159 62 160 70 161 63 162 64 163
REMARK SMILES IDX 68 164 71 165 65 166 66 167 69 168 67 169 46 170 47 171
REMARK SMILES IDX 55 172 48 173 49 174 53 175 56 176 50 177 51 178 54 179
REMARK SMILES IDX 52 180
REMARK H PARENT 14 2 14 3 13 5 13 6 12 8 12 9 11 11 11 12 10 16 2 21 3 23
REMARK H PARENT 105 25 5 27 5 28 6 32 6 33 83 35 83 36 88 39 84 40 84 41 89 44
REMARK H PARENT 89 45 90 47 102 49 102 50 101 53 101 54 93 56 93 57 100 59
REMARK H PARENT 94 61 94 62 95 63 1 65 1 66 1 67 4 69 4 70 4 71 86 73 86 74
REMARK H PARENT 86 75 104 77 104 78 104 79 92 81 92 82 92 83 98 85 98 86 98 87
REMARK H PARENT 99 89 99 90 99 91 96 93 15 95 15 96 16 98 16 99 17 102 21 108
REMARK H PARENT 82 110 22 112 81 113 80 123 74 125 76 127 79 129 73 130 41 139
REMARK H PARENT 44 141 77 144 42 145 78 147
REMARK Flexibility Score: inf
ROOT
ATOM      1  C   UNL A   1      34.298  31.461  28.383  1.00  0.00    -0.052 C 
ATOM      2  H   UNL A   1      35.014  32.206  28.656  1.00  0.00     0.027 H 
ATOM      3  H   UNL A   1      33.987  30.796  29.163  1.00  0.00     0.027 H 
ENDROOT
BRANCH   1   4
ATOM      4  C   UNL A   1      34.969  30.544  27.354  1.00  0.00    -0.052 C 
ATOM      5  H   UNL A   1      34.555  30.793  26.400  1.00  0.00     0.027 H 
ATOM      6  H   UNL A   1      36.013  30.731  27.498  1.00  0.00     0.027 H 
BRANCH   4   7
ATOM      7  C   UNL A   1      34.858  29.019  27.505  1.00  0.00    -0.036 C 
ATOM      8  H   UNL A   1      35.838  28.652  27.729  1.00  0.00     0.028 H 
ATOM      9  H   UNL A   1      34.116  28.886  28.264  1.00  0.00     0.028 H 
BRANCH   7  10
ATOM     10  C   UNL A   1      34.330  28.197  26.323  1.00  0.00     0.017 C 
ATOM     11  H   UNL A   1      35.090  27.499  26.040  1.00  0.00     0.049 H 
ATOM     12  H   UNL A   1      33.429  27.732  26.662  1.00  0.00     0.049 H 
BRANCH  10  13
ATOM     13  N   UNL A   1      33.971  28.972  25.149  1.00  0.00    -0.356 N 
ATOM     14  C   UNL A   1      32.786  29.061  24.462  1.00  0.00     0.226 C 
ATOM     15  O   UNL A   1      32.922  29.103  23.232  1.00  0.00    -0.274 OA
ATOM     16  H   UNL A   1      34.698  29.526  24.784  1.00  0.00     0.163 HD
BRANCH  14  17
ATOM     17  C   UNL A   1      31.356  29.190  25.119  1.00  0.00     0.056 C 
ATOM     18  C   UNL A   1      29.833  29.648  23.076  1.00  0.00    -0.034 C 
ATOM     19  C   UNL A   1      29.399  31.008  23.720  1.00  0.00    -0.041 C 
ATOM     20  C   UNL A   1      30.230  28.639  24.193  1.00  0.00    -0.002 C 
ATOM     21  H   UNL A   1      30.687  29.824  22.456  1.00  0.00     0.031 H 
ATOM     22  C   UNL A   1      30.379  31.585  24.758  1.00  0.00    -0.049 C 
ATOM     23  H   UNL A   1      28.485  30.705  24.189  1.00  0.00     0.030 H 
ATOM     24  C   UNL A   1      30.668  27.193  23.860  1.00  0.00    -0.063 C 
ATOM     25  H   UNL A   1      29.257  28.552  24.632  1.00  0.00     0.036 H 
ATOM     26  C   UNL A   1      31.111  30.611  25.649  1.00  0.00    -0.038 C 
ATOM     27  H   UNL A   1      29.822  32.242  25.392  1.00  0.00     0.027 H 
ATOM     28  H   UNL A   1      31.148  32.049  24.176  1.00  0.00     0.027 H 
ATOM     29  C   UNL A   1      31.296  28.304  26.423  1.00  0.00    -0.037 C 
ATOM     30  C   UNL A   1      30.565  26.174  25.036  1.00  0.00    -0.006 C 
ATOM     31  C   UNL A   1      31.378  26.919  22.746  1.00  0.00    -0.084 C 
ATOM     32  H   UNL A   1      30.545  30.520  26.552  1.00  0.00     0.028 H 
ATOM     33  H   UNL A   1      32.091  31.029  25.753  1.00  0.00     0.028 H 
ATOM     34  C   UNL A   1      31.325  26.781  26.263  1.00  0.00    -0.043 C 
ATOM     35  H   UNL A   1      30.390  28.552  26.935  1.00  0.00     0.028 H 
ATOM     36  H   UNL A   1      32.203  28.533  26.943  1.00  0.00     0.028 H 
ATOM     37  C   UNL A   1      31.210  24.728  24.647  1.00  0.00    -0.020 C 
ATOM     38  C   UNL A   1      32.321  25.747  22.618  1.00  0.00    -0.031 C 
ATOM     39  H   UNL A   1      31.272  27.548  21.934  1.00  0.00     0.058 H 
ATOM     40  H   UNL A   1      30.899  26.357  27.148  1.00  0.00     0.028 H 
ATOM     41  H   UNL A   1      32.355  26.543  26.094  1.00  0.00     0.028 H 
ATOM     42  C   UNL A   1      32.597  25.059  23.983  1.00  0.00    -0.026 C 
ATOM     43  C   UNL A   1      31.370  23.800  25.881  1.00  0.00    -0.046 C 
ATOM     44  H   UNL A   1      33.249  26.095  22.215  1.00  0.00     0.031 H 
ATOM     45  H   UNL A   1      31.861  25.027  21.976  1.00  0.00     0.031 H 
ATOM     46  C   UNL A   1      33.754  23.974  24.012  1.00  0.00    -0.025 C 
ATOM     47  H   UNL A   1      33.092  25.739  24.645  1.00  0.00     0.032 H 
ATOM     48  C   UNL A   1      32.298  22.610  25.633  1.00  0.00    -0.049 C 
ATOM     49  H   UNL A   1      31.768  24.377  26.690  1.00  0.00     0.027 H 
ATOM     50  H   UNL A   1      30.401  23.404  26.105  1.00  0.00     0.027 H 
ATOM     51  C   UNL A   1      35.123  24.731  24.075  1.00  0.00    -0.045 C 
ATOM     52  C   UNL A   1      33.710  23.126  25.339  1.00  0.00    -0.028 C 
ATOM     53  H   UNL A   1      32.319  21.984  26.501  1.00  0.00     0.027 H 
ATOM     54  H   UNL A   1      31.941  22.042  24.799  1.00  0.00     0.027 H 
ATOM     55  C   UNL A   1      36.337  23.814  24.226  1.00  0.00    -0.026 C 
ATOM     56  H   UNL A   1      35.100  25.398  24.911  1.00  0.00     0.027 H 
ATOM     57  H   UNL A   1      35.237  25.241  23.141  1.00  0.00     0.027 H 
ATOM     58  C   UNL A   1      34.867  22.068  25.513  1.00  0.00    -0.006 C 
ATOM     59  H   UNL A   1      33.945  23.811  26.127  1.00  0.00     0.031 H 
ATOM     60  C   UNL A   1      36.228  22.822  25.388  1.00  0.00     0.059 C 
ATOM     61  H   UNL A   1      37.201  24.425  24.384  1.00  0.00     0.029 H 
ATOM     62  H   UNL A   1      36.399  23.234  23.329  1.00  0.00     0.029 H 
ATOM     63  H   UNL A   1      36.271  23.406  26.284  1.00  0.00     0.061 H 
BRANCH  18  64
ATOM     64  C   UNL A   1      28.739  29.077  22.158  1.00  0.00    -0.062 C 
ATOM     65  H   UNL A   1      27.945  28.680  22.755  1.00  0.00     0.023 H 
ATOM     66  H   UNL A   1      29.153  28.299  21.551  1.00  0.00     0.023 H 
ATOM     67  H   UNL A   1      28.358  29.856  21.530  1.00  0.00     0.023 H 
ENDBRANCH  18  64
BRANCH  19  68
ATOM     68  C   UNL A   1      29.153  32.152  22.722  1.00  0.00    -0.062 C 
ATOM     69  H   UNL A   1      28.402  31.856  22.019  1.00  0.00     0.023 H 
ATOM     70  H   UNL A   1      30.060  32.373  22.201  1.00  0.00     0.023 H 
ATOM     71  H   UNL A   1      28.823  33.021  23.251  1.00  0.00     0.023 H 
ENDBRANCH  19  68
BRANCH  30  72
ATOM     72  C   UNL A   1      29.077  25.991  25.435  1.00  0.00    -0.055 C 
ATOM     73  H   UNL A   1      29.018  25.684  26.459  1.00  0.00     0.024 H 
ATOM     74  H   UNL A   1      28.630  25.246  24.812  1.00  0.00     0.024 H 
ATOM     75  H   UNL A   1      28.559  26.918  25.310  1.00  0.00     0.024 H 
ENDBRANCH  30  72
BRANCH  37  76
ATOM     76  C   UNL A   1      30.280  23.949  23.665  1.00  0.00    -0.059 C 
ATOM     77  H   UNL A   1      29.328  24.435  23.614  1.00  0.00     0.024 H 
ATOM     78  H   UNL A   1      30.150  22.946  24.017  1.00  0.00     0.024 H 
ATOM     79  H   UNL A   1      30.724  23.930  22.692  1.00  0.00     0.024 H 
ENDBRANCH  37  76
BRANCH  46  80
ATOM     80  C   UNL A   1      33.714  23.145  22.716  1.00  0.00    -0.059 C 
ATOM     81  H   UNL A   1      33.990  22.134  22.931  1.00  0.00     0.024 H 
ATOM     82  H   UNL A   1      34.399  23.559  22.006  1.00  0.00     0.024 H 
ATOM     83  H   UNL A   1      32.723  23.164  22.310  1.00  0.00     0.024 H 
ENDBRANCH  46  80
BRANCH  58  84
ATOM     84  C   UNL A   1      34.771  20.856  24.562  1.00  0.00    -0.057 C 
ATOM     85  H   UNL A   1      35.724  20.372  24.504  1.00  0.00     0.024 H 
ATOM     86  H   UNL A   1      34.480  21.189  23.587  1.00  0.00     0.024 H 
ATOM     87  H   UNL A   1      34.043  20.167  24.935  1.00  0.00     0.024 H 
ENDBRANCH  58  84
BRANCH  58  88
ATOM     88  C   UNL A   1      34.827  21.454  26.943  1.00  0.00    -0.057 C 
ATOM     89  H   UNL A   1      35.826  21.321  27.303  1.00  0.00     0.024 H 
ATOM     90  H   UNL A   1      34.331  20.507  26.911  1.00  0.00     0.024 H 
ATOM     91  H   UNL A   1      34.297  22.112  27.600  1.00  0.00     0.024 H 
ENDBRANCH  58  88
BRANCH  60  92
ATOM     92  O   UNL A   1      37.324  21.907  25.315  1.00  0.00    -0.393 OA
ATOM     93  H   UNL A   1      37.991  22.251  24.702  1.00  0.00     0.210 HD
ENDBRANCH  60  92
ENDBRANCH  14  17
ENDBRANCH  10  13
ENDBRANCH   7  10
ENDBRANCH   4   7
ENDBRANCH   1   4
BRANCH   1  94
ATOM     94  C   UNL A   1      33.018  32.189  27.983  1.00  0.00    -0.036 C 
ATOM     95  H   UNL A   1      32.472  32.387  28.882  1.00  0.00     0.028 H 
ATOM     96  H   UNL A   1      32.544  31.530  27.286  1.00  0.00     0.028 H 
BRANCH  94  97
ATOM     97  C   UNL A   1      33.149  33.505  27.234  1.00  0.00     0.018 C 
ATOM     98  H   UNL A   1      32.595  33.427  26.321  1.00  0.00     0.049 H 
ATOM     99  H   UNL A   1      34.195  33.663  27.072  1.00  0.00     0.049 H 
BRANCH  97 100
ATOM    100  N   UNL A   1      32.662  34.655  27.965  1.00  0.00    -0.352 N 
ATOM    101  C   UNL A   1      33.123  35.194  29.146  1.00  0.00     0.251 C 
ATOM    102  H   UNL A   1      31.892  35.118  27.561  1.00  0.00     0.163 HD
ATOM    103  O   UNL A   1      32.535  36.135  29.660  1.00  0.00    -0.269 OA
BRANCH 101 104
ATOM    104  C   UNL A   1      34.309  34.611  29.822  1.00  0.00     0.039 A 
ATOM    105  C   UNL A   1      34.124  33.953  31.042  1.00  0.00    -0.049 A 
ATOM    106  C   UNL A   1      35.591  34.708  29.273  1.00  0.00    -0.049 A 
ATOM    107  C   UNL A   1      35.209  33.345  31.678  1.00  0.00    -0.053 A 
ATOM    108  H   UNL A   1      33.186  33.917  31.471  1.00  0.00     0.063 H 
ATOM    109  C   UNL A   1      36.654  34.025  29.863  1.00  0.00    -0.053 A 
ATOM    110  H   UNL A   1      35.750  35.284  28.433  1.00  0.00     0.063 H 
ATOM    111  C   UNL A   1      36.478  33.347  31.078  1.00  0.00    -0.014 A 
ATOM    112  H   UNL A   1      35.076  32.892  32.596  1.00  0.00     0.063 H 
ATOM    113  H   UNL A   1      37.577  34.021  29.401  1.00  0.00     0.063 H 
BRANCH 111 114
ATOM    114  C   UNL A   1      37.632  32.663  31.718  1.00  0.00     0.031 A 
ATOM    115  C   UNL A   1      38.288  31.492  31.038  1.00  0.00     0.074 A 
ATOM    116  C   UNL A   1      38.061  33.064  32.931  1.00  0.00     0.049 A 
ATOM    117  N   UNL A   1      39.275  30.737  31.452  1.00  0.00    -0.248 NA
ATOM    118  C   UNL A   1      37.746  31.099  29.727  1.00  0.00    -0.034 C 
ATOM    119  C   UNL A   1      37.479  34.156  33.714  1.00  0.00    -0.036 A 
ATOM    120  N   UNL A   1      39.082  32.598  33.722  1.00  0.00    -0.354 N 
ATOM    121  C   UNL A   1      39.460  29.779  30.463  1.00  0.00     0.074 A 
ATOM    122  C   UNL A   1      38.444  30.006  29.460  1.00  0.00    -0.034 C 
ATOM    123  H   UNL A   1      37.012  31.557  29.164  1.00  0.00     0.065 H 
ATOM    124  C   UNL A   1      38.171  34.295  34.857  1.00  0.00    -0.036 A 
ATOM    125  H   UNL A   1      36.668  34.728  33.433  1.00  0.00     0.065 H 
ATOM    126  C   UNL A   1      39.216  33.277  34.909  1.00  0.00     0.049 A 
ATOM    127  H   UNL A   1      39.666  31.848  33.462  1.00  0.00     0.167 HD
ATOM    128  C   UNL A   1      40.408  28.815  30.386  1.00  0.00     0.037 A 
ATOM    129  H   UNL A   1      38.284  29.397  28.642  1.00  0.00     0.065 H 
ATOM    130  H   UNL A   1      37.991  35.008  35.582  1.00  0.00     0.065 H 
ATOM    131  C   UNL A   1      40.079  33.095  35.926  1.00  0.00     0.037 A 
ATOM    132  C   UNL A   1      41.430  28.606  31.377  1.00  0.00     0.049 A 
ATOM    133  C   UNL A   1      41.112  32.005  35.824  1.00  0.00     0.074 A 
ATOM    134  C   UNL A   1      42.470  27.695  31.366  1.00  0.00    -0.036 A 
ATOM    135  N   UNL A   1      41.536  29.320  32.563  1.00  0.00    -0.354 N 
ATOM    136  N   UNL A   1      41.322  31.152  34.851  1.00  0.00    -0.248 NA
ATOM    137  C   UNL A   1      42.034  31.856  36.958  1.00  0.00    -0.034 C 
ATOM    138  C   UNL A   1      43.170  27.815  32.571  1.00  0.00    -0.036 A 
ATOM    139  H   UNL A   1      42.692  27.039  30.600  1.00  0.00     0.065 H 
ATOM    140  C   UNL A   1      42.608  28.847  33.304  1.00  0.00     0.049 A 
ATOM    141  H   UNL A   1      40.938  30.052  32.837  1.00  0.00     0.167 HD
ATOM    142  C   UNL A   1      42.415  30.389  35.238  1.00  0.00     0.074 A 
ATOM    143  C   UNL A   1      42.836  30.892  36.530  1.00  0.00    -0.034 C 
ATOM    144  H   UNL A   1      42.052  32.368  37.854  1.00  0.00     0.065 H 
ATOM    145  H   UNL A   1      43.970  27.233  32.864  1.00  0.00     0.065 H 
ATOM    146  C   UNL A   1      43.018  29.365  34.585  1.00  0.00     0.037 A 
ATOM    147  H   UNL A   1      43.656  30.544  37.050  1.00  0.00     0.065 H 
BRANCH 128 148
ATOM    148  C   UNL A   1      40.384  27.910  29.185  1.00  0.00     0.064 A 
ATOM    149  C   UNL A   1      39.606  26.742  29.154  1.00  0.00     0.173 A 
ATOM    150  C   UNL A   1      41.122  28.233  28.035  1.00  0.00     0.173 A 
ATOM    151  F   UNL A   1      38.889  26.380  30.229  1.00  0.00    -0.203 F 
ATOM    152  C   UNL A   1      39.595  25.915  28.034  1.00  0.00     0.198 A 
ATOM    153  C   UNL A   1      41.080  27.422  26.903  1.00  0.00     0.198 A 
ATOM    154  F   UNL A   1      41.879  29.341  28.005  1.00  0.00    -0.203 F 
ATOM    155  F   UNL A   1      38.889  24.775  28.051  1.00  0.00    -0.200 F 
ATOM    156  C   UNL A   1      40.326  26.259  26.907  1.00  0.00     0.200 A 
ATOM    157  F   UNL A   1      41.775  27.765  25.810  1.00  0.00    -0.200 F 
ATOM    158  F   UNL A   1      40.308  25.467  25.827  1.00  0.00    -0.200 F 
ENDBRANCH 128 148
BRANCH 131 159
ATOM    159  C   UNL A   1      40.017  33.976  37.125  1.00  0.00     0.064 A 
ATOM    160  C   UNL A   1      39.187  33.661  38.210  1.00  0.00     0.173 A 
ATOM    161  C   UNL A   1      40.776  35.153  37.207  1.00  0.00     0.173 A 
ATOM    162  F   UNL A   1      38.427  32.557  38.173  1.00  0.00    -0.203 F 
ATOM    163  C   UNL A   1      39.099  34.501  39.319  1.00  0.00     0.198 A 
ATOM    164  C   UNL A   1      40.712  35.975  38.330  1.00  0.00     0.198 A 
ATOM    165  F   UNL A   1      41.591  35.499  36.199  1.00  0.00    -0.203 F 
ATOM    166  F   UNL A   1      38.257  34.203  40.317  1.00  0.00    -0.200 F 
ATOM    167  C   UNL A   1      39.865  35.654  39.381  1.00  0.00     0.200 A 
ATOM    168  F   UNL A   1      41.468  37.080  38.392  1.00  0.00    -0.200 F 
ATOM    169  F   UNL A   1      39.784  36.460  40.448  1.00  0.00    -0.200 F 
ENDBRANCH 131 159
BRANCH 146 170
ATOM    170  C   UNL A   1      44.221  28.744  35.235  1.00  0.00     0.064 A 
ATOM    171  C   UNL A   1      45.519  29.221  35.002  1.00  0.00     0.173 A 
ATOM    172  C   UNL A   1      44.066  27.679  36.137  1.00  0.00     0.173 A 
ATOM    173  F   UNL A   1      45.722  30.227  34.137  1.00  0.00    -0.203 F 
ATOM    174  C   UNL A   1      46.619  28.637  35.623  1.00  0.00     0.198 A 
ATOM    175  C   UNL A   1      45.165  27.122  36.785  1.00  0.00     0.198 A 
ATOM    176  F   UNL A   1      42.846  27.189  36.405  1.00  0.00    -0.203 F 
ATOM    177  F   UNL A   1      47.855  29.074  35.343  1.00  0.00    -0.200 F 
ATOM    178  C   UNL A   1      46.441  27.595  36.521  1.00  0.00     0.200 A 
ATOM    179  F   UNL A   1      44.989  26.127  37.666  1.00  0.00    -0.200 F 
ATOM    180  F   UNL A   1      47.501  27.041  37.127  1.00  0.00    -0.200 F 
ENDBRANCH 146 170
ENDBRANCH 111 114
ENDBRANCH 101 104
ENDBRANCH  97 100
ENDBRANCH  94  97
ENDBRANCH   1  94
TORSDOF 21
ENDMDL
MODEL 5
REMARK VINA RESULT:     -12.0      4.875     10.507
REMARK SMILES C[C@H]1[C@H](C)CC[C@@]2(C(=O)NCCCCCCNC(=O)c3ccc(-c4c5nc(c(-c6c(F)c(F)c(F)c(F)c6F)c6ccc([nH]6)c(-c6c(F)c(F)c(F)c(F)c6F)c6nc(c(-c7c(F)c(F)c(F)c(F)c7F)c7ccc4[nH]7)C=C6)C=C5)cc3)CC[C@@]3(C)C(=CC[C@@H]4[C@@]5(C)CC[C@H](O)C(C)(C)[C@@H]5CC[C@]43C)[C@H]12
REMARK SMILES IDX 14 1 13 4 12 7 11 10 10 13 8 14 9 15 7 17 2 18 3 19 105 20
REMARK SMILES IDX 5 22 87 24 6 26 83 29 85 30 88 31 84 34 103 37 89 38 90 42
REMARK SMILES IDX 102 43 91 46 101 48 93 51 100 52 94 55 97 58 95 60 1 64 4 68
REMARK SMILES IDX 86 72 104 76 92 80 98 84 99 88 96 92 15 94 16 97 17 100
REMARK SMILES IDX 18 101 19 103 20 104 21 105 82 106 22 107 81 109 23 111
REMARK SMILES IDX 24 114 25 115 75 116 26 117 80 118 74 119 76 120 27 121
REMARK SMILES IDX 79 122 73 124 72 126 28 128 60 131 40 132 59 133 41 134
REMARK SMILES IDX 44 135 58 136 77 137 42 138 43 140 57 142 78 143 45 146
REMARK SMILES IDX 29 148 30 149 38 150 31 151 32 152 36 153 39 154 33 155
REMARK SMILES IDX 34 156 37 157 35 158 61 159 62 160 70 161 63 162 64 163
REMARK SMILES IDX 68 164 71 165 65 166 66 167 69 168 67 169 46 170 47 171
REMARK SMILES IDX 55 172 48 173 49 174 53 175 56 176 50 177 51 178 54 179
REMARK SMILES IDX 52 180
REMARK H PARENT 14 2 14 3 13 5 13 6 12 8 12 9 11 11 11 12 10 16 2 21 3 23
REMARK H PARENT 105 25 5 27 5 28 6 32 6 33 83 35 83 36 88 39 84 40 84 41 89 44
REMARK H PARENT 89 45 90 47 102 49 102 50 101 53 101 54 93 56 93 57 100 59
REMARK H PARENT 94 61 94 62 95 63 1 65 1 66 1 67 4 69 4 70 4 71 86 73 86 74
REMARK H PARENT 86 75 104 77 104 78 104 79 92 81 92 82 92 83 98 85 98 86 98 87
REMARK H PARENT 99 89 99 90 99 91 96 93 15 95 15 96 16 98 16 99 17 102 21 108
REMARK H PARENT 82 110 22 112 81 113 80 123 74 125 76 127 79 129 73 130 41 139
REMARK H PARENT 44 141 77 144 42 145 78 147
REMARK Flexibility Score: inf
ROOT
ATOM      1  C   UNL A   1      34.364  31.453  27.647  1.00  0.00    -0.052 C 
ATOM      2  H   UNL A   1      34.485  31.472  26.585  1.00  0.00     0.027 H 
ATOM      3  H   UNL A   1      35.149  31.902  28.220  1.00  0.00     0.027 H 
ENDROOT
BRANCH   1   4
ATOM      4  C   UNL A   1      34.380  29.982  28.079  1.00  0.00    -0.052 C 
ATOM      5  H   UNL A   1      34.781  29.954  29.070  1.00  0.00     0.027 H 
ATOM      6  H   UNL A   1      33.362  29.676  27.954  1.00  0.00     0.027 H 
BRANCH   4   7
ATOM      7  C   UNL A   1      35.165  28.953  27.251  1.00  0.00    -0.036 C 
ATOM      8  H   UNL A   1      35.953  29.482  26.755  1.00  0.00     0.028 H 
ATOM      9  H   UNL A   1      35.465  28.218  27.968  1.00  0.00     0.028 H 
BRANCH   7  10
ATOM     10  C   UNL A   1      34.422  28.146  26.180  1.00  0.00     0.017 C 
ATOM     11  H   UNL A   1      35.066  27.355  25.855  1.00  0.00     0.049 H 
ATOM     12  H   UNL A   1      33.520  27.800  26.639  1.00  0.00     0.049 H 
BRANCH  10  13
ATOM     13  N   UNL A   1      34.017  28.905  25.010  1.00  0.00    -0.356 N 
ATOM     14  C   UNL A   1      32.804  28.992  24.374  1.00  0.00     0.226 C 
ATOM     15  O   UNL A   1      32.887  29.014  23.139  1.00  0.00    -0.274 OA
ATOM     16  H   UNL A   1      34.732  29.449  24.607  1.00  0.00     0.163 HD
BRANCH  14  17
ATOM     17  C   UNL A   1      31.405  29.140  25.090  1.00  0.00     0.056 C 
ATOM     18  C   UNL A   1      29.792  29.544  23.105  1.00  0.00    -0.034 C 
ATOM     19  C   UNL A   1      29.387  30.921  23.730  1.00  0.00    -0.041 C 
ATOM     20  C   UNL A   1      30.239  28.565  24.231  1.00  0.00    -0.002 C 
ATOM     21  H   UNL A   1      30.618  29.701  22.443  1.00  0.00     0.031 H 
ATOM     22  C   UNL A   1      30.412  31.525  24.708  1.00  0.00    -0.049 C 
ATOM     23  H   UNL A   1      28.495  30.632  24.247  1.00  0.00     0.030 H 
ATOM     24  C   UNL A   1      30.662  27.110  23.918  1.00  0.00    -0.063 C 
ATOM     25  H   UNL A   1      29.287  28.491  24.714  1.00  0.00     0.036 H 
ATOM     26  C   UNL A   1      31.184  30.575  25.591  1.00  0.00    -0.038 C 
ATOM     27  H   UNL A   1      29.884  32.200  25.348  1.00  0.00     0.027 H 
ATOM     28  H   UNL A   1      31.154  31.972  24.080  1.00  0.00     0.027 H 
ATOM     29  C   UNL A   1      31.403  28.290  26.419  1.00  0.00    -0.037 C 
ATOM     30  C   UNL A   1      30.612  26.123  25.125  1.00  0.00    -0.006 C 
ATOM     31  C   UNL A   1      31.322  26.805  22.782  1.00  0.00    -0.084 C 
ATOM     32  H   UNL A   1      30.658  30.509  26.521  1.00  0.00     0.028 H 
ATOM     33  H   UNL A   1      32.167  30.995  25.640  1.00  0.00     0.028 H 
ATOM     34  C   UNL A   1      31.424  26.764  26.300  1.00  0.00    -0.043 C 
ATOM     35  H   UNL A   1      30.520  28.552  26.964  1.00  0.00     0.028 H 
ATOM     36  H   UNL A   1      32.332  28.532  26.892  1.00  0.00     0.028 H 
ATOM     37  C   UNL A   1      31.239  24.667  24.747  1.00  0.00    -0.020 C 
ATOM     38  C   UNL A   1      32.258  25.629  22.644  1.00  0.00    -0.031 C 
ATOM     39  H   UNL A   1      31.179  27.411  21.958  1.00  0.00     0.058 H 
ATOM     40  H   UNL A   1      31.038  26.364  27.214  1.00  0.00     0.028 H 
ATOM     41  H   UNL A   1      32.446  26.520  26.092  1.00  0.00     0.028 H 
ATOM     42  C   UNL A   1      32.594  24.978  24.014  1.00  0.00    -0.026 C 
ATOM     43  C   UNL A   1      31.454  23.773  25.998  1.00  0.00    -0.046 C 
ATOM     44  H   UNL A   1      33.168  25.965  22.191  1.00  0.00     0.031 H 
ATOM     45  H   UNL A   1      31.770  24.892  22.043  1.00  0.00     0.031 H 
ATOM     46  C   UNL A   1      33.752  23.893  24.021  1.00  0.00    -0.025 C 
ATOM     47  H   UNL A   1      33.119  25.675  24.634  1.00  0.00     0.032 H 
ATOM     48  C   UNL A   1      32.370  22.575  25.742  1.00  0.00    -0.049 C 
ATOM     49  H   UNL A   1      31.887  24.371  26.772  1.00  0.00     0.027 H 
ATOM     50  H   UNL A   1      30.495  23.384  26.275  1.00  0.00     0.027 H 
ATOM     51  C   UNL A   1      35.122  24.650  24.002  1.00  0.00    -0.045 C 
ATOM     52  C   UNL A   1      33.767  23.082  25.372  1.00  0.00    -0.028 C 
ATOM     53  H   UNL A   1      32.430  21.974  26.625  1.00  0.00     0.027 H 
ATOM     54  H   UNL A   1      31.976  21.985  24.940  1.00  0.00     0.027 H 
ATOM     55  C   UNL A   1      36.342  23.736  24.125  1.00  0.00    -0.026 C 
ATOM     56  H   UNL A   1      35.136  25.340  24.820  1.00  0.00     0.027 H 
ATOM     57  H   UNL A   1      35.195  25.134  23.051  1.00  0.00     0.027 H 
ATOM     58  C   UNL A   1      34.931  22.028  25.523  1.00  0.00    -0.006 C 
ATOM     59  H   UNL A   1      34.036  23.787  26.129  1.00  0.00     0.031 H 
ATOM     60  C   UNL A   1      36.285  22.776  25.317  1.00  0.00     0.059 C 
ATOM     61  H   UNL A   1      37.212  24.350  24.228  1.00  0.00     0.029 H 
ATOM     62  H   UNL A   1      36.364  23.131  23.242  1.00  0.00     0.029 H 
ATOM     63  H   UNL A   1      36.368  23.385  26.194  1.00  0.00     0.061 H 
BRANCH  18  64
ATOM     64  C   UNL A   1      28.659  28.949  22.253  1.00  0.00    -0.062 C 
ATOM     65  H   UNL A   1      28.114  29.741  21.783  1.00  0.00     0.023 H 
ATOM     66  H   UNL A   1      28.001  28.384  22.879  1.00  0.00     0.023 H 
ATOM     67  H   UNL A   1      29.075  28.309  21.502  1.00  0.00     0.023 H 
ENDBRANCH  18  64
BRANCH  19  68
ATOM     68  C   UNL A   1      29.097  32.038  22.713  1.00  0.00    -0.062 C 
ATOM     69  H   UNL A   1      29.988  32.259  22.163  1.00  0.00     0.023 H 
ATOM     70  H   UNL A   1      28.770  32.915  23.230  1.00  0.00     0.023 H 
ATOM     71  H   UNL A   1      28.333  31.715  22.038  1.00  0.00     0.023 H 
ENDBRANCH  19  68
BRANCH  30  72
ATOM     72  C   UNL A   1      29.142  25.953  25.595  1.00  0.00    -0.055 C 
ATOM     73  H   UNL A   1      28.694  25.135  25.070  1.00  0.00     0.024 H 
ATOM     74  H   UNL A   1      28.597  26.850  25.392  1.00  0.00     0.024 H 
ATOM     75  H   UNL A   1      29.126  25.755  26.646  1.00  0.00     0.024 H 
ENDBRANCH  30  72
BRANCH  37  76
ATOM     76  C   UNL A   1      30.266  23.862  23.829  1.00  0.00    -0.059 C 
ATOM     77  H   UNL A   1      30.827  23.360  23.068  1.00  0.00     0.024 H 
ATOM     78  H   UNL A   1      29.569  24.535  23.373  1.00  0.00     0.024 H 
ATOM     79  H   UNL A   1      29.736  23.142  24.415  1.00  0.00     0.024 H 
ENDBRANCH  37  76
BRANCH  46  80
ATOM     80  C   UNL A   1      33.654  23.029  22.751  1.00  0.00    -0.059 C 
ATOM     81  H   UNL A   1      34.313  23.418  22.003  1.00  0.00     0.024 H 
ATOM     82  H   UNL A   1      32.649  23.045  22.385  1.00  0.00     0.024 H 
ATOM     83  H   UNL A   1      33.934  22.022  22.983  1.00  0.00     0.024 H 
ENDBRANCH  46  80
BRANCH  58  84
ATOM     84  C   UNL A   1      34.793  20.790  24.610  1.00  0.00    -0.057 C 
ATOM     85  H   UNL A   1      33.815  20.371  24.724  1.00  0.00     0.024 H 
ATOM     86  H   UNL A   1      35.527  20.061  24.884  1.00  0.00     0.024 H 
ATOM     87  H   UNL A   1      34.940  21.080  23.591  1.00  0.00     0.024 H 
ENDBRANCH  58  84
BRANCH  58  88
ATOM     88  C   UNL A   1      34.954  21.453  26.970  1.00  0.00    -0.057 C 
ATOM     89  H   UNL A   1      35.966  21.262  27.262  1.00  0.00     0.024 H 
ATOM     90  H   UNL A   1      34.396  20.541  27.000  1.00  0.00     0.024 H 
ATOM     91  H   UNL A   1      34.517  22.161  27.643  1.00  0.00     0.024 H 
ENDBRANCH  58  88
BRANCH  60  92
ATOM     92  O   UNL A   1      37.376  21.859  25.221  1.00  0.00    -0.393 OA
ATOM     93  H   UNL A   1      38.148  22.227  25.677  1.00  0.00     0.210 HD
ENDBRANCH  60  92
ENDBRANCH  14  17
ENDBRANCH  10  13
ENDBRANCH   7  10
ENDBRANCH   4   7
ENDBRANCH   1   4
BRANCH   1  94
ATOM     94  C   UNL A   1      33.134  32.295  27.977  1.00  0.00    -0.036 C 
ATOM     95  H   UNL A   1      33.202  32.562  29.011  1.00  0.00     0.028 H 
ATOM     96  H   UNL A   1      32.306  31.671  27.711  1.00  0.00     0.028 H 
BRANCH  94  97
ATOM     97  C   UNL A   1      32.914  33.576  27.191  1.00  0.00     0.018 C 
ATOM     98  H   UNL A   1      32.142  33.399  26.471  1.00  0.00     0.049 H 
ATOM     99  H   UNL A   1      33.852  33.825  26.740  1.00  0.00     0.049 H 
BRANCH  97 100
ATOM    100  N   UNL A   1      32.528  34.711  28.001  1.00  0.00    -0.352 N 
ATOM    101  C   UNL A   1      33.073  35.162  29.183  1.00  0.00     0.251 C 
ATOM    102  H   UNL A   1      31.768  35.236  27.659  1.00  0.00     0.163 HD
ATOM    103  O   UNL A   1      32.564  36.105  29.772  1.00  0.00    -0.269 OA
BRANCH 101 104
ATOM    104  C   UNL A   1      34.255  34.481  29.769  1.00  0.00     0.039 A 
ATOM    105  C   UNL A   1      34.071  33.688  30.906  1.00  0.00    -0.049 A 
ATOM    106  C   UNL A   1      35.532  34.617  29.218  1.00  0.00    -0.049 A 
ATOM    107  C   UNL A   1      35.151  32.989  31.451  1.00  0.00    -0.053 A 
ATOM    108  H   UNL A   1      33.138  33.620  31.341  1.00  0.00     0.063 H 
ATOM    109  C   UNL A   1      36.588  33.850  29.708  1.00  0.00    -0.053 A 
ATOM    110  H   UNL A   1      35.693  35.284  28.448  1.00  0.00     0.063 H 
ATOM    111  C   UNL A   1      36.412  33.037  30.838  1.00  0.00    -0.014 A 
ATOM    112  H   UNL A   1      35.020  32.434  32.312  1.00  0.00     0.063 H 
ATOM    113  H   UNL A   1      37.505  33.882  29.236  1.00  0.00     0.063 H 
BRANCH 111 114
ATOM    114  C   UNL A   1      37.559  32.261  31.378  1.00  0.00     0.031 A 
ATOM    115  C   UNL A   1      38.095  32.562  32.752  1.00  0.00     0.074 A 
ATOM    116  C   UNL A   1      38.147  31.316  30.617  1.00  0.00     0.049 A 
ATOM    117  N   UNL A   1      39.112  32.028  33.381  1.00  0.00    -0.248 NA
ATOM    118  C   UNL A   1      37.414  33.623  33.510  1.00  0.00    -0.034 C 
ATOM    119  C   UNL A   1      37.751  30.963  29.253  1.00  0.00    -0.036 A 
ATOM    120  N   UNL A   1      39.207  30.484  30.879  1.00  0.00    -0.354 N 
ATOM    121  C   UNL A   1      39.197  32.696  34.596  1.00  0.00     0.074 A 
ATOM    122  C   UNL A   1      38.173  33.715  34.591  1.00  0.00    -0.034 C 
ATOM    123  H   UNL A   1      36.567  34.157  33.262  1.00  0.00     0.065 H 
ATOM    124  C   UNL A   1      38.536  29.968  28.810  1.00  0.00    -0.036 A 
ATOM    125  H   UNL A   1      36.989  31.407  28.717  1.00  0.00     0.065 H 
ATOM    126  C   UNL A   1      39.518  29.641  29.840  1.00  0.00     0.049 A 
ATOM    127  H   UNL A   1      39.698  30.489  31.733  1.00  0.00     0.167 HD
ATOM    128  C   UNL A   1      40.036  32.461  35.634  1.00  0.00     0.037 A 
ATOM    129  H   UNL A   1      38.048  34.423  35.333  1.00  0.00     0.065 H 
ATOM    130  H   UNL A   1      38.457  29.507  27.889  1.00  0.00     0.065 H 
ATOM    131  C   UNL A   1      40.489  28.714  29.727  1.00  0.00     0.037 A 
ATOM    132  C   UNL A   1      41.041  31.431  35.642  1.00  0.00     0.049 A 
ATOM    133  C   UNL A   1      41.420  28.485  30.888  1.00  0.00     0.074 A 
ATOM    134  C   UNL A   1      41.903  31.073  36.663  1.00  0.00    -0.036 A 
ATOM    135  N   UNL A   1      41.320  30.592  34.572  1.00  0.00    -0.354 N 
ATOM    136  N   UNL A   1      41.444  29.074  32.059  1.00  0.00    -0.248 NA
ATOM    137  C   UNL A   1      42.455  27.456  30.715  1.00  0.00    -0.034 C 
ATOM    138  C   UNL A   1      42.744  30.061  36.192  1.00  0.00    -0.036 A 
ATOM    139  H   UNL A   1      41.922  31.485  37.611  1.00  0.00     0.065 H 
ATOM    140  C   UNL A   1      42.362  29.739  34.900  1.00  0.00     0.049 A 
ATOM    141  H   UNL A   1      40.848  30.602  33.708  1.00  0.00     0.167 HD
ATOM    142  C   UNL A   1      42.470  28.468  32.771  1.00  0.00     0.074 A 
ATOM    143  C   UNL A   1      43.034  27.453  31.906  1.00  0.00    -0.034 C 
ATOM    144  H   UNL A   1      42.673  26.886  29.883  1.00  0.00     0.065 H 
ATOM    145  H   UNL A   1      43.518  29.627  36.718  1.00  0.00     0.065 H 
ATOM    146  C   UNL A   1      42.907  28.728  34.029  1.00  0.00     0.037 A 
ATOM    147  H   UNL A   1      43.792  26.809  32.183  1.00  0.00     0.065 H 
BRANCH 128 148
ATOM    148  C   UNL A   1      39.903  33.337  36.848  1.00  0.00     0.064 A 
ATOM    149  C   UNL A   1      40.685  34.490  37.019  1.00  0.00     0.173 A 
ATOM    150  C   UNL A   1      38.955  33.039  37.840  1.00  0.00     0.173 A 
ATOM    151  F   UNL A   1      41.613  34.816  36.107  1.00  0.00    -0.203 F 
ATOM    152  C   UNL A   1      40.549  35.291  38.150  1.00  0.00     0.198 A 
ATOM    153  C   UNL A   1      38.796  33.862  38.953  1.00  0.00     0.198 A 
ATOM    154  F   UNL A   1      38.175  31.953  37.728  1.00  0.00    -0.203 F 
ATOM    155  F   UNL A   1      41.348  36.354  38.316  1.00  0.00    -0.200 F 
ATOM    156  C   UNL A   1      39.600  34.980  39.112  1.00  0.00     0.200 A 
ATOM    157  F   UNL A   1      37.868  33.569  39.874  1.00  0.00    -0.200 F 
ATOM    158  F   UNL A   1      39.464  35.756  40.196  1.00  0.00    -0.200 F 
ENDBRANCH 128 148
BRANCH 131 159
ATOM    159  C   UNL A   1      40.621  27.920  28.475  1.00  0.00     0.064 A 
ATOM    160  C   UNL A   1      39.995  26.672  28.343  1.00  0.00     0.173 A 
ATOM    161  C   UNL A   1      41.383  28.384  27.393  1.00  0.00     0.173 A 
ATOM    162  F   UNL A   1      39.272  26.175  29.356  1.00  0.00    -0.203 F 
ATOM    163  C   UNL A   1      40.146  25.908  27.186  1.00  0.00     0.198 A 
ATOM    164  C   UNL A   1      41.506  27.634  26.224  1.00  0.00     0.198 A 
ATOM    165  F   UNL A   1      41.999  29.572  27.464  1.00  0.00    -0.203 F 
ATOM    166  F   UNL A   1      39.581  24.696  27.108  1.00  0.00    -0.200 F 
ATOM    167  C   UNL A   1      40.897  26.392  26.126  1.00  0.00     0.200 A 
ATOM    168  F   UNL A   1      42.220  28.113  25.196  1.00  0.00    -0.200 F 
ATOM    169  F   UNL A   1      41.039  25.660  25.013  1.00  0.00    -0.200 F 
ENDBRANCH 131 159
BRANCH 146 170
ATOM    170  C   UNL A   1      44.023  27.877  34.562  1.00  0.00     0.064 A 
ATOM    171  C   UNL A   1      45.365  28.274  34.473  1.00  0.00     0.173 A 
ATOM    172  C   UNL A   1      43.740  26.662  35.207  1.00  0.00     0.173 A 
ATOM    173  F   UNL A   1      45.690  29.418  33.853  1.00  0.00    -0.203 F 
ATOM    174  C   UNL A   1      46.385  27.474  34.983  1.00  0.00     0.198 A 
ATOM    175  C   UNL A   1      44.759  25.883  35.749  1.00  0.00     0.198 A 
ATOM    176  F   UNL A   1      42.473  26.239  35.328  1.00  0.00    -0.203 F 
ATOM    177  F   UNL A   1      47.663  27.849  34.839  1.00  0.00    -0.200 F 
ATOM    178  C   UNL A   1      46.080  26.285  35.628  1.00  0.00     0.200 A 
ATOM    179  F   UNL A   1      44.461  24.743  36.388  1.00  0.00    -0.200 F 
ATOM    180  F   UNL A   1      47.062  25.522  36.129  1.00  0.00    -0.200 F 
ENDBRANCH 146 170
ENDBRANCH 111 114
ENDBRANCH 101 104
ENDBRANCH  97 100
ENDBRANCH  94  97
ENDBRANCH   1  94
TORSDOF 21
ENDMDL
MODEL 6
REMARK VINA RESULT:     -12.0      4.870     10.522
REMARK SMILES C[C@H]1[C@H](C)CC[C@@]2(C(=O)NCCCCCCNC(=O)c3ccc(-c4c5nc(c(-c6c(F)c(F)c(F)c(F)c6F)c6ccc([nH]6)c(-c6c(F)c(F)c(F)c(F)c6F)c6nc(c(-c7c(F)c(F)c(F)c(F)c7F)c7ccc4[nH]7)C=C6)C=C5)cc3)CC[C@@]3(C)C(=CC[C@@H]4[C@@]5(C)CC[C@H](O)C(C)(C)[C@@H]5CC[C@]43C)[C@H]12
REMARK SMILES IDX 14 1 13 4 12 7 11 10 10 13 8 14 9 15 7 17 2 18 3 19 105 20
REMARK SMILES IDX 5 22 87 24 6 26 83 29 85 30 88 31 84 34 103 37 89 38 90 42
REMARK SMILES IDX 102 43 91 46 101 48 93 51 100 52 94 55 97 58 95 60 1 64 4 68
REMARK SMILES IDX 86 72 104 76 92 80 98 84 99 88 96 92 15 94 16 97 17 100
REMARK SMILES IDX 18 101 19 103 20 104 21 105 82 106 22 107 81 109 23 111
REMARK SMILES IDX 24 114 25 115 75 116 26 117 80 118 74 119 76 120 27 121
REMARK SMILES IDX 79 122 73 124 72 126 28 128 60 131 40 132 59 133 41 134
REMARK SMILES IDX 44 135 58 136 77 137 42 138 43 140 57 142 78 143 45 146
REMARK SMILES IDX 29 148 30 149 38 150 31 151 32 152 36 153 39 154 33 155
REMARK SMILES IDX 34 156 37 157 35 158 61 159 62 160 70 161 63 162 64 163
REMARK SMILES IDX 68 164 71 165 65 166 66 167 69 168 67 169 46 170 47 171
REMARK SMILES IDX 55 172 48 173 49 174 53 175 56 176 50 177 51 178 54 179
REMARK SMILES IDX 52 180
REMARK H PARENT 14 2 14 3 13 5 13 6 12 8 12 9 11 11 11 12 10 16 2 21 3 23
REMARK H PARENT 105 25 5 27 5 28 6 32 6 33 83 35 83 36 88 39 84 40 84 41 89 44
REMARK H PARENT 89 45 90 47 102 49 102 50 101 53 101 54 93 56 93 57 100 59
REMARK H PARENT 94 61 94 62 95 63 1 65 1 66 1 67 4 69 4 70 4 71 86 73 86 74
REMARK H PARENT 86 75 104 77 104 78 104 79 92 81 92 82 92 83 98 85 98 86 98 87
REMARK H PARENT 99 89 99 90 99 91 96 93 15 95 15 96 16 98 16 99 17 102 21 108
REMARK H PARENT 82 110 22 112 81 113 80 123 74 125 76 127 79 129 73 130 41 139
REMARK H PARENT 44 141 77 144 42 145 78 147
REMARK Flexibility Score: inf
ROOT
ATOM      1  C   UNL A   1      34.402  31.469  27.677  1.00  0.00    -0.052 C 
ATOM      2  H   UNL A   1      34.536  31.482  26.617  1.00  0.00     0.027 H 
ATOM      3  H   UNL A   1      35.180  31.922  28.257  1.00  0.00     0.027 H 
ENDROOT
BRANCH   1   4
ATOM      4  C   UNL A   1      34.416  30.000  28.116  1.00  0.00    -0.052 C 
ATOM      5  H   UNL A   1      34.849  29.973  29.094  1.00  0.00     0.027 H 
ATOM      6  H   UNL A   1      33.391  29.705  28.027  1.00  0.00     0.027 H 
BRANCH   4   7
ATOM      7  C   UNL A   1      35.161  28.958  27.269  1.00  0.00    -0.036 C 
ATOM      8  H   UNL A   1      35.957  29.469  26.768  1.00  0.00     0.028 H 
ATOM      9  H   UNL A   1      35.450  28.208  27.975  1.00  0.00     0.028 H 
BRANCH   7  10
ATOM     10  C   UNL A   1      34.383  28.182  26.200  1.00  0.00     0.017 C 
ATOM     11  H   UNL A   1      34.999  27.375  25.862  1.00  0.00     0.049 H 
ATOM     12  H   UNL A   1      33.476  27.859  26.667  1.00  0.00     0.049 H 
BRANCH  10  13
ATOM     13  N   UNL A   1      33.987  28.963  25.041  1.00  0.00    -0.356 N 
ATOM     14  C   UNL A   1      32.781  29.058  24.394  1.00  0.00     0.226 C 
ATOM     15  O   UNL A   1      32.876  29.105  23.161  1.00  0.00    -0.274 OA
ATOM     16  H   UNL A   1      34.704  29.516  24.655  1.00  0.00     0.163 HD
BRANCH  14  17
ATOM     17  C   UNL A   1      31.373  29.188  25.098  1.00  0.00     0.056 C 
ATOM     18  C   UNL A   1      29.783  29.640  23.106  1.00  0.00    -0.034 C 
ATOM     19  C   UNL A   1      29.369  31.001  23.761  1.00  0.00    -0.041 C 
ATOM     20  C   UNL A   1      30.217  28.634  24.213  1.00  0.00    -0.002 C 
ATOM     21  H   UNL A   1      30.616  29.814  22.458  1.00  0.00     0.031 H 
ATOM     22  C   UNL A   1      30.384  31.582  24.764  1.00  0.00    -0.049 C 
ATOM     23  H   UNL A   1      28.472  30.699  24.261  1.00  0.00     0.030 H 
ATOM     24  C   UNL A   1      30.644  27.187  23.869  1.00  0.00    -0.063 C 
ATOM     25  H   UNL A   1      29.260  28.548  24.684  1.00  0.00     0.036 H 
ATOM     26  C   UNL A   1      31.146  30.610  25.632  1.00  0.00    -0.038 C 
ATOM     27  H   UNL A   1      29.848  32.241  25.415  1.00  0.00     0.027 H 
ATOM     28  H   UNL A   1      31.132  32.045  24.155  1.00  0.00     0.027 H 
ATOM     29  C   UNL A   1      31.358  28.305  26.406  1.00  0.00    -0.037 C 
ATOM     30  C   UNL A   1      30.582  26.171  25.051  1.00  0.00    -0.006 C 
ATOM     31  C   UNL A   1      31.317  26.911  22.732  1.00  0.00    -0.084 C 
ATOM     32  H   UNL A   1      30.610  30.522  26.555  1.00  0.00     0.028 H 
ATOM     33  H   UNL A   1      32.129  31.029  25.702  1.00  0.00     0.028 H 
ATOM     34  C   UNL A   1      31.382  26.783  26.249  1.00  0.00    -0.043 C 
ATOM     35  H   UNL A   1      30.469  28.554  26.948  1.00  0.00     0.028 H 
ATOM     36  H   UNL A   1      32.281  28.537  26.895  1.00  0.00     0.028 H 
ATOM     37  C   UNL A   1      31.214  24.724  24.644  1.00  0.00    -0.020 C 
ATOM     38  C   UNL A   1      32.256  25.738  22.576  1.00  0.00    -0.031 C 
ATOM     39  H   UNL A   1      31.183  27.537  21.923  1.00  0.00     0.058 H 
ATOM     40  H   UNL A   1      30.986  26.361  27.150  1.00  0.00     0.028 H 
ATOM     41  H   UNL A   1      32.406  26.544  26.046  1.00  0.00     0.028 H 
ATOM     42  C   UNL A   1      32.578  25.054  23.933  1.00  0.00    -0.026 C 
ATOM     43  C   UNL A   1      31.416  23.801  25.875  1.00  0.00    -0.046 C 
ATOM     44  H   UNL A   1      33.170  26.086  22.142  1.00  0.00     0.031 H 
ATOM     45  H   UNL A   1      31.775  25.016  21.952  1.00  0.00     0.031 H 
ATOM     46  C   UNL A   1      33.735  23.970  23.926  1.00  0.00    -0.025 C 
ATOM     47  H   UNL A   1      33.094  25.736  24.576  1.00  0.00     0.032 H 
ATOM     48  C   UNL A   1      32.335  22.609  25.599  1.00  0.00    -0.049 C 
ATOM     49  H   UNL A   1      31.841  24.380  26.668  1.00  0.00     0.027 H 
ATOM     50  H   UNL A   1      30.455  23.404  26.132  1.00  0.00     0.027 H 
ATOM     51  C   UNL A   1      35.106  24.727  23.941  1.00  0.00    -0.045 C 
ATOM     52  C   UNL A   1      33.737  23.126  25.257  1.00  0.00    -0.028 C 
ATOM     53  H   UNL A   1      32.386  21.987  26.468  1.00  0.00     0.027 H 
ATOM     54  H   UNL A   1      31.951  22.039  24.779  1.00  0.00     0.027 H 
ATOM     55  C   UNL A   1      36.325  23.811  24.054  1.00  0.00    -0.026 C 
ATOM     56  H   UNL A   1      35.110  25.397  24.775  1.00  0.00     0.027 H 
ATOM     57  H   UNL A   1      35.188  25.235  23.002  1.00  0.00     0.027 H 
ATOM     58  C   UNL A   1      34.899  22.069  25.395  1.00  0.00    -0.006 C 
ATOM     59  H   UNL A   1      33.997  23.812  26.034  1.00  0.00     0.031 H 
ATOM     60  C   UNL A   1      36.255  22.823  25.222  1.00  0.00     0.059 C 
ATOM     61  H   UNL A   1      37.193  24.423  24.181  1.00  0.00     0.029 H 
ATOM     62  H   UNL A   1      36.357  23.229  23.157  1.00  0.00     0.029 H 
ATOM     63  H   UNL A   1      36.328  23.410  26.114  1.00  0.00     0.061 H 
BRANCH  18  64
ATOM     64  C   UNL A   1      28.659  29.066  22.228  1.00  0.00    -0.062 C 
ATOM     65  H   UNL A   1      29.017  28.943  21.227  1.00  0.00     0.023 H 
ATOM     66  H   UNL A   1      27.826  29.738  22.228  1.00  0.00     0.023 H 
ATOM     67  H   UNL A   1      28.352  28.117  22.616  1.00  0.00     0.023 H 
ENDBRANCH  18  64
BRANCH  19  68
ATOM     68  C   UNL A   1      29.090  32.143  22.768  1.00  0.00    -0.062 C 
ATOM     69  H   UNL A   1      28.665  31.739  21.872  1.00  0.00     0.023 H 
ATOM     70  H   UNL A   1      30.005  32.645  22.535  1.00  0.00     0.023 H 
ATOM     71  H   UNL A   1      28.404  32.836  23.207  1.00  0.00     0.023 H 
ENDBRANCH  19  68
BRANCH  30  72
ATOM     72  C   UNL A   1      29.108  25.989  25.500  1.00  0.00    -0.055 C 
ATOM     73  H   UNL A   1      28.590  25.385  24.784  1.00  0.00     0.024 H 
ATOM     74  H   UNL A   1      28.635  26.946  25.569  1.00  0.00     0.024 H 
ATOM     75  H   UNL A   1      29.084  25.509  26.456  1.00  0.00     0.024 H 
ENDBRANCH  30  72
BRANCH  37  76
ATOM     76  C   UNL A   1      30.252  23.943  23.696  1.00  0.00    -0.059 C 
ATOM     77  H   UNL A   1      30.267  24.391  22.724  1.00  0.00     0.024 H 
ATOM     78  H   UNL A   1      29.257  23.978  24.090  1.00  0.00     0.024 H 
ATOM     79  H   UNL A   1      30.571  22.924  23.625  1.00  0.00     0.024 H 
ENDBRANCH  37  76
BRANCH  46  80
ATOM     80  C   UNL A   1      33.652  23.137  22.635  1.00  0.00    -0.059 C 
ATOM     81  H   UNL A   1      34.359  23.510  21.923  1.00  0.00     0.024 H 
ATOM     82  H   UNL A   1      32.665  23.208  22.227  1.00  0.00     0.024 H 
ATOM     83  H   UNL A   1      33.875  22.114  22.855  1.00  0.00     0.024 H 
ENDBRANCH  46  80
BRANCH  58  84
ATOM     84  C   UNL A   1      34.772  20.853  24.450  1.00  0.00    -0.057 C 
ATOM     85  H   UNL A   1      34.426  21.182  23.493  1.00  0.00     0.024 H 
ATOM     86  H   UNL A   1      34.074  20.154  24.861  1.00  0.00     0.024 H 
ATOM     87  H   UNL A   1      35.727  20.383  24.343  1.00  0.00     0.024 H 
ENDBRANCH  58  84
BRANCH  58  88
ATOM     88  C   UNL A   1      34.907  21.459  26.827  1.00  0.00    -0.057 C 
ATOM     89  H   UNL A   1      34.018  21.753  27.345  1.00  0.00     0.024 H 
ATOM     90  H   UNL A   1      35.764  21.813  27.361  1.00  0.00     0.024 H 
ATOM     91  H   UNL A   1      34.944  20.391  26.761  1.00  0.00     0.024 H 
ENDBRANCH  58  88
BRANCH  60  92
ATOM     92  O   UNL A   1      37.348  21.908  25.115  1.00  0.00    -0.393 OA
ATOM     93  H   UNL A   1      37.172  21.130  25.665  1.00  0.00     0.210 HD
ENDBRANCH  60  92
ENDBRANCH  14  17
ENDBRANCH  10  13
ENDBRANCH   7  10
ENDBRANCH   4   7
ENDBRANCH   1   4
BRANCH   1  94
ATOM     94  C   UNL A   1      33.168  32.310  27.988  1.00  0.00    -0.036 C 
ATOM     95  H   UNL A   1      33.233  32.600  29.016  1.00  0.00     0.028 H 
ATOM     96  H   UNL A   1      32.343  31.676  27.735  1.00  0.00     0.028 H 
BRANCH  94  97
ATOM     97  C   UNL A   1      32.939  33.572  27.174  1.00  0.00     0.018 C 
ATOM     98  H   UNL A   1      32.172  33.374  26.455  1.00  0.00     0.049 H 
ATOM     99  H   UNL A   1      33.878  33.820  26.722  1.00  0.00     0.049 H 
BRANCH  97 100
ATOM    100  N   UNL A   1      32.540  34.721  27.959  1.00  0.00    -0.352 N 
ATOM    101  C   UNL A   1      33.084  35.209  29.126  1.00  0.00     0.251 C 
ATOM    102  H   UNL A   1      31.770  35.225  27.609  1.00  0.00     0.163 HD
ATOM    103  O   UNL A   1      32.564  36.158  29.695  1.00  0.00    -0.269 OA
BRANCH 101 104
ATOM    104  C   UNL A   1      34.279  34.560  29.723  1.00  0.00     0.039 A 
ATOM    105  C   UNL A   1      34.115  33.799  30.884  1.00  0.00    -0.049 A 
ATOM    106  C   UNL A   1      35.550  34.697  29.157  1.00  0.00    -0.049 A 
ATOM    107  C   UNL A   1      35.208  33.130  31.440  1.00  0.00    -0.053 A 
ATOM    108  H   UNL A   1      33.186  33.731  31.328  1.00  0.00     0.063 H 
ATOM    109  C   UNL A   1      36.620  33.958  29.661  1.00  0.00    -0.053 A 
ATOM    110  H   UNL A   1      35.697  35.344  28.368  1.00  0.00     0.063 H 
ATOM    111  C   UNL A   1      36.464  33.177  30.815  1.00  0.00    -0.014 A 
ATOM    112  H   UNL A   1      35.091  32.599  32.317  1.00  0.00     0.063 H 
ATOM    113  H   UNL A   1      37.533  33.989  29.181  1.00  0.00     0.063 H 
BRANCH 111 114
ATOM    114  C   UNL A   1      37.625  32.431  31.368  1.00  0.00     0.031 A 
ATOM    115  C   UNL A   1      38.190  32.802  32.713  1.00  0.00     0.074 A 
ATOM    116  C   UNL A   1      38.200  31.452  30.643  1.00  0.00     0.049 A 
ATOM    117  N   UNL A   1      39.222  32.303  33.346  1.00  0.00    -0.248 NA
ATOM    118  C   UNL A   1      37.521  33.898  33.432  1.00  0.00    -0.034 C 
ATOM    119  C   UNL A   1      37.776  31.029  29.307  1.00  0.00    -0.036 A 
ATOM    120  N   UNL A   1      39.269  30.636  30.923  1.00  0.00    -0.354 N 
ATOM    121  C   UNL A   1      39.331  33.031  34.525  1.00  0.00     0.074 A 
ATOM    122  C   UNL A   1      38.303  34.046  34.490  1.00  0.00    -0.034 C 
ATOM    123  H   UNL A   1      36.666  34.416  33.177  1.00  0.00     0.065 H 
ATOM    124  C   UNL A   1      38.555  30.016  28.897  1.00  0.00    -0.036 A 
ATOM    125  H   UNL A   1      37.001  31.444  28.766  1.00  0.00     0.065 H 
ATOM    126  C   UNL A   1      39.560  29.743  29.920  1.00  0.00     0.049 A 
ATOM    127  H   UNL A   1      39.778  30.685  31.765  1.00  0.00     0.167 HD
ATOM    128  C   UNL A   1      40.193  32.850  35.554  1.00  0.00     0.037 A 
ATOM    129  H   UNL A   1      38.191  34.789  35.199  1.00  0.00     0.065 H 
ATOM    130  H   UNL A   1      38.458  29.510  28.002  1.00  0.00     0.065 H 
ATOM    131  C   UNL A   1      40.532  28.815  29.833  1.00  0.00     0.037 A 
ATOM    132  C   UNL A   1      41.202  31.824  35.592  1.00  0.00     0.049 A 
ATOM    133  C   UNL A   1      41.489  28.646  30.983  1.00  0.00     0.074 A 
ATOM    134  C   UNL A   1      42.087  31.521  36.610  1.00  0.00    -0.036 A 
ATOM    135  N   UNL A   1      41.461  30.934  34.559  1.00  0.00    -0.354 N 
ATOM    136  N   UNL A   1      41.536  29.293  32.122  1.00  0.00    -0.248 NA
ATOM    137  C   UNL A   1      42.524  27.613  30.839  1.00  0.00    -0.034 C 
ATOM    138  C   UNL A   1      42.922  30.488  36.172  1.00  0.00    -0.036 A 
ATOM    139  H   UNL A   1      42.125  31.979  37.535  1.00  0.00     0.065 H 
ATOM    140  C   UNL A   1      42.513  30.102  34.906  1.00  0.00     0.049 A 
ATOM    141  H   UNL A   1      40.970  30.900  33.706  1.00  0.00     0.167 HD
ATOM    142  C   UNL A   1      42.579  28.726  32.842  1.00  0.00     0.074 A 
ATOM    143  C   UNL A   1      43.128  27.671  32.016  1.00  0.00    -0.034 C 
ATOM    144  H   UNL A   1      42.726  27.002  30.032  1.00  0.00     0.065 H 
ATOM    145  H   UNL A   1      43.708  30.083  36.702  1.00  0.00     0.065 H 
ATOM    146  C   UNL A   1      43.042  29.050  34.075  1.00  0.00     0.037 A 
ATOM    147  H   UNL A   1      43.894  27.043  32.308  1.00  0.00     0.065 H 
BRANCH 128 148
ATOM    148  C   UNL A   1      40.082  33.786  36.726  1.00  0.00     0.064 A 
ATOM    149  C   UNL A   1      40.850  34.957  36.813  1.00  0.00     0.173 A 
ATOM    150  C   UNL A   1      39.170  33.525  37.761  1.00  0.00     0.173 A 
ATOM    151  F   UNL A   1      41.745  35.250  35.857  1.00  0.00    -0.203 F 
ATOM    152  C   UNL A   1      40.736  35.813  37.905  1.00  0.00     0.198 A 
ATOM    153  C   UNL A   1      39.033  34.402  38.835  1.00  0.00     0.198 A 
ATOM    154  F   UNL A   1      38.405  32.423  37.729  1.00  0.00    -0.203 F 
ATOM    155  F   UNL A   1      41.522  36.895  37.992  1.00  0.00    -0.200 F 
ATOM    156  C   UNL A   1      39.822  35.538  38.911  1.00  0.00     0.200 A 
ATOM    157  F   UNL A   1      38.138  34.142  39.798  1.00  0.00    -0.200 F 
ATOM    158  F   UNL A   1      39.707  36.367  39.958  1.00  0.00    -0.200 F 
ENDBRANCH 128 148
BRANCH 131 159
ATOM    159  C   UNL A   1      40.641  27.959  28.620  1.00  0.00     0.064 A 
ATOM    160  C   UNL A   1      41.382  28.377  27.505  1.00  0.00     0.173 A 
ATOM    161  C   UNL A   1      40.000  26.713  28.545  1.00  0.00     0.173 A 
ATOM    162  F   UNL A   1      41.997  29.568  27.519  1.00  0.00    -0.203 F 
ATOM    163  C   UNL A   1      41.456  27.595  26.354  1.00  0.00     0.198 A 
ATOM    164  C   UNL A   1      40.102  25.917  27.405  1.00  0.00     0.198 A 
ATOM    165  F   UNL A   1      39.282  26.262  29.584  1.00  0.00    -0.203 F 
ATOM    166  F   UNL A   1      42.127  28.044  25.284  1.00  0.00    -0.200 F 
ATOM    167  C   UNL A   1      40.822  26.364  26.307  1.00  0.00     0.200 A 
ATOM    168  F   UNL A   1      39.500  24.721  27.371  1.00  0.00    -0.200 F 
ATOM    169  F   UNL A   1      40.896  25.609  25.202  1.00  0.00    -0.200 F 
ENDBRANCH 131 159
BRANCH 146 170
ATOM    170  C   UNL A   1      44.174  28.229  34.625  1.00  0.00     0.064 A 
ATOM    171  C   UNL A   1      45.512  28.619  34.477  1.00  0.00     0.173 A 
ATOM    172  C   UNL A   1      43.909  27.054  35.347  1.00  0.00     0.173 A 
ATOM    173  F   UNL A   1      45.820  29.726  33.783  1.00  0.00    -0.203 F 
ATOM    174  C   UNL A   1      46.546  27.849  35.004  1.00  0.00     0.198 A 
ATOM    175  C   UNL A   1      44.942  26.307  35.904  1.00  0.00     0.198 A 
ATOM    176  F   UNL A   1      42.646  26.640  35.526  1.00  0.00    -0.203 F 
ATOM    177  F   UNL A   1      47.820  28.213  34.803  1.00  0.00    -0.200 F 
ATOM    178  C   UNL A   1      46.259  26.699  35.725  1.00  0.00     0.200 A 
ATOM    179  F   UNL A   1      44.663  25.205  36.616  1.00  0.00    -0.200 F 
ATOM    180  F   UNL A   1      47.255  25.965  36.241  1.00  0.00    -0.200 F 
ENDBRANCH 146 170
ENDBRANCH 111 114
ENDBRANCH 101 104
ENDBRANCH  97 100
ENDBRANCH  94  97
ENDBRANCH   1  94
TORSDOF 21
ENDMDL
MODEL 7
REMARK VINA RESULT:     -12.0      4.878     10.545
REMARK SMILES C[C@H]1[C@H](C)CC[C@@]2(C(=O)NCCCCCCNC(=O)c3ccc(-c4c5nc(c(-c6c(F)c(F)c(F)c(F)c6F)c6ccc([nH]6)c(-c6c(F)c(F)c(F)c(F)c6F)c6nc(c(-c7c(F)c(F)c(F)c(F)c7F)c7ccc4[nH]7)C=C6)C=C5)cc3)CC[C@@]3(C)C(=CC[C@@H]4[C@@]5(C)CC[C@H](O)C(C)(C)[C@@H]5CC[C@]43C)[C@H]12
REMARK SMILES IDX 14 1 13 4 12 7 11 10 10 13 8 14 9 15 7 17 2 18 3 19 105 20
REMARK SMILES IDX 5 22 87 24 6 26 83 29 85 30 88 31 84 34 103 37 89 38 90 42
REMARK SMILES IDX 102 43 91 46 101 48 93 51 100 52 94 55 97 58 95 60 1 64 4 68
REMARK SMILES IDX 86 72 104 76 92 80 98 84 99 88 96 92 15 94 16 97 17 100
REMARK SMILES IDX 18 101 19 103 20 104 21 105 82 106 22 107 81 109 23 111
REMARK SMILES IDX 24 114 25 115 75 116 26 117 80 118 74 119 76 120 27 121
REMARK SMILES IDX 79 122 73 124 72 126 28 128 60 131 40 132 59 133 41 134
REMARK SMILES IDX 44 135 58 136 77 137 42 138 43 140 57 142 78 143 45 146
REMARK SMILES IDX 29 148 30 149 38 150 31 151 32 152 36 153 39 154 33 155
REMARK SMILES IDX 34 156 37 157 35 158 61 159 62 160 70 161 63 162 64 163
REMARK SMILES IDX 68 164 71 165 65 166 66 167 69 168 67 169 46 170 47 171
REMARK SMILES IDX 55 172 48 173 49 174 53 175 56 176 50 177 51 178 54 179
REMARK SMILES IDX 52 180
REMARK H PARENT 14 2 14 3 13 5 13 6 12 8 12 9 11 11 11 12 10 16 2 21 3 23
REMARK H PARENT 105 25 5 27 5 28 6 32 6 33 83 35 83 36 88 39 84 40 84 41 89 44
REMARK H PARENT 89 45 90 47 102 49 102 50 101 53 101 54 93 56 93 57 100 59
REMARK H PARENT 94 61 94 62 95 63 1 65 1 66 1 67 4 69 4 70 4 71 86 73 86 74
REMARK H PARENT 86 75 104 77 104 78 104 79 92 81 92 82 92 83 98 85 98 86 98 87
REMARK H PARENT 99 89 99 90 99 91 96 93 15 95 15 96 16 98 16 99 17 102 21 108
REMARK H PARENT 82 110 22 112 81 113 80 123 74 125 76 127 79 129 73 130 41 139
REMARK H PARENT 44 141 77 144 42 145 78 147
REMARK Flexibility Score: inf
ROOT
ATOM      1  C   UNL A   1      34.401  31.454  27.637  1.00  0.00    -0.052 C 
ATOM      2  H   UNL A   1      34.506  31.453  26.573  1.00  0.00     0.027 H 
ATOM      3  H   UNL A   1      35.187  31.929  28.187  1.00  0.00     0.027 H 
ENDROOT
BRANCH   1   4
ATOM      4  C   UNL A   1      34.451  29.993  28.098  1.00  0.00    -0.052 C 
ATOM      5  H   UNL A   1      34.901  29.990  29.068  1.00  0.00     0.027 H 
ATOM      6  H   UNL A   1      33.431  29.676  28.031  1.00  0.00     0.027 H 
BRANCH   4   7
ATOM      7  C   UNL A   1      35.203  28.952  27.254  1.00  0.00    -0.036 C 
ATOM      8  H   UNL A   1      35.986  29.470  26.738  1.00  0.00     0.028 H 
ATOM      9  H   UNL A   1      35.511  28.215  27.965  1.00  0.00     0.028 H 
BRANCH   7  10
ATOM     10  C   UNL A   1      34.425  28.153  26.203  1.00  0.00     0.017 C 
ATOM     11  H   UNL A   1      35.044  27.343  25.877  1.00  0.00     0.049 H 
ATOM     12  H   UNL A   1      33.522  27.834  26.679  1.00  0.00     0.049 H 
BRANCH  10  13
ATOM     13  N   UNL A   1      34.021  28.910  25.031  1.00  0.00    -0.356 N 
ATOM     14  C   UNL A   1      32.809  28.993  24.392  1.00  0.00     0.226 C 
ATOM     15  O   UNL A   1      32.895  29.014  23.157  1.00  0.00    -0.274 OA
ATOM     16  H   UNL A   1      34.735  29.454  24.628  1.00  0.00     0.163 HD
BRANCH  14  17
ATOM     17  C   UNL A   1      31.408  29.140  25.105  1.00  0.00     0.056 C 
ATOM     18  C   UNL A   1      29.800  29.544  23.116  1.00  0.00    -0.034 C 
ATOM     19  C   UNL A   1      29.392  30.920  23.742  1.00  0.00    -0.041 C 
ATOM     20  C   UNL A   1      30.244  28.565  24.242  1.00  0.00    -0.002 C 
ATOM     21  H   UNL A   1      30.627  29.703  22.457  1.00  0.00     0.031 H 
ATOM     22  C   UNL A   1      30.414  31.524  24.723  1.00  0.00    -0.049 C 
ATOM     23  H   UNL A   1      28.499  30.630  24.256  1.00  0.00     0.030 H 
ATOM     24  C   UNL A   1      30.669  27.110  23.929  1.00  0.00    -0.063 C 
ATOM     25  H   UNL A   1      29.291  28.489  24.723  1.00  0.00     0.036 H 
ATOM     26  C   UNL A   1      31.184  30.574  25.607  1.00  0.00    -0.038 C 
ATOM     27  H   UNL A   1      29.884  32.198  25.362  1.00  0.00     0.027 H 
ATOM     28  H   UNL A   1      31.157  31.973  24.097  1.00  0.00     0.027 H 
ATOM     29  C   UNL A   1      31.403  28.288  26.433  1.00  0.00    -0.037 C 
ATOM     30  C   UNL A   1      30.617  26.122  25.135  1.00  0.00    -0.006 C 
ATOM     31  C   UNL A   1      31.333  26.807  22.794  1.00  0.00    -0.084 C 
ATOM     32  H   UNL A   1      30.656  30.507  26.535  1.00  0.00     0.028 H 
ATOM     33  H   UNL A   1      32.167  30.994  25.659  1.00  0.00     0.028 H 
ATOM     34  C   UNL A   1      31.426  26.762  26.312  1.00  0.00    -0.043 C 
ATOM     35  H   UNL A   1      30.519  28.549  26.976  1.00  0.00     0.028 H 
ATOM     36  H   UNL A   1      32.331  28.531  26.909  1.00  0.00     0.028 H 
ATOM     37  C   UNL A   1      31.246  24.666  24.757  1.00  0.00    -0.020 C 
ATOM     38  C   UNL A   1      32.270  25.631  22.657  1.00  0.00    -0.031 C 
ATOM     39  H   UNL A   1      31.192  27.414  21.971  1.00  0.00     0.058 H 
ATOM     40  H   UNL A   1      31.038  26.361  27.225  1.00  0.00     0.028 H 
ATOM     41  H   UNL A   1      32.449  26.519  26.106  1.00  0.00     0.028 H 
ATOM     42  C   UNL A   1      32.604  24.980  24.028  1.00  0.00    -0.026 C 
ATOM     43  C   UNL A   1      31.459  23.772  26.008  1.00  0.00    -0.046 C 
ATOM     44  H   UNL A   1      33.180  25.969  22.207  1.00  0.00     0.031 H 
ATOM     45  H   UNL A   1      31.784  24.895  22.054  1.00  0.00     0.031 H 
ATOM     46  C   UNL A   1      33.762  23.896  24.036  1.00  0.00    -0.025 C 
ATOM     47  H   UNL A   1      33.126  25.676  24.650  1.00  0.00     0.032 H 
ATOM     48  C   UNL A   1      32.376  22.575  25.753  1.00  0.00    -0.049 C 
ATOM     49  H   UNL A   1      31.890  24.370  26.784  1.00  0.00     0.027 H 
ATOM     50  H   UNL A   1      30.500  23.382  26.282  1.00  0.00     0.027 H 
ATOM     51  C   UNL A   1      35.132  24.654  24.022  1.00  0.00    -0.045 C 
ATOM     52  C   UNL A   1      33.774  23.083  25.387  1.00  0.00    -0.028 C 
ATOM     53  H   UNL A   1      32.435  21.973  26.635  1.00  0.00     0.027 H 
ATOM     54  H   UNL A   1      31.986  21.985  24.949  1.00  0.00     0.027 H 
ATOM     55  C   UNL A   1      36.352  23.741  24.146  1.00  0.00    -0.026 C 
ATOM     56  H   UNL A   1      35.143  25.343  24.840  1.00  0.00     0.027 H 
ATOM     57  H   UNL A   1      35.206  25.139  23.071  1.00  0.00     0.027 H 
ATOM     58  C   UNL A   1      34.939  22.030  25.539  1.00  0.00    -0.006 C 
ATOM     59  H   UNL A   1      34.041  23.788  26.145  1.00  0.00     0.031 H 
ATOM     60  C   UNL A   1      36.293  22.780  25.337  1.00  0.00     0.059 C 
ATOM     61  H   UNL A   1      37.221  24.355  24.252  1.00  0.00     0.029 H 
ATOM     62  H   UNL A   1      36.377  23.137  23.263  1.00  0.00     0.029 H 
ATOM     63  H   UNL A   1      36.373  23.387  26.215  1.00  0.00     0.061 H 
BRANCH  18  64
ATOM     64  C   UNL A   1      28.670  28.949  22.261  1.00  0.00    -0.062 C 
ATOM     65  H   UNL A   1      27.724  29.266  22.649  1.00  0.00     0.023 H 
ATOM     66  H   UNL A   1      28.726  27.881  22.286  1.00  0.00     0.023 H 
ATOM     67  H   UNL A   1      28.771  29.287  21.250  1.00  0.00     0.023 H 
ENDBRANCH  18  64
BRANCH  19  68
ATOM     68  C   UNL A   1      29.103  32.038  22.725  1.00  0.00    -0.062 C 
ATOM     69  H   UNL A   1      29.985  32.233  22.150  1.00  0.00     0.023 H 
ATOM     70  H   UNL A   1      28.813  32.927  23.244  1.00  0.00     0.023 H 
ATOM     71  H   UNL A   1      28.313  31.730  22.073  1.00  0.00     0.023 H 
ENDBRANCH  19  68
BRANCH  30  72
ATOM     72  C   UNL A   1      29.147  25.950  25.601  1.00  0.00    -0.055 C 
ATOM     73  H   UNL A   1      28.488  26.307  24.837  1.00  0.00     0.024 H 
ATOM     74  H   UNL A   1      28.989  26.509  26.499  1.00  0.00     0.024 H 
ATOM     75  H   UNL A   1      28.951  24.915  25.786  1.00  0.00     0.024 H 
ENDBRANCH  30  72
BRANCH  37  76
ATOM     76  C   UNL A   1      30.277  23.862  23.836  1.00  0.00    -0.059 C 
ATOM     77  H   UNL A   1      30.506  22.819  23.901  1.00  0.00     0.024 H 
ATOM     78  H   UNL A   1      30.393  24.190  22.823  1.00  0.00     0.024 H 
ATOM     79  H   UNL A   1      29.268  24.026  24.150  1.00  0.00     0.024 H 
ENDBRANCH  37  76
BRANCH  46  80
ATOM     80  C   UNL A   1      33.668  23.032  22.766  1.00  0.00    -0.059 C 
ATOM     81  H   UNL A   1      32.693  23.135  22.336  1.00  0.00     0.024 H 
ATOM     82  H   UNL A   1      33.841  22.007  23.018  1.00  0.00     0.024 H 
ATOM     83  H   UNL A   1      34.404  23.356  22.059  1.00  0.00     0.024 H 
ENDBRANCH  46  80
BRANCH  58  84
ATOM     84  C   UNL A   1      34.804  20.793  24.625  1.00  0.00    -0.057 C 
ATOM     85  H   UNL A   1      35.710  20.225  24.659  1.00  0.00     0.024 H 
ATOM     86  H   UNL A   1      34.618  21.110  23.621  1.00  0.00     0.024 H 
ATOM     87  H   UNL A   1      33.990  20.186  24.964  1.00  0.00     0.024 H 
ENDBRANCH  58  84
BRANCH  58  88
ATOM     88  C   UNL A   1      34.959  21.454  26.986  1.00  0.00    -0.057 C 
ATOM     89  H   UNL A   1      35.658  20.645  27.038  1.00  0.00     0.024 H 
ATOM     90  H   UNL A   1      33.983  21.098  27.242  1.00  0.00     0.024 H 
ATOM     91  H   UNL A   1      35.250  22.221  27.672  1.00  0.00     0.024 H 
ENDBRANCH  58  88
BRANCH  60  92
ATOM     92  O   UNL A   1      37.385  21.863  25.243  1.00  0.00    -0.393 OA
ATOM     93  H   UNL A   1      37.747  21.883  24.344  1.00  0.00     0.210 HD
ENDBRANCH  60  92
ENDBRANCH  14  17
ENDBRANCH  10  13
ENDBRANCH   7  10
ENDBRANCH   4   7
ENDBRANCH   1   4
BRANCH   1  94
ATOM     94  C   UNL A   1      33.162  32.280  27.968  1.00  0.00    -0.036 C 
ATOM     95  H   UNL A   1      33.226  32.545  29.003  1.00  0.00     0.028 H 
ATOM     96  H   UNL A   1      32.341  31.647  27.700  1.00  0.00     0.028 H 
BRANCH  94  97
ATOM     97  C   UNL A   1      32.926  33.561  27.186  1.00  0.00     0.018 C 
ATOM     98  H   UNL A   1      32.156  33.378  26.466  1.00  0.00     0.049 H 
ATOM     99  H   UNL A   1      33.862  33.822  26.736  1.00  0.00     0.049 H 
BRANCH  97 100
ATOM    100  N   UNL A   1      32.528  34.689  28.001  1.00  0.00    -0.352 N 
ATOM    101  C   UNL A   1      33.063  35.137  29.188  1.00  0.00     0.251 C 
ATOM    102  H   UNL A   1      31.766  35.211  27.657  1.00  0.00     0.163 HD
ATOM    103  O   UNL A   1      32.544  36.073  29.779  1.00  0.00    -0.269 OA
BRANCH 101 104
ATOM    104  C   UNL A   1      34.246  34.461  29.778  1.00  0.00     0.039 A 
ATOM    105  C   UNL A   1      34.061  33.664  30.912  1.00  0.00    -0.049 A 
ATOM    106  C   UNL A   1      35.525  34.605  29.233  1.00  0.00    -0.049 A 
ATOM    107  C   UNL A   1      35.142  32.969  31.460  1.00  0.00    -0.053 A 
ATOM    108  H   UNL A   1      33.126  33.589  31.343  1.00  0.00     0.063 H 
ATOM    109  C   UNL A   1      36.582  33.843  29.726  1.00  0.00    -0.053 A 
ATOM    110  H   UNL A   1      35.686  35.276  28.466  1.00  0.00     0.063 H 
ATOM    111  C   UNL A   1      36.406  33.026  30.852  1.00  0.00    -0.014 A 
ATOM    112  H   UNL A   1      35.010  32.411  32.318  1.00  0.00     0.063 H 
ATOM    113  H   UNL A   1      37.502  33.881  29.258  1.00  0.00     0.063 H 
BRANCH 111 114
ATOM    114  C   UNL A   1      37.555  32.254  31.395  1.00  0.00     0.031 A 
ATOM    115  C   UNL A   1      38.092  32.563  32.767  1.00  0.00     0.074 A 
ATOM    116  C   UNL A   1      38.143  31.306  30.639  1.00  0.00     0.049 A 
ATOM    117  N   UNL A   1      39.110  32.034  33.398  1.00  0.00    -0.248 NA
ATOM    118  C   UNL A   1      37.410  33.628  33.520  1.00  0.00    -0.034 C 
ATOM    119  C   UNL A   1      37.746  30.944  29.277  1.00  0.00    -0.036 A 
ATOM    120  N   UNL A   1      39.205  30.476  30.904  1.00  0.00    -0.354 N 
ATOM    121  C   UNL A   1      39.196  32.709  34.610  1.00  0.00     0.074 A 
ATOM    122  C   UNL A   1      38.170  33.727  34.599  1.00  0.00    -0.034 C 
ATOM    123  H   UNL A   1      36.562  34.159  33.270  1.00  0.00     0.065 H 
ATOM    124  C   UNL A   1      38.532  29.948  28.839  1.00  0.00    -0.036 A 
ATOM    125  H   UNL A   1      36.983  31.385  28.740  1.00  0.00     0.065 H 
ATOM    126  C   UNL A   1      39.516  29.628  29.869  1.00  0.00     0.049 A 
ATOM    127  H   UNL A   1      39.697  30.487  31.758  1.00  0.00     0.167 HD
ATOM    128  C   UNL A   1      40.036  32.481  35.647  1.00  0.00     0.037 A 
ATOM    129  H   UNL A   1      38.045  34.438  35.337  1.00  0.00     0.065 H 
ATOM    130  H   UNL A   1      38.453  29.483  27.921  1.00  0.00     0.065 H 
ATOM    131  C   UNL A   1      40.488  28.703  29.761  1.00  0.00     0.037 A 
ATOM    132  C   UNL A   1      41.043  31.452  35.660  1.00  0.00     0.049 A 
ATOM    133  C   UNL A   1      41.420  28.481  30.922  1.00  0.00     0.074 A 
ATOM    134  C   UNL A   1      41.907  31.102  36.682  1.00  0.00    -0.036 A 
ATOM    135  N   UNL A   1      41.322  30.608  34.594  1.00  0.00    -0.354 N 
ATOM    136  N   UNL A   1      41.445  29.077  32.089  1.00  0.00    -0.248 NA
ATOM    137  C   UNL A   1      42.457  27.453  30.753  1.00  0.00    -0.034 C 
ATOM    138  C   UNL A   1      42.749  30.088  36.216  1.00  0.00    -0.036 A 
ATOM    139  H   UNL A   1      41.926  31.519  37.627  1.00  0.00     0.065 H 
ATOM    140  C   UNL A   1      42.366  29.759  34.926  1.00  0.00     0.049 A 
ATOM    141  H   UNL A   1      40.849  30.613  33.731  1.00  0.00     0.167 HD
ATOM    142  C   UNL A   1      42.473  28.476  32.804  1.00  0.00     0.074 A 
ATOM    143  C   UNL A   1      43.037  27.457  31.943  1.00  0.00    -0.034 C 
ATOM    144  H   UNL A   1      42.674  26.878  29.924  1.00  0.00     0.065 H 
ATOM    145  H   UNL A   1      43.524  29.658  36.743  1.00  0.00     0.065 H 
ATOM    146  C   UNL A   1      42.910  28.744  34.059  1.00  0.00     0.037 A 
ATOM    147  H   UNL A   1      43.796  26.816  32.223  1.00  0.00     0.065 H 
BRANCH 128 148
ATOM    148  C   UNL A   1      39.903  33.364  36.857  1.00  0.00     0.064 A 
ATOM    149  C   UNL A   1      38.992  33.076  37.886  1.00  0.00     0.173 A 
ATOM    150  C   UNL A   1      40.722  34.494  37.008  1.00  0.00     0.173 A 
ATOM    151  F   UNL A   1      38.178  32.014  37.789  1.00  0.00    -0.203 F 
ATOM    152  C   UNL A   1      38.881  33.904  39.000  1.00  0.00     0.198 A 
ATOM    153  C   UNL A   1      40.633  35.300  38.141  1.00  0.00     0.198 A 
ATOM    154  F   UNL A   1      41.615  34.815  36.059  1.00  0.00    -0.203 F 
ATOM    155  F   UNL A   1      37.963  33.639  39.941  1.00  0.00    -0.200 F 
ATOM    156  C   UNL A   1      39.707  35.010  39.130  1.00  0.00     0.200 A 
ATOM    157  F   UNL A   1      41.443  36.360  38.271  1.00  0.00    -0.200 F 
ATOM    158  F   UNL A   1      39.605  35.801  40.207  1.00  0.00    -0.200 F 
ENDBRANCH 128 148
BRANCH 131 159
ATOM    159  C   UNL A   1      40.620  27.901  28.513  1.00  0.00     0.064 A 
ATOM    160  C   UNL A   1      41.365  28.377  27.425  1.00  0.00     0.173 A 
ATOM    161  C   UNL A   1      39.998  26.651  28.379  1.00  0.00     0.173 A 
ATOM    162  F   UNL A   1      41.964  29.575  27.496  1.00  0.00    -0.203 F 
ATOM    163  C   UNL A   1      41.462  27.646  26.242  1.00  0.00     0.198 A 
ATOM    164  C   UNL A   1      40.123  25.906  27.207  1.00  0.00     0.198 A 
ATOM    165  F   UNL A   1      39.277  26.146  29.390  1.00  0.00    -0.203 F 
ATOM    166  F   UNL A   1      42.136  28.150  25.200  1.00  0.00    -0.200 F 
ATOM    167  C   UNL A   1      40.846  26.409  26.136  1.00  0.00     0.200 A 
ATOM    168  F   UNL A   1      39.539  24.704  27.116  1.00  0.00    -0.200 F 
ATOM    169  F   UNL A   1      40.942  25.704  25.001  1.00  0.00    -0.200 F 
ENDBRANCH 131 159
BRANCH 146 170
ATOM    170  C   UNL A   1      44.029  27.897  34.596  1.00  0.00     0.064 A 
ATOM    171  C   UNL A   1      45.371  28.295  34.502  1.00  0.00     0.173 A 
ATOM    172  C   UNL A   1      43.749  26.687  35.250  1.00  0.00     0.173 A 
ATOM    173  F   UNL A   1      45.693  29.436  33.874  1.00  0.00    -0.203 F 
ATOM    174  C   UNL A   1      46.392  27.500  35.015  1.00  0.00     0.198 A 
ATOM    175  C   UNL A   1      44.769  25.912  35.795  1.00  0.00     0.198 A 
ATOM    176  F   UNL A   1      42.482  26.262  35.376  1.00  0.00    -0.203 F 
ATOM    177  F   UNL A   1      47.670  27.874  34.866  1.00  0.00    -0.200 F 
ATOM    178  C   UNL A   1      46.089  26.315  35.669  1.00  0.00     0.200 A 
ATOM    179  F   UNL A   1      44.474  24.776  36.442  1.00  0.00    -0.200 F 
ATOM    180  F   UNL A   1      47.073  25.556  36.172  1.00  0.00    -0.200 F 
ENDBRANCH 146 170
ENDBRANCH 111 114
ENDBRANCH 101 104
ENDBRANCH  97 100
ENDBRANCH  94  97
ENDBRANCH   1  94
TORSDOF 21
ENDMDL
MODEL 8
REMARK VINA RESULT:     -12.0      0.886      6.911
REMARK SMILES C[C@H]1[C@H](C)CC[C@@]2(C(=O)NCCCCCCNC(=O)c3ccc(-c4c5nc(c(-c6c(F)c(F)c(F)c(F)c6F)c6ccc([nH]6)c(-c6c(F)c(F)c(F)c(F)c6F)c6nc(c(-c7c(F)c(F)c(F)c(F)c7F)c7ccc4[nH]7)C=C6)C=C5)cc3)CC[C@@]3(C)C(=CC[C@@H]4[C@@]5(C)CC[C@H](O)C(C)(C)[C@@H]5CC[C@]43C)[C@H]12
REMARK SMILES IDX 14 1 13 4 12 7 11 10 10 13 8 14 9 15 7 17 2 18 3 19 105 20
REMARK SMILES IDX 5 22 87 24 6 26 83 29 85 30 88 31 84 34 103 37 89 38 90 42
REMARK SMILES IDX 102 43 91 46 101 48 93 51 100 52 94 55 97 58 95 60 1 64 4 68
REMARK SMILES IDX 86 72 104 76 92 80 98 84 99 88 96 92 15 94 16 97 17 100
REMARK SMILES IDX 18 101 19 103 20 104 21 105 82 106 22 107 81 109 23 111
REMARK SMILES IDX 24 114 25 115 75 116 26 117 80 118 74 119 76 120 27 121
REMARK SMILES IDX 79 122 73 124 72 126 28 128 60 131 40 132 59 133 41 134
REMARK SMILES IDX 44 135 58 136 77 137 42 138 43 140 57 142 78 143 45 146
REMARK SMILES IDX 29 148 30 149 38 150 31 151 32 152 36 153 39 154 33 155
REMARK SMILES IDX 34 156 37 157 35 158 61 159 62 160 70 161 63 162 64 163
REMARK SMILES IDX 68 164 71 165 65 166 66 167 69 168 67 169 46 170 47 171
REMARK SMILES IDX 55 172 48 173 49 174 53 175 56 176 50 177 51 178 54 179
REMARK SMILES IDX 52 180
REMARK H PARENT 14 2 14 3 13 5 13 6 12 8 12 9 11 11 11 12 10 16 2 21 3 23
REMARK H PARENT 105 25 5 27 5 28 6 32 6 33 83 35 83 36 88 39 84 40 84 41 89 44
REMARK H PARENT 89 45 90 47 102 49 102 50 101 53 101 54 93 56 93 57 100 59
REMARK H PARENT 94 61 94 62 95 63 1 65 1 66 1 67 4 69 4 70 4 71 86 73 86 74
REMARK H PARENT 86 75 104 77 104 78 104 79 92 81 92 82 92 83 98 85 98 86 98 87
REMARK H PARENT 99 89 99 90 99 91 96 93 15 95 15 96 16 98 16 99 17 102 21 108
REMARK H PARENT 82 110 22 112 81 113 80 123 74 125 76 127 79 129 73 130 41 139
REMARK H PARENT 44 141 77 144 42 145 78 147
REMARK Flexibility Score: inf
ROOT
ATOM      1  C   UNL A   1      39.670  22.323  26.159  1.00  0.00    -0.052 C 
ATOM      2  H   UNL A   1      40.633  22.684  26.452  1.00  0.00     0.027 H 
ATOM      3  H   UNL A   1      39.466  22.322  25.108  1.00  0.00     0.027 H 
ENDROOT
BRANCH   1   4
ATOM      4  C   UNL A   1      38.630  23.287  26.741  1.00  0.00    -0.052 C 
ATOM      5  H   UNL A   1      37.998  22.710  27.383  1.00  0.00     0.027 H 
ATOM      6  H   UNL A   1      39.226  24.049  27.198  1.00  0.00     0.027 H 
BRANCH   4   7
ATOM      7  C   UNL A   1      37.708  24.075  25.797  1.00  0.00    -0.036 C 
ATOM      8  H   UNL A   1      37.983  25.106  25.877  1.00  0.00     0.028 H 
ATOM      9  H   UNL A   1      37.860  23.616  24.843  1.00  0.00     0.028 H 
BRANCH   7  10
ATOM     10  C   UNL A   1      36.193  23.996  26.011  1.00  0.00     0.017 C 
ATOM     11  H   UNL A   1      35.902  24.819  26.630  1.00  0.00     0.049 H 
ATOM     12  H   UNL A   1      35.752  24.021  25.036  1.00  0.00     0.049 H 
BRANCH  10  13
ATOM     13  N   UNL A   1      35.723  22.774  26.638  1.00  0.00    -0.356 N 
ATOM     14  C   UNL A   1      34.968  21.742  26.139  1.00  0.00     0.226 C 
ATOM     15  O   UNL A   1      34.127  21.306  26.935  1.00  0.00    -0.274 OA
ATOM     16  H   UNL A   1      35.992  22.666  27.579  1.00  0.00     0.163 HD
BRANCH  14  17
ATOM     17  C   UNL A   1      35.161  21.071  24.723  1.00  0.00     0.056 C 
ATOM     18  C   UNL A   1      33.437  19.140  24.772  1.00  0.00    -0.034 C 
ATOM     19  C   UNL A   1      34.599  18.113  24.556  1.00  0.00    -0.041 C 
ATOM     20  C   UNL A   1      33.824  20.512  24.148  1.00  0.00    -0.002 C 
ATOM     21  H   UNL A   1      33.292  19.272  25.824  1.00  0.00     0.031 H 
ATOM     22  C   UNL A   1      35.999  18.609  24.967  1.00  0.00    -0.049 C 
ATOM     23  H   UNL A   1      34.539  17.988  23.495  1.00  0.00     0.030 H 
ATOM     24  C   UNL A   1      32.853  21.717  24.173  1.00  0.00    -0.063 C 
ATOM     25  H   UNL A   1      33.849  20.183  23.130  1.00  0.00     0.036 H 
ATOM     26  C   UNL A   1      36.322  20.066  24.735  1.00  0.00    -0.038 C 
ATOM     27  H   UNL A   1      36.715  18.031  24.422  1.00  0.00     0.027 H 
ATOM     28  H   UNL A   1      36.026  18.492  26.030  1.00  0.00     0.027 H 
ATOM     29  C   UNL A   1      35.639  22.161  23.686  1.00  0.00    -0.037 C 
ATOM     30  C   UNL A   1      33.144  22.835  23.126  1.00  0.00    -0.006 C 
ATOM     31  C   UNL A   1      32.029  21.925  25.221  1.00  0.00    -0.084 C 
ATOM     32  H   UNL A   1      36.812  20.134  23.786  1.00  0.00     0.028 H 
ATOM     33  H   UNL A   1      36.909  20.347  25.585  1.00  0.00     0.028 H 
ATOM     34  C   UNL A   1      34.646  23.251  23.275  1.00  0.00    -0.043 C 
ATOM     35  H   UNL A   1      35.931  21.645  22.794  1.00  0.00     0.028 H 
ATOM     36  H   UNL A   1      36.418  22.689  24.195  1.00  0.00     0.028 H 
ATOM     37  C   UNL A   1      32.185  24.136  23.342  1.00  0.00    -0.020 C 
ATOM     38  C   UNL A   1      31.510  23.285  25.624  1.00  0.00    -0.031 C 
ATOM     39  H   UNL A   1      31.736  21.109  25.781  1.00  0.00     0.058 H 
ATOM     40  H   UNL A   1      34.968  23.640  22.332  1.00  0.00     0.028 H 
ATOM     41  H   UNL A   1      34.657  23.951  24.085  1.00  0.00     0.028 H 
ATOM     42  C   UNL A   1      32.241  24.439  24.884  1.00  0.00    -0.026 C 
ATOM     43  C   UNL A   1      32.646  25.356  22.499  1.00  0.00    -0.046 C 
ATOM     44  H   UNL A   1      31.652  23.408  26.677  1.00  0.00     0.031 H 
ATOM     45  H   UNL A   1      30.475  23.331  25.360  1.00  0.00     0.031 H 
ATOM     46  C   UNL A   1      31.951  25.910  25.400  1.00  0.00    -0.025 C 
ATOM     47  H   UNL A   1      33.277  24.450  25.151  1.00  0.00     0.032 H 
ATOM     48  C   UNL A   1      32.020  26.678  22.947  1.00  0.00    -0.049 C 
ATOM     49  H   UNL A   1      33.710  25.441  22.578  1.00  0.00     0.027 H 
ATOM     50  H   UNL A   1      32.327  25.181  21.492  1.00  0.00     0.027 H 
ATOM     51  C   UNL A   1      32.808  26.146  26.690  1.00  0.00    -0.045 C 
ATOM     52  C   UNL A   1      32.474  26.989  24.377  1.00  0.00    -0.028 C 
ATOM     53  H   UNL A   1      32.334  27.464  22.293  1.00  0.00     0.027 H 
ATOM     54  H   UNL A   1      30.953  26.600  22.917  1.00  0.00     0.027 H 
ATOM     55  C   UNL A   1      32.725  27.569  27.243  1.00  0.00    -0.026 C 
ATOM     56  H   UNL A   1      33.831  25.935  26.457  1.00  0.00     0.027 H 
ATOM     57  H   UNL A   1      32.413  25.499  27.445  1.00  0.00     0.027 H 
ATOM     58  C   UNL A   1      32.312  28.493  24.826  1.00  0.00    -0.006 C 
ATOM     59  H   UNL A   1      33.539  26.894  24.376  1.00  0.00     0.031 H 
ATOM     60  C   UNL A   1      33.019  28.659  26.208  1.00  0.00     0.059 C 
ATOM     61  H   UNL A   1      33.433  27.661  28.039  1.00  0.00     0.029 H 
ATOM     62  H   UNL A   1      31.716  27.716  27.568  1.00  0.00     0.029 H 
ATOM     63  H   UNL A   1      34.059  28.568  25.966  1.00  0.00     0.061 H 
BRANCH  18  64
ATOM     64  C   UNL A   1      32.104  18.618  24.211  1.00  0.00    -0.062 C 
ATOM     65  H   UNL A   1      32.144  17.552  24.131  1.00  0.00     0.023 H 
ATOM     66  H   UNL A   1      31.933  19.042  23.244  1.00  0.00     0.023 H 
ATOM     67  H   UNL A   1      31.307  18.896  24.869  1.00  0.00     0.023 H 
ENDBRANCH  18  64
BRANCH  19  68
ATOM     68  C   UNL A   1      34.423  16.768  25.280  1.00  0.00    -0.062 C 
ATOM     69  H   UNL A   1      33.922  16.928  26.213  1.00  0.00     0.023 H 
ATOM     70  H   UNL A   1      35.383  16.332  25.462  1.00  0.00     0.023 H 
ATOM     71  H   UNL A   1      33.841  16.109  24.671  1.00  0.00     0.023 H 
ENDBRANCH  19  68
BRANCH  30  72
ATOM     72  C   UNL A   1      32.942  22.270  21.694  1.00  0.00    -0.055 C 
ATOM     73  H   UNL A   1      33.035  23.064  20.982  1.00  0.00     0.024 H 
ATOM     74  H   UNL A   1      31.970  21.833  21.618  1.00  0.00     0.024 H 
ATOM     75  H   UNL A   1      33.685  21.526  21.498  1.00  0.00     0.024 H 
ENDBRANCH  30  72
BRANCH  37  76
ATOM     76  C   UNL A   1      30.727  23.838  22.872  1.00  0.00    -0.059 C 
ATOM     77  H   UNL A   1      30.034  24.253  23.574  1.00  0.00     0.024 H 
ATOM     78  H   UNL A   1      30.582  22.779  22.810  1.00  0.00     0.024 H 
ATOM     79  H   UNL A   1      30.566  24.277  21.909  1.00  0.00     0.024 H 
ENDBRANCH  37  76
BRANCH  46  80
ATOM     80  C   UNL A   1      30.464  26.042  25.771  1.00  0.00    -0.059 C 
ATOM     81  H   UNL A   1      30.367  26.658  26.641  1.00  0.00     0.024 H 
ATOM     82  H   UNL A   1      30.059  25.072  25.973  1.00  0.00     0.024 H 
ATOM     83  H   UNL A   1      29.931  26.489  24.958  1.00  0.00     0.024 H 
ENDBRANCH  46  80
BRANCH  58  84
ATOM     84  C   UNL A   1      30.854  29.000  24.841  1.00  0.00    -0.057 C 
ATOM     85  H   UNL A   1      30.599  29.320  25.830  1.00  0.00     0.024 H 
ATOM     86  H   UNL A   1      30.198  28.210  24.542  1.00  0.00     0.024 H 
ATOM     87  H   UNL A   1      30.755  29.821  24.163  1.00  0.00     0.024 H 
ENDBRANCH  58  84
BRANCH  58  88
ATOM     88  C   UNL A   1      33.050  29.436  23.830  1.00  0.00    -0.057 C 
ATOM     89  H   UNL A   1      32.407  29.653  23.003  1.00  0.00     0.024 H 
ATOM     90  H   UNL A   1      33.937  28.956  23.476  1.00  0.00     0.024 H 
ATOM     91  H   UNL A   1      33.311  30.346  24.328  1.00  0.00     0.024 H 
ENDBRANCH  58  88
BRANCH  60  92
ATOM     92  O   UNL A   1      32.733  29.933  26.787  1.00  0.00    -0.393 OA
ATOM     93  H   UNL A   1      32.535  29.821  27.729  1.00  0.00     0.210 HD
ENDBRANCH  60  92
ENDBRANCH  14  17
ENDBRANCH  10  13
ENDBRANCH   7  10
ENDBRANCH   4   7
ENDBRANCH   1   4
BRANCH   1  94
ATOM     94  C   UNL A   1      39.599  20.851  26.554  1.00  0.00    -0.036 C 
ATOM     95  H   UNL A   1      38.616  20.673  26.938  1.00  0.00     0.028 H 
ATOM     96  H   UNL A   1      40.401  20.724  27.253  1.00  0.00     0.028 H 
BRANCH  94  97
ATOM     97  C   UNL A   1      39.862  19.809  25.481  1.00  0.00     0.018 C 
ATOM     98  H   UNL A   1      40.197  20.314  24.598  1.00  0.00     0.049 H 
ATOM     99  H   UNL A   1      38.943  19.282  25.333  1.00  0.00     0.049 H 
BRANCH  97 100
ATOM    100  N   UNL A   1      40.855  18.820  25.843  1.00  0.00    -0.352 N 
ATOM    101  C   UNL A   1      42.131  19.005  26.327  1.00  0.00     0.251 C 
ATOM    102  H   UNL A   1      40.579  17.881  25.727  1.00  0.00     0.163 HD
ATOM    103  O   UNL A   1      42.862  18.042  26.510  1.00  0.00    -0.269 OA
BRANCH 101 104
ATOM    104  C   UNL A   1      42.641  20.374  26.589  1.00  0.00     0.039 A 
ATOM    105  C   UNL A   1      43.125  21.123  25.511  1.00  0.00    -0.049 A 
ATOM    106  C   UNL A   1      42.651  20.922  27.874  1.00  0.00    -0.049 A 
ATOM    107  C   UNL A   1      43.561  22.435  25.714  1.00  0.00    -0.053 A 
ATOM    108  H   UNL A   1      43.159  20.705  24.568  1.00  0.00     0.063 H 
ATOM    109  C   UNL A   1      43.002  22.259  28.059  1.00  0.00    -0.053 A 
ATOM    110  H   UNL A   1      42.398  20.339  28.686  1.00  0.00     0.063 H 
ATOM    111  C   UNL A   1      43.472  23.026  26.983  1.00  0.00    -0.014 A 
ATOM    112  H   UNL A   1      43.951  22.972  24.923  1.00  0.00     0.063 H 
ATOM    113  H   UNL A   1      42.915  22.686  28.995  1.00  0.00     0.063 H 
BRANCH 111 114
ATOM    114  C   UNL A   1      43.887  24.437  27.204  1.00  0.00     0.031 A 
ATOM    115  C   UNL A   1      42.882  25.454  27.676  1.00  0.00     0.074 A 
ATOM    116  C   UNL A   1      45.153  24.814  26.938  1.00  0.00     0.049 A 
ATOM    117  N   UNL A   1      43.036  26.737  27.885  1.00  0.00    -0.248 NA
ATOM    118  C   UNL A   1      41.515  24.969  27.921  1.00  0.00    -0.034 C 
ATOM    119  C   UNL A   1      46.207  23.934  26.431  1.00  0.00    -0.036 A 
ATOM    120  N   UNL A   1      45.768  26.036  27.049  1.00  0.00    -0.354 N 
ATOM    121  C   UNL A   1      41.788  27.210  28.271  1.00  0.00     0.074 A 
ATOM    122  C   UNL A   1      40.875  26.092  28.206  1.00  0.00    -0.034 C 
ATOM    123  H   UNL A   1      41.150  24.004  27.881  1.00  0.00     0.065 H 
ATOM    124  C   UNL A   1      47.344  24.636  26.306  1.00  0.00    -0.036 A 
ATOM    125  H   UNL A   1      46.095  22.932  26.208  1.00  0.00     0.065 H 
ATOM    126  C   UNL A   1      47.091  26.024  26.680  1.00  0.00     0.049 A 
ATOM    127  H   UNL A   1      45.305  26.846  27.366  1.00  0.00     0.167 HD
ATOM    128  C   UNL A   1      41.443  28.458  28.670  1.00  0.00     0.037 A 
ATOM    129  H   UNL A   1      39.856  26.160  28.362  1.00  0.00     0.065 H 
ATOM    130  H   UNL A   1      48.252  24.255  25.994  1.00  0.00     0.065 H 
ATOM    131  C   UNL A   1      47.996  27.021  26.641  1.00  0.00     0.037 A 
ATOM    132  C   UNL A   1      42.361  29.563  28.753  1.00  0.00     0.049 A 
ATOM    133  C   UNL A   1      47.582  28.402  27.073  1.00  0.00     0.074 A 
ATOM    134  C   UNL A   1      42.125  30.851  29.198  1.00  0.00    -0.036 A 
ATOM    135  N   UNL A   1      43.696  29.509  28.376  1.00  0.00    -0.354 N 
ATOM    136  N   UNL A   1      46.417  28.821  27.504  1.00  0.00    -0.248 NA
ATOM    137  C   UNL A   1      48.611  29.450  27.019  1.00  0.00    -0.034 C 
ATOM    138  C   UNL A   1      43.299  31.592  29.035  1.00  0.00    -0.036 A 
ATOM    139  H   UNL A   1      41.234  31.203  29.584  1.00  0.00     0.065 H 
ATOM    140  C   UNL A   1      44.287  30.750  28.552  1.00  0.00     0.049 A 
ATOM    141  H   UNL A   1      44.155  28.707  28.035  1.00  0.00     0.167 HD
ATOM    142  C   UNL A   1      46.579  30.166  27.804  1.00  0.00     0.074 A 
ATOM    143  C   UNL A   1      47.962  30.491  27.520  1.00  0.00    -0.034 C 
ATOM    144  H   UNL A   1      49.584  29.390  26.681  1.00  0.00     0.065 H 
ATOM    145  H   UNL A   1      43.410  32.597  29.240  1.00  0.00     0.065 H 
ATOM    146  C   UNL A   1      45.668  31.054  28.272  1.00  0.00     0.037 A 
ATOM    147  H   UNL A   1      48.388  31.417  27.686  1.00  0.00     0.065 H 
BRANCH 128 148
ATOM    148  C   UNL A   1      40.007  28.694  29.048  1.00  0.00     0.064 A 
ATOM    149  C   UNL A   1      39.544  28.496  30.359  1.00  0.00     0.173 A 
ATOM    150  C   UNL A   1      39.087  29.160  28.095  1.00  0.00     0.173 A 
ATOM    151  F   UNL A   1      40.378  28.042  31.307  1.00  0.00    -0.203 F 
ATOM    152  C   UNL A   1      38.211  28.720  30.693  1.00  0.00     0.198 A 
ATOM    153  C   UNL A   1      37.762  29.417  28.441  1.00  0.00     0.198 A 
ATOM    154  F   UNL A   1      39.474  29.373  26.828  1.00  0.00    -0.203 F 
ATOM    155  F   UNL A   1      37.782  28.467  31.937  1.00  0.00    -0.200 F 
ATOM    156  C   UNL A   1      37.323  29.187  29.736  1.00  0.00     0.200 A 
ATOM    157  F   UNL A   1      36.909  29.883  27.519  1.00  0.00    -0.200 F 
ATOM    158  F   UNL A   1      36.042  29.410  30.060  1.00  0.00    -0.200 F 
ENDBRANCH 128 148
BRANCH 131 159
ATOM    159  C   UNL A   1      49.389  26.748  26.193  1.00  0.00     0.064 A 
ATOM    160  C   UNL A   1      49.772  26.951  24.860  1.00  0.00     0.173 A 
ATOM    161  C   UNL A   1      50.363  26.271  27.083  1.00  0.00     0.173 A 
ATOM    162  F   UNL A   1      48.874  27.388  23.965  1.00  0.00    -0.203 F 
ATOM    163  C   UNL A   1      51.066  26.663  24.428  1.00  0.00     0.198 A 
ATOM    164  C   UNL A   1      51.665  26.014  26.658  1.00  0.00     0.198 A 
ATOM    165  F   UNL A   1      50.052  26.064  28.372  1.00  0.00    -0.203 F 
ATOM    166  F   UNL A   1      51.388  26.816  23.137  1.00  0.00    -0.200 F 
ATOM    167  C   UNL A   1      52.012  26.201  25.328  1.00  0.00     0.200 A 
ATOM    168  F   UNL A   1      52.580  25.583  27.536  1.00  0.00    -0.200 F 
ATOM    169  F   UNL A   1      53.257  25.927  24.915  1.00  0.00    -0.200 F 
ENDBRANCH 131 159
BRANCH 146 170
ATOM    170  C   UNL A   1      46.142  32.453  28.544  1.00  0.00     0.064 A 
ATOM    171  C   UNL A   1      46.075  33.461  27.572  1.00  0.00     0.173 A 
ATOM    172  C   UNL A   1      46.635  32.797  29.814  1.00  0.00     0.173 A 
ATOM    173  F   UNL A   1      45.626  33.181  26.339  1.00  0.00    -0.203 F 
ATOM    174  C   UNL A   1      46.511  34.754  27.850  1.00  0.00     0.198 A 
ATOM    175  C   UNL A   1      47.035  34.100  30.099  1.00  0.00     0.198 A 
ATOM    176  F   UNL A   1      46.712  31.874  30.784  1.00  0.00    -0.203 F 
ATOM    177  F   UNL A   1      46.488  35.688  26.889  1.00  0.00    -0.200 F 
ATOM    178  C   UNL A   1      46.981  35.074  29.114  1.00  0.00     0.200 A 
ATOM    179  F   UNL A   1      47.472  34.411  31.327  1.00  0.00    -0.200 F 
ATOM    180  F   UNL A   1      47.390  36.322  29.383  1.00  0.00    -0.200 F 
ENDBRANCH 146 170
ENDBRANCH 111 114
ENDBRANCH 101 104
ENDBRANCH  97 100
ENDBRANCH  94  97
ENDBRANCH   1  94
TORSDOF 21
ENDMDL
MODEL 9
REMARK VINA RESULT:     -11.9      0.965      6.842
REMARK SMILES C[C@H]1[C@H](C)CC[C@@]2(C(=O)NCCCCCCNC(=O)c3ccc(-c4c5nc(c(-c6c(F)c(F)c(F)c(F)c6F)c6ccc([nH]6)c(-c6c(F)c(F)c(F)c(F)c6F)c6nc(c(-c7c(F)c(F)c(F)c(F)c7F)c7ccc4[nH]7)C=C6)C=C5)cc3)CC[C@@]3(C)C(=CC[C@@H]4[C@@]5(C)CC[C@H](O)C(C)(C)[C@@H]5CC[C@]43C)[C@H]12
REMARK SMILES IDX 14 1 13 4 12 7 11 10 10 13 8 14 9 15 7 17 2 18 3 19 105 20
REMARK SMILES IDX 5 22 87 24 6 26 83 29 85 30 88 31 84 34 103 37 89 38 90 42
REMARK SMILES IDX 102 43 91 46 101 48 93 51 100 52 94 55 97 58 95 60 1 64 4 68
REMARK SMILES IDX 86 72 104 76 92 80 98 84 99 88 96 92 15 94 16 97 17 100
REMARK SMILES IDX 18 101 19 103 20 104 21 105 82 106 22 107 81 109 23 111
REMARK SMILES IDX 24 114 25 115 75 116 26 117 80 118 74 119 76 120 27 121
REMARK SMILES IDX 79 122 73 124 72 126 28 128 60 131 40 132 59 133 41 134
REMARK SMILES IDX 44 135 58 136 77 137 42 138 43 140 57 142 78 143 45 146
REMARK SMILES IDX 29 148 30 149 38 150 31 151 32 152 36 153 39 154 33 155
REMARK SMILES IDX 34 156 37 157 35 158 61 159 62 160 70 161 63 162 64 163
REMARK SMILES IDX 68 164 71 165 65 166 66 167 69 168 67 169 46 170 47 171
REMARK SMILES IDX 55 172 48 173 49 174 53 175 56 176 50 177 51 178 54 179
REMARK SMILES IDX 52 180
REMARK H PARENT 14 2 14 3 13 5 13 6 12 8 12 9 11 11 11 12 10 16 2 21 3 23
REMARK H PARENT 105 25 5 27 5 28 6 32 6 33 83 35 83 36 88 39 84 40 84 41 89 44
REMARK H PARENT 89 45 90 47 102 49 102 50 101 53 101 54 93 56 93 57 100 59
REMARK H PARENT 94 61 94 62 95 63 1 65 1 66 1 67 4 69 4 70 4 71 86 73 86 74
REMARK H PARENT 86 75 104 77 104 78 104 79 92 81 92 82 92 83 98 85 98 86 98 87
REMARK H PARENT 99 89 99 90 99 91 96 93 15 95 15 96 16 98 16 99 17 102 21 108
REMARK H PARENT 82 110 22 112 81 113 80 123 74 125 76 127 79 129 73 130 41 139
REMARK H PARENT 44 141 77 144 42 145 78 147
REMARK Flexibility Score: inf
ROOT
ATOM      1  C   UNL A   1      39.651  22.322  26.124  1.00  0.00    -0.052 C 
ATOM      2  H   UNL A   1      40.609  22.681  26.436  1.00  0.00     0.027 H 
ATOM      3  H   UNL A   1      39.463  22.333  25.070  1.00  0.00     0.027 H 
ENDROOT
BRANCH   1   4
ATOM      4  C   UNL A   1      38.600  23.277  26.701  1.00  0.00    -0.052 C 
ATOM      5  H   UNL A   1      37.956  22.691  27.322  1.00  0.00     0.027 H 
ATOM      6  H   UNL A   1      39.188  24.033  27.182  1.00  0.00     0.027 H 
BRANCH   4   7
ATOM      7  C   UNL A   1      37.696  24.081  25.753  1.00  0.00    -0.036 C 
ATOM      8  H   UNL A   1      37.980  25.109  25.843  1.00  0.00     0.028 H 
ATOM      9  H   UNL A   1      37.855  23.627  24.797  1.00  0.00     0.028 H 
BRANCH   7  10
ATOM     10  C   UNL A   1      36.178  24.014  25.949  1.00  0.00     0.017 C 
ATOM     11  H   UNL A   1      35.884  24.850  26.549  1.00  0.00     0.049 H 
ATOM     12  H   UNL A   1      35.750  24.023  24.968  1.00  0.00     0.049 H 
BRANCH  10  13
ATOM     13  N   UNL A   1      35.694  22.806  26.592  1.00  0.00    -0.356 N 
ATOM     14  C   UNL A   1      34.941  21.769  26.101  1.00  0.00     0.226 C 
ATOM     15  O   UNL A   1      34.086  21.351  26.894  1.00  0.00    -0.274 OA
ATOM     16  H   UNL A   1      35.949  22.715  27.539  1.00  0.00     0.163 HD
BRANCH  14  17
ATOM     17  C   UNL A   1      35.150  21.069  24.701  1.00  0.00     0.056 C 
ATOM     18  C   UNL A   1      33.472  19.099  24.795  1.00  0.00    -0.034 C 
ATOM     19  C   UNL A   1      34.659  18.096  24.602  1.00  0.00    -0.041 C 
ATOM     20  C   UNL A   1      33.827  20.466  24.140  1.00  0.00    -0.002 C 
ATOM     21  H   UNL A   1      33.325  19.252  25.844  1.00  0.00     0.031 H 
ATOM     22  C   UNL A   1      36.046  18.635  25.001  1.00  0.00    -0.049 C 
ATOM     23  H   UNL A   1      34.602  17.945  23.544  1.00  0.00     0.030 H 
ATOM     24  C   UNL A   1      32.827  21.647  24.138  1.00  0.00    -0.063 C 
ATOM     25  H   UNL A   1      33.859  20.114  23.129  1.00  0.00     0.036 H 
ATOM     26  C   UNL A   1      36.334  20.093  24.736  1.00  0.00    -0.038 C 
ATOM     27  H   UNL A   1      36.776  18.062  24.469  1.00  0.00     0.027 H 
ATOM     28  H   UNL A   1      36.076  18.543  26.067  1.00  0.00     0.027 H 
ATOM     29  C   UNL A   1      35.601  22.146  23.640  1.00  0.00    -0.037 C 
ATOM     30  C   UNL A   1      33.091  22.748  23.065  1.00  0.00    -0.006 C 
ATOM     31  C   UNL A   1      31.998  21.860  25.181  1.00  0.00    -0.084 C 
ATOM     32  H   UNL A   1      36.823  20.152  23.786  1.00  0.00     0.028 H 
ATOM     33  H   UNL A   1      36.914  20.407  25.579  1.00  0.00     0.028 H 
ATOM     34  C   UNL A   1      34.582  23.203  23.205  1.00  0.00    -0.043 C 
ATOM     35  H   UNL A   1      35.906  21.618  22.760  1.00  0.00     0.028 H 
ATOM     36  H   UNL A   1      36.367  22.705  24.136  1.00  0.00     0.028 H 
ATOM     37  C   UNL A   1      32.101  24.030  23.252  1.00  0.00    -0.020 C 
ATOM     38  C   UNL A   1      31.447  23.215  25.553  1.00  0.00    -0.031 C 
ATOM     39  H   UNL A   1      31.725  21.049  25.759  1.00  0.00     0.058 H 
ATOM     40  H   UNL A   1      34.895  23.578  22.253  1.00  0.00     0.028 H 
ATOM     41  H   UNL A   1      34.577  23.921  23.998  1.00  0.00     0.028 H 
ATOM     42  C   UNL A   1      32.150  24.369  24.786  1.00  0.00    -0.026 C 
ATOM     43  C   UNL A   1      32.532  25.241  22.381  1.00  0.00    -0.046 C 
ATOM     44  H   UNL A   1      31.586  23.366  26.603  1.00  0.00     0.031 H 
ATOM     45  H   UNL A   1      30.411  23.230  25.289  1.00  0.00     0.031 H 
ATOM     46  C   UNL A   1      31.825  25.845  25.269  1.00  0.00    -0.025 C 
ATOM     47  H   UNL A   1      33.185  24.412  25.053  1.00  0.00     0.032 H 
ATOM     48  C   UNL A   1      31.875  26.557  22.800  1.00  0.00    -0.049 C 
ATOM     49  H   UNL A   1      33.594  25.353  22.458  1.00  0.00     0.027 H 
ATOM     50  H   UNL A   1      32.218  25.036  21.379  1.00  0.00     0.027 H 
ATOM     51  C   UNL A   1      32.675  26.131  26.553  1.00  0.00    -0.045 C 
ATOM     52  C   UNL A   1      32.321  26.912  24.221  1.00  0.00    -0.028 C 
ATOM     53  H   UNL A   1      32.171  27.336  22.127  1.00  0.00     0.027 H 
ATOM     54  H   UNL A   1      30.810  26.454  22.772  1.00  0.00     0.027 H 
ATOM     55  C   UNL A   1      32.558  27.563  27.074  1.00  0.00    -0.026 C 
ATOM     56  H   UNL A   1      33.703  25.939  26.325  1.00  0.00     0.027 H 
ATOM     57  H   UNL A   1      32.296  25.491  27.323  1.00  0.00     0.027 H 
ATOM     58  C   UNL A   1      32.123  28.421  24.636  1.00  0.00    -0.006 C 
ATOM     59  H   UNL A   1      33.389  26.843  24.222  1.00  0.00     0.031 H 
ATOM     60  C   UNL A   1      32.826  28.636  26.013  1.00  0.00     0.059 C 
ATOM     61  H   UNL A   1      33.264  27.691  27.867  1.00  0.00     0.029 H 
ATOM     62  H   UNL A   1      31.546  27.693  27.395  1.00  0.00     0.029 H 
ATOM     63  H   UNL A   1      33.867  28.565  25.774  1.00  0.00     0.061 H 
BRANCH  18  64
ATOM     64  C   UNL A   1      32.153  18.533  24.247  1.00  0.00    -0.062 C 
ATOM     65  H   UNL A   1      31.539  19.335  23.895  1.00  0.00     0.023 H 
ATOM     66  H   UNL A   1      31.639  18.006  25.025  1.00  0.00     0.023 H 
ATOM     67  H   UNL A   1      32.360  17.861  23.440  1.00  0.00     0.023 H 
ENDBRANCH  18  64
BRANCH  19  68
ATOM     68  C   UNL A   1      34.515  16.764  25.357  1.00  0.00    -0.062 C 
ATOM     69  H   UNL A   1      33.494  16.446  25.327  1.00  0.00     0.023 H 
ATOM     70  H   UNL A   1      34.816  16.896  26.375  1.00  0.00     0.023 H 
ATOM     71  H   UNL A   1      35.134  16.024  24.895  1.00  0.00     0.023 H 
ENDBRANCH  19  68
BRANCH  30  72
ATOM     72  C   UNL A   1      32.903  22.146  21.647  1.00  0.00    -0.055 C 
ATOM     73  H   UNL A   1      31.996  22.520  21.219  1.00  0.00     0.024 H 
ATOM     74  H   UNL A   1      32.854  21.080  21.716  1.00  0.00     0.024 H 
ATOM     75  H   UNL A   1      33.731  22.425  21.030  1.00  0.00     0.024 H 
ENDBRANCH  30  72
BRANCH  37  76
ATOM     76  C   UNL A   1      30.651  23.687  22.789  1.00  0.00    -0.059 C 
ATOM     77  H   UNL A   1      30.420  22.677  23.060  1.00  0.00     0.024 H 
ATOM     78  H   UNL A   1      30.581  23.796  21.727  1.00  0.00     0.024 H 
ATOM     79  H   UNL A   1      29.959  24.351  23.262  1.00  0.00     0.024 H 
ENDBRANCH  37  76
BRANCH  46  80
ATOM     80  C   UNL A   1      30.334  25.949  25.638  1.00  0.00    -0.059 C 
ATOM     81  H   UNL A   1      29.890  26.762  25.101  1.00  0.00     0.024 H 
ATOM     82  H   UNL A   1      30.238  26.122  26.690  1.00  0.00     0.024 H 
ATOM     83  H   UNL A   1      29.837  25.037  25.379  1.00  0.00     0.024 H 
ENDBRANCH  46  80
BRANCH  58  84
ATOM     84  C   UNL A   1      30.653  28.894  24.640  1.00  0.00    -0.057 C 
ATOM     85  H   UNL A   1      30.031  28.125  24.231  1.00  0.00     0.024 H 
ATOM     86  H   UNL A   1      30.561  29.780  24.048  1.00  0.00     0.024 H 
ATOM     87  H   UNL A   1      30.349  29.103  25.644  1.00  0.00     0.024 H 
ENDBRANCH  58  84
BRANCH  58  88
ATOM     88  C   UNL A   1      32.838  29.359  23.619  1.00  0.00    -0.057 C 
ATOM     89  H   UNL A   1      33.877  29.108  23.572  1.00  0.00     0.024 H 
ATOM     90  H   UNL A   1      32.731  30.375  23.934  1.00  0.00     0.024 H 
ATOM     91  H   UNL A   1      32.399  29.237  22.651  1.00  0.00     0.024 H 
ENDBRANCH  58  88
BRANCH  60  92
ATOM     92  O   UNL A   1      32.510  29.916  26.564  1.00  0.00    -0.393 OA
ATOM     93  H   UNL A   1      31.813  30.331  26.033  1.00  0.00     0.210 HD
ENDBRANCH  60  92
ENDBRANCH  14  17
ENDBRANCH  10  13
ENDBRANCH   7  10
ENDBRANCH   4   7
ENDBRANCH   1   4
BRANCH   1  94
ATOM     94  C   UNL A   1      39.577  20.846  26.501  1.00  0.00    -0.036 C 
ATOM     95  H   UNL A   1      38.595  20.666  26.887  1.00  0.00     0.028 H 
ATOM     96  H   UNL A   1      40.381  20.707  27.193  1.00  0.00     0.028 H 
BRANCH  94  97
ATOM     97  C   UNL A   1      39.831  19.817  25.413  1.00  0.00     0.018 C 
ATOM     98  H   UNL A   1      40.153  20.332  24.532  1.00  0.00     0.049 H 
ATOM     99  H   UNL A   1      38.912  19.287  25.271  1.00  0.00     0.049 H 
BRANCH  97 100
ATOM    100  N   UNL A   1      40.833  18.828  25.752  1.00  0.00    -0.352 N 
ATOM    101  C   UNL A   1      42.117  19.014  26.214  1.00  0.00     0.251 C 
ATOM    102  H   UNL A   1      40.557  17.890  25.635  1.00  0.00     0.163 HD
ATOM    103  O   UNL A   1      42.854  18.052  26.378  1.00  0.00    -0.269 OA
BRANCH 101 104
ATOM    104  C   UNL A   1      42.627  20.383  26.475  1.00  0.00     0.039 A 
ATOM    105  C   UNL A   1      43.092  21.138  25.394  1.00  0.00    -0.049 A 
ATOM    106  C   UNL A   1      42.656  20.925  27.763  1.00  0.00    -0.049 A 
ATOM    107  C   UNL A   1      43.528  22.450  25.596  1.00  0.00    -0.053 A 
ATOM    108  H   UNL A   1      43.112  20.726  24.448  1.00  0.00     0.063 H 
ATOM    109  C   UNL A   1      43.007  22.262  27.949  1.00  0.00    -0.053 A 
ATOM    110  H   UNL A   1      42.418  20.336  28.576  1.00  0.00     0.063 H 
ATOM    111  C   UNL A   1      43.458  23.035  26.870  1.00  0.00    -0.014 A 
ATOM    112  H   UNL A   1      43.905  22.992  24.802  1.00  0.00     0.063 H 
ATOM    113  H   UNL A   1      42.934  22.683  28.888  1.00  0.00     0.063 H 
BRANCH 111 114
ATOM    114  C   UNL A   1      43.873  24.446  27.091  1.00  0.00     0.031 A 
ATOM    115  C   UNL A   1      42.872  25.460  27.577  1.00  0.00     0.074 A 
ATOM    116  C   UNL A   1      45.135  24.826  26.813  1.00  0.00     0.049 A 
ATOM    117  N   UNL A   1      43.026  26.742  27.789  1.00  0.00    -0.248 NA
ATOM    118  C   UNL A   1      41.508  24.971  27.835  1.00  0.00    -0.034 C 
ATOM    119  C   UNL A   1      46.186  23.949  26.293  1.00  0.00    -0.036 A 
ATOM    120  N   UNL A   1      45.750  26.049  26.923  1.00  0.00    -0.354 N 
ATOM    121  C   UNL A   1      41.781  27.212  28.190  1.00  0.00     0.074 A 
ATOM    122  C   UNL A   1      40.869  26.093  28.130  1.00  0.00    -0.034 C 
ATOM    123  H   UNL A   1      41.144  24.007  27.795  1.00  0.00     0.065 H 
ATOM    124  C   UNL A   1      47.321  24.653  26.158  1.00  0.00    -0.036 A 
ATOM    125  H   UNL A   1      46.073  22.948  26.067  1.00  0.00     0.065 H 
ATOM    126  C   UNL A   1      47.070  26.040  26.540  1.00  0.00     0.049 A 
ATOM    127  H   UNL A   1      45.289  26.856  27.247  1.00  0.00     0.167 HD
ATOM    128  C   UNL A   1      41.438  28.457  28.597  1.00  0.00     0.037 A 
ATOM    129  H   UNL A   1      39.852  26.159  28.297  1.00  0.00     0.065 H 
ATOM    130  H   UNL A   1      48.226  24.275  25.836  1.00  0.00     0.065 H 
ATOM    131  C   UNL A   1      47.972  27.038  26.495  1.00  0.00     0.037 A 
ATOM    132  C   UNL A   1      42.355  29.564  28.674  1.00  0.00     0.049 A 
ATOM    133  C   UNL A   1      47.560  28.418  26.936  1.00  0.00     0.074 A 
ATOM    134  C   UNL A   1      42.122  30.850  29.126  1.00  0.00    -0.036 A 
ATOM    135  N   UNL A   1      43.687  29.513  28.283  1.00  0.00    -0.354 N 
ATOM    136  N   UNL A   1      46.399  28.833  27.381  1.00  0.00    -0.248 NA
ATOM    137  C   UNL A   1      48.587  29.467  26.875  1.00  0.00    -0.034 C 
ATOM    138  C   UNL A   1      43.293  31.594  28.954  1.00  0.00    -0.036 A 
ATOM    139  H   UNL A   1      41.235  31.199  29.523  1.00  0.00     0.065 H 
ATOM    140  C   UNL A   1      44.277  30.755  28.457  1.00  0.00     0.049 A 
ATOM    141  H   UNL A   1      44.143  28.714  27.934  1.00  0.00     0.167 HD
ATOM    142  C   UNL A   1      46.563  30.177  27.683  1.00  0.00     0.074 A 
ATOM    143  C   UNL A   1      47.942  30.505  27.386  1.00  0.00    -0.034 C 
ATOM    144  H   UNL A   1      49.556  29.410  26.527  1.00  0.00     0.065 H 
ATOM    145  H   UNL A   1      43.405  32.598  29.161  1.00  0.00     0.065 H 
ATOM    146  C   UNL A   1      45.654  31.062  28.164  1.00  0.00     0.037 A 
ATOM    147  H   UNL A   1      48.368  31.431  27.552  1.00  0.00     0.065 H 
BRANCH 128 148
ATOM    148  C   UNL A   1      40.006  28.690  28.991  1.00  0.00     0.064 A 
ATOM    149  C   UNL A   1      39.562  28.507  30.310  1.00  0.00     0.173 A 
ATOM    150  C   UNL A   1      39.070  29.137  28.044  1.00  0.00     0.173 A 
ATOM    151  F   UNL A   1      40.411  28.071  31.253  1.00  0.00    -0.203 F 
ATOM    152  C   UNL A   1      38.232  28.728  30.658  1.00  0.00     0.198 A 
ATOM    153  C   UNL A   1      37.749  29.391  28.404  1.00  0.00     0.198 A 
ATOM    154  F   UNL A   1      39.439  29.336  26.769  1.00  0.00    -0.203 F 
ATOM    155  F   UNL A   1      37.821  28.490  31.912  1.00  0.00    -0.200 F 
ATOM    156  C   UNL A   1      37.328  29.176  29.707  1.00  0.00     0.200 A 
ATOM    157  F   UNL A   1      36.881  29.839  27.486  1.00  0.00    -0.200 F 
ATOM    158  F   UNL A   1      36.050  29.396  30.045  1.00  0.00    -0.200 F 
ENDBRANCH 128 148
BRANCH 131 159
ATOM    159  C   UNL A   1      49.361  26.770  26.032  1.00  0.00     0.064 A 
ATOM    160  C   UNL A   1      49.732  26.988  24.697  1.00  0.00     0.173 A 
ATOM    161  C   UNL A   1      50.342  26.281  26.908  1.00  0.00     0.173 A 
ATOM    162  F   UNL A   1      48.827  27.436  23.816  1.00  0.00    -0.203 F 
ATOM    163  C   UNL A   1      51.022  26.703  24.251  1.00  0.00     0.198 A 
ATOM    164  C   UNL A   1      51.640  26.028  26.468  1.00  0.00     0.198 A 
ATOM    165  F   UNL A   1      50.043  26.059  28.196  1.00  0.00    -0.203 F 
ATOM    166  F   UNL A   1      51.333  26.870  22.959  1.00  0.00    -0.200 F 
ATOM    167  C   UNL A   1      51.976  26.229  25.138  1.00  0.00     0.200 A 
ATOM    168  F   UNL A   1      52.563  25.585  27.333  1.00  0.00    -0.200 F 
ATOM    169  F   UNL A   1      53.217  25.959  24.710  1.00  0.00    -0.200 F 
ENDBRANCH 131 159
BRANCH 146 170
ATOM    170  C   UNL A   1      46.130  32.461  28.437  1.00  0.00     0.064 A 
ATOM    171  C   UNL A   1      46.684  32.827  29.672  1.00  0.00     0.173 A 
ATOM    172  C   UNL A   1      46.065  33.438  27.431  1.00  0.00     0.173 A 
ATOM    173  F   UNL A   1      46.756  31.935  30.671  1.00  0.00    -0.203 F 
ATOM    174  C   UNL A   1      47.128  34.127  29.900  1.00  0.00     0.198 A 
ATOM    175  C   UNL A   1      46.544  34.727  27.650  1.00  0.00     0.198 A 
ATOM    176  F   UNL A   1      45.552  33.140  26.228  1.00  0.00    -0.203 F 
ATOM    177  F   UNL A   1      47.605  34.468  31.105  1.00  0.00    -0.200 F 
ATOM    178  C   UNL A   1      47.066  35.072  28.887  1.00  0.00     0.200 A 
ATOM    179  F   UNL A   1      46.499  35.634  26.665  1.00  0.00    -0.200 F 
ATOM    180  F   UNL A   1      47.505  36.320  29.105  1.00  0.00    -0.200 F 
ENDBRANCH 146 170
ENDBRANCH 111 114
ENDBRANCH 101 104
ENDBRANCH  97 100
ENDBRANCH  94  97
ENDBRANCH   1  94
TORSDOF 21
ENDMDL
MODEL 10
REMARK VINA RESULT:     -11.4      2.762      8.744
REMARK SMILES C[C@H]1[C@H](C)CC[C@@]2(C(=O)NCCCCCCNC(=O)c3ccc(-c4c5nc(c(-c6c(F)c(F)c(F)c(F)c6F)c6ccc([nH]6)c(-c6c(F)c(F)c(F)c(F)c6F)c6nc(c(-c7c(F)c(F)c(F)c(F)c7F)c7ccc4[nH]7)C=C6)C=C5)cc3)CC[C@@]3(C)C(=CC[C@@H]4[C@@]5(C)CC[C@H](O)C(C)(C)[C@@H]5CC[C@]43C)[C@H]12
REMARK SMILES IDX 14 1 13 4 12 7 11 10 10 13 8 14 9 15 7 17 2 18 3 19 105 20
REMARK SMILES IDX 5 22 87 24 6 26 83 29 85 30 88 31 84 34 103 37 89 38 90 42
REMARK SMILES IDX 102 43 91 46 101 48 93 51 100 52 94 55 97 58 95 60 1 64 4 68
REMARK SMILES IDX 86 72 104 76 92 80 98 84 99 88 96 92 15 94 16 97 17 100
REMARK SMILES IDX 18 101 19 103 20 104 21 105 82 106 22 107 81 109 23 111
REMARK SMILES IDX 24 114 25 115 75 116 26 117 80 118 74 119 76 120 27 121
REMARK SMILES IDX 79 122 73 124 72 126 28 128 60 131 40 132 59 133 41 134
REMARK SMILES IDX 44 135 58 136 77 137 42 138 43 140 57 142 78 143 45 146
REMARK SMILES IDX 29 148 30 149 38 150 31 151 32 152 36 153 39 154 33 155
REMARK SMILES IDX 34 156 37 157 35 158 61 159 62 160 70 161 63 162 64 163
REMARK SMILES IDX 68 164 71 165 65 166 66 167 69 168 67 169 46 170 47 171
REMARK SMILES IDX 55 172 48 173 49 174 53 175 56 176 50 177 51 178 54 179
REMARK SMILES IDX 52 180
REMARK H PARENT 14 2 14 3 13 5 13 6 12 8 12 9 11 11 11 12 10 16 2 21 3 23
REMARK H PARENT 105 25 5 27 5 28 6 32 6 33 83 35 83 36 88 39 84 40 84 41 89 44
REMARK H PARENT 89 45 90 47 102 49 102 50 101 53 101 54 93 56 93 57 100 59
REMARK H PARENT 94 61 94 62 95 63 1 65 1 66 1 67 4 69 4 70 4 71 86 73 86 74
REMARK H PARENT 86 75 104 77 104 78 104 79 92 81 92 82 92 83 98 85 98 86 98 87
REMARK H PARENT 99 89 99 90 99 91 96 93 15 95 15 96 16 98 16 99 17 102 21 108
REMARK H PARENT 82 110 22 112 81 113 80 123 74 125 76 127 79 129 73 130 41 139
REMARK H PARENT 44 141 77 144 42 145 78 147
REMARK Flexibility Score: inf
ROOT
ATOM      1  C   UNL A   1      35.481  31.784  28.539  1.00  0.00    -0.052 C 
ATOM      2  H   UNL A   1      35.869  32.528  27.877  1.00  0.00     0.027 H 
ATOM      3  H   UNL A   1      36.205  31.168  29.032  1.00  0.00     0.027 H 
ENDROOT
BRANCH   1   4
ATOM      4  C   UNL A   1      34.668  30.801  27.690  1.00  0.00    -0.052 C 
ATOM      5  H   UNL A   1      33.669  30.814  28.072  1.00  0.00     0.027 H 
ATOM      6  H   UNL A   1      34.814  31.156  26.691  1.00  0.00     0.027 H 
BRANCH   4   7
ATOM      7  C   UNL A   1      35.096  29.327  27.609  1.00  0.00    -0.036 C 
ATOM      8  H   UNL A   1      36.142  29.315  27.380  1.00  0.00     0.028 H 
ATOM      9  H   UNL A   1      34.814  28.923  28.558  1.00  0.00     0.028 H 
BRANCH   7  10
ATOM     10  C   UNL A   1      34.403  28.412  26.594  1.00  0.00     0.017 C 
ATOM     11  H   UNL A   1      35.068  27.606  26.366  1.00  0.00     0.049 H 
ATOM     12  H   UNL A   1      33.491  28.094  27.054  1.00  0.00     0.049 H 
BRANCH  10  13
ATOM     13  N   UNL A   1      34.027  29.053  25.346  1.00  0.00    -0.356 N 
ATOM     14  C   UNL A   1      32.847  29.029  24.646  1.00  0.00     0.226 C 
ATOM     15  O   UNL A   1      32.994  28.954  23.419  1.00  0.00    -0.274 OA
ATOM     16  H   UNL A   1      34.738  29.595  24.934  1.00  0.00     0.163 HD
BRANCH  14  17
ATOM     17  C   UNL A   1      31.407  29.168  25.277  1.00  0.00     0.056 C 
ATOM     18  C   UNL A   1      29.932  29.689  23.214  1.00  0.00    -0.034 C 
ATOM     19  C   UNL A   1      29.506  31.043  23.876  1.00  0.00    -0.041 C 
ATOM     20  C   UNL A   1      30.290  28.653  24.319  1.00  0.00    -0.002 C 
ATOM     21  H   UNL A   1      30.801  29.863  22.615  1.00  0.00     0.031 H 
ATOM     22  C   UNL A   1      30.474  31.585  24.944  1.00  0.00    -0.049 C 
ATOM     23  H   UNL A   1      28.579  30.746  24.321  1.00  0.00     0.030 H 
ATOM     24  C   UNL A   1      30.712  27.207  23.967  1.00  0.00    -0.063 C 
ATOM     25  H   UNL A   1      29.308  28.573  24.737  1.00  0.00     0.036 H 
ATOM     26  C   UNL A   1      31.174  30.582  25.830  1.00  0.00    -0.038 C 
ATOM     27  H   UNL A   1      29.916  32.239  25.580  1.00  0.00     0.027 H 
ATOM     28  H   UNL A   1      31.262  32.047  24.386  1.00  0.00     0.027 H 
ATOM     29  C   UNL A   1      31.307  28.258  26.563  1.00  0.00    -0.037 C 
ATOM     30  C   UNL A   1      30.571  26.167  25.121  1.00  0.00    -0.006 C 
ATOM     31  C   UNL A   1      31.440  26.943  22.862  1.00  0.00    -0.084 C 
ATOM     32  H   UNL A   1      30.588  30.483  26.720  1.00  0.00     0.028 H 
ATOM     33  H   UNL A   1      32.158  30.982  25.961  1.00  0.00     0.028 H 
ATOM     34  C   UNL A   1      31.315  26.739  26.374  1.00  0.00    -0.043 C 
ATOM     35  H   UNL A   1      30.395  28.510  27.062  1.00  0.00     0.028 H 
ATOM     36  H   UNL A   1      32.207  28.463  27.105  1.00  0.00     0.028 H 
ATOM     37  C   UNL A   1      31.201  24.718  24.716  1.00  0.00    -0.020 C 
ATOM     38  C   UNL A   1      32.367  25.758  22.729  1.00  0.00    -0.031 C 
ATOM     39  H   UNL A   1      31.360  27.588  22.060  1.00  0.00     0.058 H 
ATOM     40  H   UNL A   1      30.865  26.304  27.242  1.00  0.00     0.028 H 
ATOM     41  H   UNL A   1      32.344  26.487  26.220  1.00  0.00     0.028 H 
ATOM     42  C   UNL A   1      32.605  25.040  24.086  1.00  0.00    -0.026 C 
ATOM     43  C   UNL A   1      31.322  23.765  25.935  1.00  0.00    -0.046 C 
ATOM     44  H   UNL A   1      33.308  26.099  22.352  1.00  0.00     0.031 H 
ATOM     45  H   UNL A   1      31.908  25.058  22.064  1.00  0.00     0.031 H 
ATOM     46  C   UNL A   1      33.744  23.936  24.116  1.00  0.00    -0.025 C 
ATOM     47  H   UNL A   1      33.098  25.699  24.771  1.00  0.00     0.032 H 
ATOM     48  C   UNL A   1      32.235  22.564  25.682  1.00  0.00    -0.049 C 
ATOM     49  H   UNL A   1      31.712  24.320  26.763  1.00  0.00     0.027 H 
ATOM     50  H   UNL A   1      30.342  23.380  26.132  1.00  0.00     0.027 H 
ATOM     51  C   UNL A   1      35.123  24.670  24.221  1.00  0.00    -0.045 C 
ATOM     52  C   UNL A   1      33.661  23.064  25.426  1.00  0.00    -0.028 C 
ATOM     53  H   UNL A   1      32.230  21.923  26.539  1.00  0.00     0.027 H 
ATOM     54  H   UNL A   1      31.886  22.019  24.830  1.00  0.00     0.027 H 
ATOM     55  C   UNL A   1      36.320  23.731  24.378  1.00  0.00    -0.026 C 
ATOM     56  H   UNL A   1      35.094  25.321  25.069  1.00  0.00     0.027 H 
ATOM     57  H   UNL A   1      35.264  25.196  23.299  1.00  0.00     0.027 H 
ATOM     58  C   UNL A   1      34.798  21.984  25.602  1.00  0.00    -0.006 C 
ATOM     59  H   UNL A   1      33.890  23.729  26.231  1.00  0.00     0.031 H 
ATOM     60  C   UNL A   1      36.173  22.719  25.518  1.00  0.00     0.059 C 
ATOM     61  H   UNL A   1      37.190  24.324  24.565  1.00  0.00     0.029 H 
ATOM     62  H   UNL A   1      36.391  23.167  23.471  1.00  0.00     0.029 H 
ATOM     63  H   UNL A   1      36.207  23.285  26.426  1.00  0.00     0.061 H 
BRANCH  18  64
ATOM     64  C   UNL A   1      28.848  29.154  22.265  1.00  0.00    -0.062 C 
ATOM     65  H   UNL A   1      28.323  29.975  21.824  1.00  0.00     0.023 H 
ATOM     66  H   UNL A   1      28.160  28.545  22.814  1.00  0.00     0.023 H 
ATOM     67  H   UNL A   1      29.306  28.568  21.494  1.00  0.00     0.023 H 
ENDBRANCH  18  64
BRANCH  19  68
ATOM     68  C   UNL A   1      29.298  32.210  22.896  1.00  0.00    -0.062 C 
ATOM     69  H   UNL A   1      29.645  33.118  23.344  1.00  0.00     0.023 H 
ATOM     70  H   UNL A   1      28.257  32.301  22.665  1.00  0.00     0.023 H 
ATOM     71  H   UNL A   1      29.848  32.023  21.998  1.00  0.00     0.023 H 
ENDBRANCH  19  68
BRANCH  30  72
ATOM     72  C   UNL A   1      29.072  26.000  25.487  1.00  0.00    -0.055 C 
ATOM     73  H   UNL A   1      28.978  25.305  26.295  1.00  0.00     0.024 H 
ATOM     74  H   UNL A   1      28.535  25.635  24.637  1.00  0.00     0.024 H 
ATOM     75  H   UNL A   1      28.671  26.947  25.783  1.00  0.00     0.024 H 
ENDBRANCH  30  72
BRANCH  37  76
ATOM     76  C   UNL A   1      30.278  23.973  23.701  1.00  0.00    -0.059 C 
ATOM     77  H   UNL A   1      29.257  24.073  24.007  1.00  0.00     0.024 H 
ATOM     78  H   UNL A   1      30.542  22.936  23.675  1.00  0.00     0.024 H 
ATOM     79  H   UNL A   1      30.403  24.398  22.728  1.00  0.00     0.024 H 
ENDBRANCH  37  76
BRANCH  46  80
ATOM     80  C   UNL A   1      33.717  23.132  22.804  1.00  0.00    -0.059 C 
ATOM     81  H   UNL A   1      33.743  22.086  23.027  1.00  0.00     0.024 H 
ATOM     82  H   UNL A   1      34.567  23.393  22.208  1.00  0.00     0.024 H 
ATOM     83  H   UNL A   1      32.820  23.359  22.265  1.00  0.00     0.024 H 
ENDBRANCH  46  80
BRANCH  58  84
ATOM     84  C   UNL A   1      34.701  20.792  24.626  1.00  0.00    -0.057 C 
ATOM     85  H   UNL A   1      35.684  20.504  24.318  1.00  0.00     0.024 H 
ATOM     86  H   UNL A   1      34.128  21.078  23.768  1.00  0.00     0.024 H 
ATOM     87  H   UNL A   1      34.224  19.969  25.115  1.00  0.00     0.024 H 
ENDBRANCH  58  84
BRANCH  58  88
ATOM     88  C   UNL A   1      34.719  21.344  27.019  1.00  0.00    -0.057 C 
ATOM     89  H   UNL A   1      34.070  21.927  27.639  1.00  0.00     0.024 H 
ATOM     90  H   UNL A   1      35.697  21.317  27.453  1.00  0.00     0.024 H 
ATOM     91  H   UNL A   1      34.336  20.348  26.940  1.00  0.00     0.024 H 
ENDBRANCH  58  88
BRANCH  60  92
ATOM     92  O   UNL A   1      37.255  21.788  25.449  1.00  0.00    -0.393 OA
ATOM     93  H   UNL A   1      38.093  22.272  25.388  1.00  0.00     0.210 HD
ENDBRANCH  60  92
ENDBRANCH  14  17
ENDBRANCH  10  13
ENDBRANCH   7  10
ENDBRANCH   4   7
ENDBRANCH   1   4
BRANCH   1  94
ATOM     94  C   UNL A   1      34.778  32.516  29.678  1.00  0.00    -0.036 C 
ATOM     95  H   UNL A   1      33.728  32.336  29.570  1.00  0.00     0.028 H 
ATOM     96  H   UNL A   1      35.088  33.535  29.571  1.00  0.00     0.028 H 
BRANCH  94  97
ATOM     97  C   UNL A   1      35.155  32.152  31.104  1.00  0.00     0.018 C 
ATOM     98  H   UNL A   1      36.018  31.519  31.071  1.00  0.00     0.049 H 
ATOM     99  H   UNL A   1      34.303  31.668  31.533  1.00  0.00     0.049 H 
BRANCH  97 100
ATOM    100  N   UNL A   1      35.458  33.288  31.948  1.00  0.00    -0.352 N 
ATOM    101  C   UNL A   1      36.679  33.848  32.248  1.00  0.00     0.251 C 
ATOM    102  H   UNL A   1      34.679  33.722  32.367  1.00  0.00     0.163 HD
ATOM    103  O   UNL A   1      36.750  34.770  33.048  1.00  0.00    -0.269 OA
BRANCH 101 104
ATOM    104  C   UNL A   1      37.920  33.309  31.637  1.00  0.00     0.039 A 
ATOM    105  C   UNL A   1      38.744  32.489  32.413  1.00  0.00    -0.049 A 
ATOM    106  C   UNL A   1      38.279  33.604  30.318  1.00  0.00    -0.049 A 
ATOM    107  C   UNL A   1      39.890  31.920  31.852  1.00  0.00    -0.053 A 
ATOM    108  H   UNL A   1      38.504  32.304  33.400  1.00  0.00     0.063 H 
ATOM    109  C   UNL A   1      39.373  32.966  29.735  1.00  0.00    -0.053 A 
ATOM    110  H   UNL A   1      37.735  34.294  29.778  1.00  0.00     0.063 H 
ATOM    111  C   UNL A   1      40.198  32.127  30.498  1.00  0.00    -0.014 A 
ATOM    112  H   UNL A   1      40.516  31.345  32.438  1.00  0.00     0.063 H 
ATOM    113  H   UNL A   1      39.576  33.113  28.734  1.00  0.00     0.063 H 
BRANCH 111 114
ATOM    114  C   UNL A   1      41.387  31.489  29.874  1.00  0.00     0.031 A 
ATOM    115  C   UNL A   1      42.646  32.286  29.660  1.00  0.00     0.074 A 
ATOM    116  C   UNL A   1      41.322  30.209  29.459  1.00  0.00     0.049 A 
ATOM    117  N   UNL A   1      43.771  31.925  29.096  1.00  0.00    -0.248 NA
ATOM    118  C   UNL A   1      42.630  33.684  30.119  1.00  0.00    -0.034 C 
ATOM    119  C   UNL A   1      40.144  29.345  29.567  1.00  0.00    -0.036 A 
ATOM    120  N   UNL A   1      42.263  29.410  28.857  1.00  0.00    -0.354 N 
ATOM    121  C   UNL A   1      44.585  33.051  29.121  1.00  0.00     0.074 A 
ATOM    122  C   UNL A   1      43.805  34.123  29.696  1.00  0.00    -0.034 C 
ATOM    123  H   UNL A   1      41.893  34.190  30.635  1.00  0.00     0.065 H 
ATOM    124  C   UNL A   1      40.443  28.131  29.078  1.00  0.00    -0.036 A 
ATOM    125  H   UNL A   1      39.231  29.624  29.958  1.00  0.00     0.065 H 
ATOM    126  C   UNL A   1      41.816  28.141  28.582  1.00  0.00     0.049 A 
ATOM    127  H   UNL A   1      43.174  29.719  28.644  1.00  0.00     0.167 HD
ATOM    128  C   UNL A   1      45.875  33.171  28.725  1.00  0.00     0.037 A 
ATOM    129  H   UNL A   1      44.123  35.102  29.769  1.00  0.00     0.065 H 
ATOM    130  H   UNL A   1      39.803  27.321  29.055  1.00  0.00     0.065 H 
ATOM    131  C   UNL A   1      42.440  27.105  27.991  1.00  0.00     0.037 A 
ATOM    132  C   UNL A   1      46.653  32.094  28.171  1.00  0.00     0.049 A 
ATOM    133  C   UNL A   1      43.869  27.269  27.544  1.00  0.00     0.074 A 
ATOM    134  C   UNL A   1      47.983  32.096  27.792  1.00  0.00    -0.036 A 
ATOM    135  N   UNL A   1      46.166  30.819  27.915  1.00  0.00    -0.354 N 
ATOM    136  N   UNL A   1      44.650  28.317  27.638  1.00  0.00    -0.248 NA
ATOM    137  C   UNL A   1      44.505  26.104  26.913  1.00  0.00    -0.034 C 
ATOM    138  C   UNL A   1      48.286  30.843  27.250  1.00  0.00    -0.036 A 
ATOM    139  H   UNL A   1      48.639  32.888  27.891  1.00  0.00     0.065 H 
ATOM    140  C   UNL A   1      47.164  30.037  27.354  1.00  0.00     0.049 A 
ATOM    141  H   UNL A   1      45.249  30.517  28.103  1.00  0.00     0.167 HD
ATOM    142  C   UNL A   1      45.875  27.931  27.112  1.00  0.00     0.074 A 
ATOM    143  C   UNL A   1      45.738  26.545  26.714  1.00  0.00    -0.034 C 
ATOM    144  H   UNL A   1      44.097  25.184  26.685  1.00  0.00     0.065 H 
ATOM    145  H   UNL A   1      49.192  30.566  26.842  1.00  0.00     0.065 H 
ATOM    146  C   UNL A   1      47.012  28.656  26.971  1.00  0.00     0.037 A 
ATOM    147  H   UNL A   1      46.504  25.973  26.325  1.00  0.00     0.065 H 
BRANCH 128 148
ATOM    148  C   UNL A   1      46.527  34.517  28.877  1.00  0.00     0.064 A 
ATOM    149  C   UNL A   1      47.220  34.876  30.043  1.00  0.00     0.173 A 
ATOM    150  C   UNL A   1      46.488  35.449  27.827  1.00  0.00     0.173 A 
ATOM    151  F   UNL A   1      47.279  34.028  31.081  1.00  0.00    -0.203 F 
ATOM    152  C   UNL A   1      47.818  36.128  30.167  1.00  0.00     0.198 A 
ATOM    153  C   UNL A   1      47.118  36.686  27.941  1.00  0.00     0.198 A 
ATOM    154  F   UNL A   1      45.845  35.158  26.686  1.00  0.00    -0.203 F 
ATOM    155  F   UNL A   1      48.425  36.468  31.313  1.00  0.00    -0.200 F 
ATOM    156  C   UNL A   1      47.773  37.028  29.114  1.00  0.00     0.200 A 
ATOM    157  F   UNL A   1      47.086  37.549  26.916  1.00  0.00    -0.200 F 
ATOM    158  F   UNL A   1      48.357  38.229  29.232  1.00  0.00    -0.200 F 
ENDBRANCH 128 148
BRANCH 131 159
ATOM    159  C   UNL A   1      41.727  25.812  27.802  1.00  0.00     0.064 A 
ATOM    160  C   UNL A   1      42.052  24.689  28.577  1.00  0.00     0.173 A 
ATOM    161  C   UNL A   1      40.717  25.668  26.840  1.00  0.00     0.173 A 
ATOM    162  F   UNL A   1      43.024  24.768  29.497  1.00  0.00    -0.203 F 
ATOM    163  C   UNL A   1      41.412  23.466  28.379  1.00  0.00     0.198 A 
ATOM    164  C   UNL A   1      40.054  24.454  26.666  1.00  0.00     0.198 A 
ATOM    165  F   UNL A   1      40.363  26.711  26.076  1.00  0.00    -0.203 F 
ATOM    166  F   UNL A   1      41.780  22.396  29.097  1.00  0.00    -0.200 F 
ATOM    167  C   UNL A   1      40.410  23.351  27.428  1.00  0.00     0.200 A 
ATOM    168  F   UNL A   1      39.076  24.352  25.757  1.00  0.00    -0.200 F 
ATOM    169  F   UNL A   1      39.792  22.177  27.241  1.00  0.00    -0.200 F 
ENDBRANCH 131 159
BRANCH 146 170
ATOM    170  C   UNL A   1      48.211  27.957  26.397  1.00  0.00     0.064 A 
ATOM    171  C   UNL A   1      49.236  27.454  27.212  1.00  0.00     0.173 A 
ATOM    172  C   UNL A   1      48.315  27.752  25.012  1.00  0.00     0.173 A 
ATOM    173  F   UNL A   1      49.192  27.636  28.541  1.00  0.00    -0.203 F 
ATOM    174  C   UNL A   1      50.334  26.799  26.660  1.00  0.00     0.198 A 
ATOM    175  C   UNL A   1      49.395  27.064  24.467  1.00  0.00     0.198 A 
ATOM    176  F   UNL A   1      47.358  28.204  24.187  1.00  0.00    -0.203 F 
ATOM    177  F   UNL A   1      51.327  26.375  27.454  1.00  0.00    -0.200 F 
ATOM    178  C   UNL A   1      50.408  26.597  25.290  1.00  0.00     0.200 A 
ATOM    179  F   UNL A   1      49.457  26.854  23.145  1.00  0.00    -0.200 F 
ATOM    180  F   UNL A   1      51.460  25.956  24.762  1.00  0.00    -0.200 F 
ENDBRANCH 146 170
ENDBRANCH 111 114
ENDBRANCH 101 104
ENDBRANCH  97 100
ENDBRANCH  94  97
ENDBRANCH   1  94
TORSDOF 21
ENDMDL
