MODEL 1
REMARK VINA RESULT:     -11.0      0.000      0.000
REMARK SMILES CCSc1cccc(-c2ccc([C@@H](C)C(=O)NCCCCCCNC(=O)c3ccc(-c4c5nc(c(-c6c(F)c(F)c(F)c(F)c6F)c6ccc([nH]6)c(-c6c(F)c(F)c(F)c(F)c6F)c6nc(c(-c7c(F)c(F)c(F)c(F)c7F)c7ccc4[nH]7)C=C6)C=C5)cc3)cc2)c1
REMARK SMILES IDX 19 1 18 4 17 7 15 8 16 9 13 11 12 13 9 14 10 15 91 16 11 17
REMARK SMILES IDX 90 19 8 23 4 24 5 25 92 26 6 27 7 30 3 33 2 34 1 37 14 41
REMARK SMILES IDX 20 45 21 48 22 51 23 54 24 57 25 58 26 60 27 61 28 62 89 63
REMARK SMILES IDX 29 64 88 66 30 68 31 71 32 72 82 73 33 74 87 75 81 76 83 77
REMARK SMILES IDX 34 78 86 79 80 81 79 83 35 85 67 88 47 89 66 90 48 91 51 92
REMARK SMILES IDX 65 93 84 94 49 95 50 97 64 99 85 100 52 103 36 105 37 106
REMARK SMILES IDX 45 107 38 108 39 109 43 110 46 111 40 112 41 113 44 114
REMARK SMILES IDX 42 115 68 116 69 117 77 118 70 119 71 120 75 121 78 122
REMARK SMILES IDX 72 123 73 124 76 125 74 126 53 127 54 128 62 129 55 130
REMARK SMILES IDX 56 131 60 132 63 133 57 134 58 135 61 136 59 137
REMARK H PARENT 19 2 19 3 18 5 18 6 17 10 13 12 10 18 91 20 11 21 90 22 5 28
REMARK H PARENT 92 29 6 31 7 32 2 35 2 36 1 38 1 39 1 40 14 42 14 43 14 44
REMARK H PARENT 20 46 20 47 21 49 21 50 22 52 22 53 23 55 23 56 24 59 28 65
REMARK H PARENT 89 67 29 69 88 70 87 80 81 82 83 84 86 86 80 87 48 96 51 98
REMARK H PARENT 84 101 49 102 85 104
REMARK Flexibility Score: inf
ROOT
ATOM      1  C   UNL A   1      29.857  26.016  25.226  1.00  0.00    -0.036 C 
ATOM      2  H   UNL A   1      29.215  25.380  25.799  1.00  0.00     0.028 H 
ATOM      3  H   UNL A   1      29.388  26.940  24.959  1.00  0.00     0.028 H 
ENDROOT
BRANCH   1   4
ATOM      4  C   UNL A   1      30.202  25.299  23.919  1.00  0.00     0.017 C 
ATOM      5  H   UNL A   1      29.324  25.250  23.310  1.00  0.00     0.049 H 
ATOM      6  H   UNL A   1      30.978  25.852  23.432  1.00  0.00     0.049 H 
BRANCH   4   7
ATOM      7  N   UNL A   1      30.687  23.957  24.155  1.00  0.00    -0.356 N 
ATOM      8  C   UNL A   1      31.842  23.339  23.787  1.00  0.00     0.227 C 
ATOM      9  O   UNL A   1      31.933  22.136  24.060  1.00  0.00    -0.274 OA
ATOM     10  H   UNL A   1      30.072  23.389  24.673  1.00  0.00     0.163 HD
BRANCH   8  11
ATOM     11  C   UNL A   1      33.005  24.054  23.085  1.00  0.00     0.060 C 
ATOM     12  H   UNL A   1      32.820  25.101  23.209  1.00  0.00     0.045 H 
BRANCH  11  13
ATOM     13  C   UNL A   1      34.347  23.861  23.776  1.00  0.00    -0.036 A 
ATOM     14  C   UNL A   1      36.790  23.434  25.211  1.00  0.00    -0.018 A 
ATOM     15  C   UNL A   1      36.615  22.981  23.894  1.00  0.00    -0.054 A 
ATOM     16  C   UNL A   1      35.716  24.137  25.781  1.00  0.00    -0.054 A 
ATOM     17  C   UNL A   1      35.432  23.216  23.181  1.00  0.00    -0.058 A 
ATOM     18  H   UNL A   1      37.381  22.459  23.438  1.00  0.00     0.063 H 
ATOM     19  C   UNL A   1      34.512  24.328  25.088  1.00  0.00    -0.058 A 
ATOM     20  H   UNL A   1      35.814  24.522  26.732  1.00  0.00     0.063 H 
ATOM     21  H   UNL A   1      35.363  22.907  22.199  1.00  0.00     0.063 H 
ATOM     22  H   UNL A   1      33.733  24.822  25.551  1.00  0.00     0.063 H 
BRANCH  14  23
ATOM     23  C   UNL A   1      38.044  23.174  25.960  1.00  0.00    -0.017 A 
ATOM     24  C   UNL A   1      39.902  21.686  26.566  1.00  0.00     0.008 A 
ATOM     25  C   UNL A   1      40.454  22.683  27.368  1.00  0.00    -0.049 A 
ATOM     26  C   UNL A   1      38.711  21.936  25.869  1.00  0.00    -0.041 A 
ATOM     27  C   UNL A   1      39.819  23.917  27.475  1.00  0.00    -0.061 A 
ATOM     28  H   UNL A   1      41.332  22.507  27.882  1.00  0.00     0.063 H 
ATOM     29  H   UNL A   1      38.313  21.194  25.275  1.00  0.00     0.064 H 
ATOM     30  C   UNL A   1      38.626  24.153  26.786  1.00  0.00    -0.054 A 
ATOM     31  H   UNL A   1      40.229  24.659  28.064  1.00  0.00     0.062 H 
ATOM     32  H   UNL A   1      38.160  25.068  26.885  1.00  0.00     0.063 H 
BRANCH  24  33
ATOM     33  S   UNL A   1      40.656  20.073  26.461  1.00  0.00    -0.126 SA
BRANCH  33  34
ATOM     34  C   UNL A   1      42.418  20.536  26.400  1.00  0.00    -0.005 C 
ATOM     35  H   UNL A   1      42.506  21.508  25.961  1.00  0.00     0.038 H 
ATOM     36  H   UNL A   1      42.798  20.531  27.400  1.00  0.00     0.038 H 
BRANCH  34  37
ATOM     37  C   UNL A   1      43.230  19.549  25.579  1.00  0.00    -0.056 C 
ATOM     38  H   UNL A   1      42.782  19.434  24.615  1.00  0.00     0.024 H 
ATOM     39  H   UNL A   1      43.251  18.602  26.077  1.00  0.00     0.024 H 
ATOM     40  H   UNL A   1      44.229  19.916  25.468  1.00  0.00     0.024 H 
ENDBRANCH  34  37
ENDBRANCH  33  34
ENDBRANCH  24  33
ENDBRANCH  14  23
ENDBRANCH  11  13
BRANCH  11  41
ATOM     41  C   UNL A   1      33.005  23.900  21.563  1.00  0.00    -0.049 C 
ATOM     42  H   UNL A   1      33.670  23.111  21.284  1.00  0.00     0.024 H 
ATOM     43  H   UNL A   1      33.328  24.816  21.112  1.00  0.00     0.024 H 
ATOM     44  H   UNL A   1      32.015  23.668  21.229  1.00  0.00     0.024 H 
ENDBRANCH  11  41
ENDBRANCH   8  11
ENDBRANCH   4   7
ENDBRANCH   1   4
BRANCH   1  45
ATOM     45  C   UNL A   1      31.077  26.369  26.083  1.00  0.00    -0.052 C 
ATOM     46  H   UNL A   1      31.789  25.575  25.989  1.00  0.00     0.027 H 
ATOM     47  H   UNL A   1      30.711  26.499  27.080  1.00  0.00     0.027 H 
BRANCH  45  48
ATOM     48  C   UNL A   1      31.780  27.682  25.713  1.00  0.00    -0.052 C 
ATOM     49  H   UNL A   1      31.544  28.404  26.466  1.00  0.00     0.027 H 
ATOM     50  H   UNL A   1      31.423  27.940  24.738  1.00  0.00     0.027 H 
BRANCH  48  51
ATOM     51  C   UNL A   1      33.306  27.606  25.594  1.00  0.00    -0.036 C 
ATOM     52  H   UNL A   1      33.545  26.899  24.828  1.00  0.00     0.028 H 
ATOM     53  H   UNL A   1      33.668  27.322  26.561  1.00  0.00     0.028 H 
BRANCH  51  54
ATOM     54  C   UNL A   1      33.991  28.927  25.252  1.00  0.00     0.018 C 
ATOM     55  H   UNL A   1      34.026  29.033  24.188  1.00  0.00     0.049 H 
ATOM     56  H   UNL A   1      34.976  28.906  25.671  1.00  0.00     0.049 H 
BRANCH  54  57
ATOM     57  N   UNL A   1      33.287  30.067  25.814  1.00  0.00    -0.352 N 
ATOM     58  C   UNL A   1      33.551  30.797  26.947  1.00  0.00     0.251 C 
ATOM     59  H   UNL A   1      32.497  30.362  25.305  1.00  0.00     0.163 HD
ATOM     60  O   UNL A   1      32.717  31.587  27.377  1.00  0.00    -0.269 OA
BRANCH  58  61
ATOM     61  C   UNL A   1      34.836  30.631  27.662  1.00  0.00     0.039 A 
ATOM     62  C   UNL A   1      35.727  31.708  27.704  1.00  0.00    -0.049 A 
ATOM     63  C   UNL A   1      35.184  29.412  28.248  1.00  0.00    -0.049 A 
ATOM     64  C   UNL A   1      36.942  31.579  28.380  1.00  0.00    -0.053 A 
ATOM     65  H   UNL A   1      35.488  32.596  27.235  1.00  0.00     0.063 H 
ATOM     66  C   UNL A   1      36.367  29.302  28.975  1.00  0.00    -0.053 A 
ATOM     67  H   UNL A   1      34.565  28.593  28.143  1.00  0.00     0.063 H 
ATOM     68  C   UNL A   1      37.259  30.383  29.046  1.00  0.00    -0.014 A 
ATOM     69  H   UNL A   1      37.610  32.365  28.392  1.00  0.00     0.063 H 
ATOM     70  H   UNL A   1      36.590  28.421  29.463  1.00  0.00     0.063 H 
BRANCH  68  71
ATOM     71  C   UNL A   1      38.516  30.251  29.825  1.00  0.00     0.031 A 
ATOM     72  C   UNL A   1      39.677  29.477  29.269  1.00  0.00     0.074 A 
ATOM     73  C   UNL A   1      38.586  30.776  31.064  1.00  0.00     0.049 A 
ATOM     74  N   UNL A   1      40.828  29.195  29.827  1.00  0.00    -0.248 NA
ATOM     75  C   UNL A   1      39.514  28.920  27.917  1.00  0.00    -0.034 C 
ATOM     76  C   UNL A   1      37.507  31.505  31.733  1.00  0.00    -0.036 A 
ATOM     77  N   UNL A   1      39.601  30.763  31.987  1.00  0.00    -0.354 N 
ATOM     78  C   UNL A   1      41.517  28.419  28.904  1.00  0.00     0.074 A 
ATOM     79  C   UNL A   1      40.640  28.235  27.768  1.00  0.00    -0.034 C 
ATOM     80  H   UNL A   1      38.729  29.033  27.257  1.00  0.00     0.065 H 
ATOM     81  C   UNL A   1      37.924  31.883  32.952  1.00  0.00    -0.036 A 
ATOM     82  H   UNL A   1      36.577  31.699  31.332  1.00  0.00     0.065 H 
ATOM     83  C   UNL A   1      39.283  31.394  33.164  1.00  0.00     0.049 A 
ATOM     84  H   UNL A   1      40.475  30.341  31.821  1.00  0.00     0.167 HD
ATOM     85  C   UNL A   1      42.774  27.923  28.990  1.00  0.00     0.037 A 
ATOM     86  H   UNL A   1      40.861  27.647  26.950  1.00  0.00     0.065 H 
ATOM     87  H   UNL A   1      37.371  32.430  33.631  1.00  0.00     0.065 H 
ATOM     88  C   UNL A   1      40.005  31.557  34.290  1.00  0.00     0.037 A 
ATOM     89  C   UNL A   1      43.656  28.135  30.108  1.00  0.00     0.049 A 
ATOM     90  C   UNL A   1      41.403  31.007  34.351  1.00  0.00     0.074 A 
ATOM     91  C   UNL A   1      44.973  27.735  30.256  1.00  0.00    -0.036 A 
ATOM     92  N   UNL A   1      43.309  28.806  31.270  1.00  0.00    -0.354 N 
ATOM     93  N   UNL A   1      42.070  30.337  33.443  1.00  0.00    -0.248 NA
ATOM     94  C   UNL A   1      42.153  31.244  35.594  1.00  0.00    -0.034 C 
ATOM     95  C   UNL A   1      45.410  28.127  31.526  1.00  0.00    -0.036 A 
ATOM     96  H   UNL A   1      45.536  27.234  29.551  1.00  0.00     0.065 H 
ATOM     97  C   UNL A   1      44.380  28.813  32.150  1.00  0.00     0.049 A 
ATOM     98  H   UNL A   1      42.432  29.217  31.445  1.00  0.00     0.167 HD
ATOM     99  C   UNL A   1      43.322  30.094  33.990  1.00  0.00     0.074 A 
ATOM    100  C   UNL A   1      43.329  30.702  35.305  1.00  0.00    -0.034 C 
ATOM    101  H   UNL A   1      41.846  31.709  36.461  1.00  0.00     0.065 H 
ATOM    102  H   UNL A   1      46.341  27.940  31.929  1.00  0.00     0.065 H 
ATOM    103  C   UNL A   1      44.372  29.427  33.453  1.00  0.00     0.037 A 
ATOM    104  H   UNL A   1      44.143  30.713  35.937  1.00  0.00     0.065 H 
BRANCH  85 105
ATOM    105  C   UNL A   1      43.279  27.100  27.839  1.00  0.00     0.064 A 
ATOM    106  C   UNL A   1      43.135  25.705  27.815  1.00  0.00     0.173 A 
ATOM    107  C   UNL A   1      43.870  27.720  26.728  1.00  0.00     0.173 A 
ATOM    108  F   UNL A   1      42.586  25.064  28.858  1.00  0.00    -0.203 F 
ATOM    109  C   UNL A   1      43.589  24.957  26.731  1.00  0.00     0.198 A 
ATOM    110  C   UNL A   1      44.296  26.971  25.634  1.00  0.00     0.198 A 
ATOM    111  F   UNL A   1      44.026  29.051  26.697  1.00  0.00    -0.203 F 
ATOM    112  F   UNL A   1      43.481  23.622  26.749  1.00  0.00    -0.200 F 
ATOM    113  C   UNL A   1      44.161  25.591  25.638  1.00  0.00     0.200 A 
ATOM    114  F   UNL A   1      44.839  27.586  24.573  1.00  0.00    -0.200 F 
ATOM    115  F   UNL A   1      44.588  24.870  24.592  1.00  0.00    -0.200 F 
ENDBRANCH  85 105
BRANCH  88 116
ATOM    116  C   UNL A   1      39.422  32.291  35.443  1.00  0.00     0.064 A 
ATOM    117  C   UNL A   1      39.647  33.665  35.607  1.00  0.00     0.173 A 
ATOM    118  C   UNL A   1      38.633  31.638  36.400  1.00  0.00     0.173 A 
ATOM    119  F   UNL A   1      40.412  34.327  34.728  1.00  0.00    -0.203 F 
ATOM    120  C   UNL A   1      39.120  34.353  36.698  1.00  0.00     0.198 A 
ATOM    121  C   UNL A   1      38.084  32.333  37.475  1.00  0.00     0.198 A 
ATOM    122  F   UNL A   1      38.384  30.325  36.284  1.00  0.00    -0.203 F 
ATOM    123  F   UNL A   1      39.387  35.657  36.856  1.00  0.00    -0.200 F 
ATOM    124  C   UNL A   1      38.335  33.689  37.628  1.00  0.00     0.200 A 
ATOM    125  F   UNL A   1      37.315  31.690  38.364  1.00  0.00    -0.200 F 
ATOM    126  F   UNL A   1      37.825  34.352  38.674  1.00  0.00    -0.200 F 
ENDBRANCH  88 116
BRANCH 103 127
ATOM    127  C   UNL A   1      45.624  29.342  34.275  1.00  0.00     0.064 A 
ATOM    128  C   UNL A   1      45.857  28.273  35.152  1.00  0.00     0.173 A 
ATOM    129  C   UNL A   1      46.620  30.324  34.153  1.00  0.00     0.173 A 
ATOM    130  F   UNL A   1      44.928  27.318  35.313  1.00  0.00    -0.203 F 
ATOM    131  C   UNL A   1      47.031  28.202  35.896  1.00  0.00     0.198 A 
ATOM    132  C   UNL A   1      47.804  30.235  34.880  1.00  0.00     0.198 A 
ATOM    133  F   UNL A   1      46.447  31.363  33.324  1.00  0.00    -0.203 F 
ATOM    134  F   UNL A   1      47.213  27.195  36.762  1.00  0.00    -0.200 F 
ATOM    135  C   UNL A   1      48.006  29.179  35.754  1.00  0.00     0.200 A 
ATOM    136  F   UNL A   1      48.750  31.172  34.732  1.00  0.00    -0.200 F 
ATOM    137  F   UNL A   1      49.139  29.105  36.468  1.00  0.00    -0.200 F 
ENDBRANCH 103 127
ENDBRANCH  68  71
ENDBRANCH  58  61
ENDBRANCH  54  57
ENDBRANCH  51  54
ENDBRANCH  48  51
ENDBRANCH  45  48
ENDBRANCH   1  45
TORSDOF 19
ENDMDL
MODEL 2
REMARK VINA RESULT:     -11.0      3.037      8.347
REMARK SMILES CCSc1cccc(-c2ccc([C@@H](C)C(=O)NCCCCCCNC(=O)c3ccc(-c4c5nc(c(-c6c(F)c(F)c(F)c(F)c6F)c6ccc([nH]6)c(-c6c(F)c(F)c(F)c(F)c6F)c6nc(c(-c7c(F)c(F)c(F)c(F)c7F)c7ccc4[nH]7)C=C6)C=C5)cc3)cc2)c1
REMARK SMILES IDX 19 1 18 4 17 7 15 8 16 9 13 11 12 13 9 14 10 15 91 16 11 17
REMARK SMILES IDX 90 19 8 23 4 24 5 25 92 26 6 27 7 30 3 33 2 34 1 37 14 41
REMARK SMILES IDX 20 45 21 48 22 51 23 54 24 57 25 58 26 60 27 61 28 62 89 63
REMARK SMILES IDX 29 64 88 66 30 68 31 71 32 72 82 73 33 74 87 75 81 76 83 77
REMARK SMILES IDX 34 78 86 79 80 81 79 83 35 85 67 88 47 89 66 90 48 91 51 92
REMARK SMILES IDX 65 93 84 94 49 95 50 97 64 99 85 100 52 103 36 105 37 106
REMARK SMILES IDX 45 107 38 108 39 109 43 110 46 111 40 112 41 113 44 114
REMARK SMILES IDX 42 115 68 116 69 117 77 118 70 119 71 120 75 121 78 122
REMARK SMILES IDX 72 123 73 124 76 125 74 126 53 127 54 128 62 129 55 130
REMARK SMILES IDX 56 131 60 132 63 133 57 134 58 135 61 136 59 137
REMARK H PARENT 19 2 19 3 18 5 18 6 17 10 13 12 10 18 91 20 11 21 90 22 5 28
REMARK H PARENT 92 29 6 31 7 32 2 35 2 36 1 38 1 39 1 40 14 42 14 43 14 44
REMARK H PARENT 20 46 20 47 21 49 21 50 22 52 22 53 23 55 23 56 24 59 28 65
REMARK H PARENT 89 67 29 69 88 70 87 80 81 82 83 84 86 86 80 87 48 96 51 98
REMARK H PARENT 84 101 49 102 85 104
REMARK Flexibility Score: inf
ROOT
ATOM      1  C   UNL A   1      34.699  31.151  28.042  1.00  0.00    -0.036 C 
ATOM      2  H   UNL A   1      35.680  30.759  27.872  1.00  0.00     0.028 H 
ATOM      3  H   UNL A   1      34.330  30.925  29.021  1.00  0.00     0.028 H 
ENDROOT
BRANCH   1   4
ATOM      4  C   UNL A   1      33.741  30.499  27.044  1.00  0.00     0.017 C 
ATOM      5  H   UNL A   1      33.182  31.265  26.549  1.00  0.00     0.049 H 
ATOM      6  H   UNL A   1      34.323  29.935  26.344  1.00  0.00     0.049 H 
BRANCH   4   7
ATOM      7  N   UNL A   1      32.821  29.593  27.695  1.00  0.00    -0.356 N 
ATOM      8  C   UNL A   1      32.097  28.544  27.216  1.00  0.00     0.227 C 
ATOM      9  O   UNL A   1      31.314  28.009  28.010  1.00  0.00    -0.274 OA
ATOM     10  H   UNL A   1      32.695  29.764  28.657  1.00  0.00     0.163 HD
BRANCH   8  11
ATOM     11  C   UNL A   1      32.221  28.007  25.783  1.00  0.00     0.060 C 
ATOM     12  H   UNL A   1      32.978  28.601  25.315  1.00  0.00     0.045 H 
BRANCH  11  13
ATOM     13  C   UNL A   1      32.795  26.600  25.706  1.00  0.00    -0.036 A 
ATOM     14  C   UNL A   1      33.762  23.917  25.442  1.00  0.00    -0.018 A 
ATOM     15  C   UNL A   1      34.625  25.022  25.399  1.00  0.00    -0.054 A 
ATOM     16  C   UNL A   1      32.401  24.190  25.654  1.00  0.00    -0.054 A 
ATOM     17  C   UNL A   1      34.157  26.334  25.559  1.00  0.00    -0.058 A 
ATOM     18  H   UNL A   1      35.634  24.865  25.245  1.00  0.00     0.063 H 
ATOM     19  C   UNL A   1      31.923  25.504  25.761  1.00  0.00    -0.058 A 
ATOM     20  H   UNL A   1      31.736  23.406  25.731  1.00  0.00     0.063 H 
ATOM     21  H   UNL A   1      34.831  27.115  25.567  1.00  0.00     0.063 H 
ATOM     22  H   UNL A   1      30.912  25.667  25.885  1.00  0.00     0.063 H 
BRANCH  14  23
ATOM     23  C   UNL A   1      34.267  22.532  25.265  1.00  0.00    -0.017 A 
ATOM     24  C   UNL A   1      33.869  20.158  24.778  1.00  0.00     0.008 A 
ATOM     25  C   UNL A   1      35.231  19.892  24.901  1.00  0.00    -0.049 A 
ATOM     26  C   UNL A   1      33.398  21.466  24.957  1.00  0.00    -0.041 A 
ATOM     27  C   UNL A   1      36.114  20.925  25.202  1.00  0.00    -0.061 A 
ATOM     28  H   UNL A   1      35.585  18.932  24.769  1.00  0.00     0.063 H 
ATOM     29  H   UNL A   1      32.388  21.654  24.860  1.00  0.00     0.064 H 
ATOM     30  C   UNL A   1      35.634  22.225  25.390  1.00  0.00    -0.054 A 
ATOM     31  H   UNL A   1      37.124  20.732  25.288  1.00  0.00     0.062 H 
ATOM     32  H   UNL A   1      36.299  22.978  25.625  1.00  0.00     0.063 H 
BRANCH  24  33
ATOM     33  S   UNL A   1      32.704  18.844  24.460  1.00  0.00    -0.126 SA
BRANCH  33  34
ATOM     34  C   UNL A   1      33.815  17.399  24.516  1.00  0.00    -0.005 C 
ATOM     35  H   UNL A   1      34.755  17.701  24.930  1.00  0.00     0.038 H 
ATOM     36  H   UNL A   1      33.353  16.648  25.121  1.00  0.00     0.038 H 
BRANCH  34  37
ATOM     37  C   UNL A   1      34.049  16.817  23.134  1.00  0.00    -0.056 C 
ATOM     38  H   UNL A   1      33.307  16.074  22.929  1.00  0.00     0.024 H 
ATOM     39  H   UNL A   1      35.021  16.369  23.095  1.00  0.00     0.024 H 
ATOM     40  H   UNL A   1      33.986  17.595  22.403  1.00  0.00     0.024 H 
ENDBRANCH  34  37
ENDBRANCH  33  34
ENDBRANCH  24  33
ENDBRANCH  14  23
ENDBRANCH  11  13
BRANCH  11  41
ATOM     41  C   UNL A   1      30.999  28.285  24.905  1.00  0.00    -0.049 C 
ATOM     42  H   UNL A   1      30.514  29.176  25.241  1.00  0.00     0.024 H 
ATOM     43  H   UNL A   1      30.318  27.461  24.971  1.00  0.00     0.024 H 
ATOM     44  H   UNL A   1      31.312  28.409  23.889  1.00  0.00     0.024 H 
ENDBRANCH  11  41
ENDBRANCH   8  11
ENDBRANCH   4   7
ENDBRANCH   1   4
BRANCH   1  45
ATOM     45  C   UNL A   1      34.764  32.679  27.934  1.00  0.00    -0.052 C 
ATOM     46  H   UNL A   1      34.185  32.976  27.085  1.00  0.00     0.027 H 
ATOM     47  H   UNL A   1      35.802  32.926  27.852  1.00  0.00     0.027 H 
BRANCH  45  48
ATOM     48  C   UNL A   1      34.240  33.445  29.156  1.00  0.00    -0.052 C 
ATOM     49  H   UNL A   1      35.066  33.963  29.597  1.00  0.00     0.027 H 
ATOM     50  H   UNL A   1      33.800  32.709  29.796  1.00  0.00     0.027 H 
BRANCH  48  51
ATOM     51  C   UNL A   1      33.136  34.469  28.873  1.00  0.00    -0.036 C 
ATOM     52  H   UNL A   1      32.228  34.107  29.307  1.00  0.00     0.028 H 
ATOM     53  H   UNL A   1      33.087  34.570  27.809  1.00  0.00     0.028 H 
BRANCH  51  54
ATOM     54  C   UNL A   1      33.401  35.869  29.423  1.00  0.00     0.018 C 
ATOM     55  H   UNL A   1      33.176  36.587  28.663  1.00  0.00     0.049 H 
ATOM     56  H   UNL A   1      34.431  35.921  29.712  1.00  0.00     0.049 H 
BRANCH  54  57
ATOM     57  N   UNL A   1      32.590  36.156  30.595  1.00  0.00    -0.352 N 
ATOM     58  C   UNL A   1      32.713  35.704  31.885  1.00  0.00     0.251 C 
ATOM     59  H   UNL A   1      31.836  36.769  30.439  1.00  0.00     0.163 HD
ATOM     60  O   UNL A   1      31.803  35.885  32.688  1.00  0.00    -0.269 OA
BRANCH  58  61
ATOM     61  C   UNL A   1      33.934  34.989  32.316  1.00  0.00     0.039 A 
ATOM     62  C   UNL A   1      33.810  33.698  32.837  1.00  0.00    -0.049 A 
ATOM     63  C   UNL A   1      35.189  35.599  32.251  1.00  0.00    -0.049 A 
ATOM     64  C   UNL A   1      34.948  32.998  33.241  1.00  0.00    -0.053 A 
ATOM     65  H   UNL A   1      32.877  33.262  32.923  1.00  0.00     0.063 H 
ATOM     66  C   UNL A   1      36.331  34.880  32.597  1.00  0.00    -0.053 A 
ATOM     67  H   UNL A   1      35.271  36.582  31.948  1.00  0.00     0.063 H 
ATOM     68  C   UNL A   1      36.222  33.573  33.098  1.00  0.00    -0.014 A 
ATOM     69  H   UNL A   1      34.855  32.054  33.647  1.00  0.00     0.063 H 
ATOM     70  H   UNL A   1      37.262  35.310  32.484  1.00  0.00     0.063 H 
BRANCH  68  71
ATOM     71  C   UNL A   1      37.448  32.819  33.461  1.00  0.00     0.031 A 
ATOM     72  C   UNL A   1      38.171  33.116  34.744  1.00  0.00     0.074 A 
ATOM     73  C   UNL A   1      37.946  31.911  32.600  1.00  0.00     0.049 A 
ATOM     74  N   UNL A   1      39.291  32.612  35.199  1.00  0.00    -0.248 NA
ATOM     75  C   UNL A   1      37.572  34.135  35.620  1.00  0.00    -0.034 C 
ATOM     76  C   UNL A   1      37.363  31.571  31.301  1.00  0.00    -0.036 A 
ATOM     77  N   UNL A   1      39.064  31.118  32.681  1.00  0.00    -0.354 N 
ATOM     78  C   UNL A   1      39.537  33.261  36.402  1.00  0.00     0.074 A 
ATOM     79  C   UNL A   1      38.475  34.228  36.586  1.00  0.00    -0.034 C 
ATOM     80  H   UNL A   1      36.681  34.645  35.511  1.00  0.00     0.065 H 
ATOM     81  C   UNL A   1      38.119  30.629  30.714  1.00  0.00    -0.036 A 
ATOM     82  H   UNL A   1      36.508  31.987  30.901  1.00  0.00     0.065 H 
ATOM     83  C   UNL A   1      39.256  30.323  31.578  1.00  0.00     0.049 A 
ATOM     84  H   UNL A   1      39.670  31.118  33.457  1.00  0.00     0.167 HD
ATOM     85  C   UNL A   1      40.546  33.055  37.282  1.00  0.00     0.037 A 
ATOM     86  H   UNL A   1      38.428  34.900  37.367  1.00  0.00     0.065 H 
ATOM     87  H   UNL A   1      37.927  30.192  29.799  1.00  0.00     0.065 H 
ATOM     88  C   UNL A   1      40.240  29.450  31.292  1.00  0.00     0.037 A 
ATOM     89  C   UNL A   1      41.582  32.070  37.112  1.00  0.00     0.049 A 
ATOM     90  C   UNL A   1      41.341  29.230  32.294  1.00  0.00     0.074 A 
ATOM     91  C   UNL A   1      42.606  31.735  37.981  1.00  0.00    -0.036 A 
ATOM     92  N   UNL A   1      41.727  31.262  35.995  1.00  0.00    -0.354 N 
ATOM     93  N   UNL A   1      41.523  29.798  33.461  1.00  0.00    -0.248 NA
ATOM     94  C   UNL A   1      42.370  28.241  31.940  1.00  0.00    -0.034 C 
ATOM     95  C   UNL A   1      43.395  30.754  37.372  1.00  0.00    -0.036 A 
ATOM     96  H   UNL A   1      42.761  32.140  38.918  1.00  0.00     0.065 H 
ATOM     97  C   UNL A   1      42.836  30.444  36.143  1.00  0.00     0.049 A 
ATOM     98  H   UNL A   1      41.130  31.268  35.211  1.00  0.00     0.167 HD
ATOM     99  C   UNL A   1      42.667  29.220  33.992  1.00  0.00     0.074 A 
ATOM    100  C   UNL A   1      43.130  28.245  33.027  1.00  0.00    -0.034 C 
ATOM    101  H   UNL A   1      42.472  27.689  31.076  1.00  0.00     0.065 H 
ATOM    102  H   UNL A   1      44.248  30.332  37.770  1.00  0.00     0.065 H 
ATOM    103  C   UNL A   1      43.280  29.475  35.174  1.00  0.00     0.037 A 
ATOM    104  H   UNL A   1      43.948  27.632  33.165  1.00  0.00     0.065 H 
BRANCH  85 105
ATOM    105  C   UNL A   1      40.580  33.909  38.516  1.00  0.00     0.064 A 
ATOM    106  C   UNL A   1      39.902  33.537  39.686  1.00  0.00     0.173 A 
ATOM    107  C   UNL A   1      41.339  35.089  38.544  1.00  0.00     0.173 A 
ATOM    108  F   UNL A   1      39.154  32.424  39.708  1.00  0.00    -0.203 F 
ATOM    109  C   UNL A   1      39.961  34.328  40.831  1.00  0.00     0.198 A 
ATOM    110  C   UNL A   1      41.418  35.862  39.699  1.00  0.00     0.198 A 
ATOM    111  F   UNL A   1      42.012  35.487  37.454  1.00  0.00    -0.203 F 
ATOM    112  F   UNL A   1      39.269  33.976  41.923  1.00  0.00    -0.200 F 
ATOM    113  C   UNL A   1      40.725  35.485  40.839  1.00  0.00     0.200 A 
ATOM    114  F   UNL A   1      42.167  36.975  39.709  1.00  0.00    -0.200 F 
ATOM    115  F   UNL A   1      40.788  36.241  41.944  1.00  0.00    -0.200 F 
ENDBRANCH  85 105
BRANCH  88 116
ATOM    116  C   UNL A   1      40.217  28.702  30.009  1.00  0.00     0.064 A 
ATOM    117  C   UNL A   1      40.869  29.204  28.873  1.00  0.00     0.173 A 
ATOM    118  C   UNL A   1      39.548  27.476  29.890  1.00  0.00     0.173 A 
ATOM    119  F   UNL A   1      41.506  30.382  28.934  1.00  0.00    -0.203 F 
ATOM    120  C   UNL A   1      40.833  28.516  27.662  1.00  0.00     0.198 A 
ATOM    121  C   UNL A   1      39.536  26.776  28.685  1.00  0.00     0.198 A 
ATOM    122  F   UNL A   1      38.914  26.951  30.949  1.00  0.00    -0.203 F 
ATOM    123  F   UNL A   1      41.427  29.040  26.581  1.00  0.00    -0.200 F 
ATOM    124  C   UNL A   1      40.172  27.301  27.570  1.00  0.00     0.200 A 
ATOM    125  F   UNL A   1      38.907  25.596  28.604  1.00  0.00    -0.200 F 
ATOM    126  F   UNL A   1      40.142  26.639  26.406  1.00  0.00    -0.200 F 
ENDBRANCH  88 116
BRANCH 103 127
ATOM    127  C   UNL A   1      44.503  28.669  35.500  1.00  0.00     0.064 A 
ATOM    128  C   UNL A   1      44.417  27.450  36.187  1.00  0.00     0.173 A 
ATOM    129  C   UNL A   1      45.771  29.104  35.085  1.00  0.00     0.173 A 
ATOM    130  F   UNL A   1      43.229  26.999  36.617  1.00  0.00    -0.203 F 
ATOM    131  C   UNL A   1      45.560  26.706  36.469  1.00  0.00     0.198 A 
ATOM    132  C   UNL A   1      46.908  28.345  35.345  1.00  0.00     0.198 A 
ATOM    133  F   UNL A   1      45.904  30.261  34.420  1.00  0.00    -0.203 F 
ATOM    134  F   UNL A   1      45.460  25.566  37.166  1.00  0.00    -0.200 F 
ATOM    135  C   UNL A   1      46.803  27.151  36.042  1.00  0.00     0.200 A 
ATOM    136  F   UNL A   1      48.106  28.769  34.921  1.00  0.00    -0.200 F 
ATOM    137  F   UNL A   1      47.902  26.431  36.309  1.00  0.00    -0.200 F 
ENDBRANCH 103 127
ENDBRANCH  68  71
ENDBRANCH  58  61
ENDBRANCH  54  57
ENDBRANCH  51  54
ENDBRANCH  48  51
ENDBRANCH  45  48
ENDBRANCH   1  45
TORSDOF 19
ENDMDL
MODEL 3
REMARK VINA RESULT:     -11.0      2.636      3.900
REMARK SMILES CCSc1cccc(-c2ccc([C@@H](C)C(=O)NCCCCCCNC(=O)c3ccc(-c4c5nc(c(-c6c(F)c(F)c(F)c(F)c6F)c6ccc([nH]6)c(-c6c(F)c(F)c(F)c(F)c6F)c6nc(c(-c7c(F)c(F)c(F)c(F)c7F)c7ccc4[nH]7)C=C6)C=C5)cc3)cc2)c1
REMARK SMILES IDX 19 1 18 4 17 7 15 8 16 9 13 11 12 13 9 14 10 15 91 16 11 17
REMARK SMILES IDX 90 19 8 23 4 24 5 25 92 26 6 27 7 30 3 33 2 34 1 37 14 41
REMARK SMILES IDX 20 45 21 48 22 51 23 54 24 57 25 58 26 60 27 61 28 62 89 63
REMARK SMILES IDX 29 64 88 66 30 68 31 71 32 72 82 73 33 74 87 75 81 76 83 77
REMARK SMILES IDX 34 78 86 79 80 81 79 83 35 85 67 88 47 89 66 90 48 91 51 92
REMARK SMILES IDX 65 93 84 94 49 95 50 97 64 99 85 100 52 103 36 105 37 106
REMARK SMILES IDX 45 107 38 108 39 109 43 110 46 111 40 112 41 113 44 114
REMARK SMILES IDX 42 115 68 116 69 117 77 118 70 119 71 120 75 121 78 122
REMARK SMILES IDX 72 123 73 124 76 125 74 126 53 127 54 128 62 129 55 130
REMARK SMILES IDX 56 131 60 132 63 133 57 134 58 135 61 136 59 137
REMARK H PARENT 19 2 19 3 18 5 18 6 17 10 13 12 10 18 91 20 11 21 90 22 5 28
REMARK H PARENT 92 29 6 31 7 32 2 35 2 36 1 38 1 39 1 40 14 42 14 43 14 44
REMARK H PARENT 20 46 20 47 21 49 21 50 22 52 22 53 23 55 23 56 24 59 28 65
REMARK H PARENT 89 67 29 69 88 70 87 80 81 82 83 84 86 86 80 87 48 96 51 98
REMARK H PARENT 84 101 49 102 85 104
REMARK Flexibility Score: inf
ROOT
ATOM      1  C   UNL A   1      33.514  29.597  27.191  1.00  0.00    -0.036 C 
ATOM      2  H   UNL A   1      34.017  30.516  26.976  1.00  0.00     0.028 H 
ATOM      3  H   UNL A   1      33.742  29.222  28.166  1.00  0.00     0.028 H 
ENDROOT
BRANCH   1   4
ATOM      4  C   UNL A   1      33.988  28.543  26.188  1.00  0.00     0.017 C 
ATOM      5  H   UNL A   1      34.964  28.210  26.472  1.00  0.00     0.049 H 
ATOM      6  H   UNL A   1      33.287  27.734  26.199  1.00  0.00     0.049 H 
BRANCH   4   7
ATOM      7  N   UNL A   1      34.044  29.070  24.842  1.00  0.00    -0.356 N 
ATOM      8  C   UNL A   1      33.448  28.661  23.688  1.00  0.00     0.227 C 
ATOM      9  O   UNL A   1      33.767  29.269  22.660  1.00  0.00    -0.274 OA
ATOM     10  H   UNL A   1      34.616  29.865  24.741  1.00  0.00     0.163 HD
BRANCH   8  11
ATOM     11  C   UNL A   1      32.417  27.526  23.618  1.00  0.00     0.060 C 
ATOM     12  H   UNL A   1      32.093  27.491  22.598  1.00  0.00     0.045 H 
BRANCH  11  13
ATOM     13  C   UNL A   1      33.015  26.144  23.833  1.00  0.00    -0.036 A 
ATOM     14  C   UNL A   1      33.994  23.493  24.305  1.00  0.00    -0.018 A 
ATOM     15  C   UNL A   1      34.115  24.115  23.053  1.00  0.00    -0.054 A 
ATOM     16  C   UNL A   1      33.396  24.249  25.327  1.00  0.00    -0.054 A 
ATOM     17  C   UNL A   1      33.664  25.423  22.829  1.00  0.00    -0.058 A 
ATOM     18  H   UNL A   1      34.549  23.594  22.274  1.00  0.00     0.063 H 
ATOM     19  C   UNL A   1      32.897  25.537  25.092  1.00  0.00    -0.058 A 
ATOM     20  H   UNL A   1      33.321  23.846  26.273  1.00  0.00     0.063 H 
ATOM     21  H   UNL A   1      33.815  25.860  21.907  1.00  0.00     0.063 H 
ATOM     22  H   UNL A   1      32.435  26.050  25.859  1.00  0.00     0.063 H 
BRANCH  14  23
ATOM     23  C   UNL A   1      34.469  22.105  24.530  1.00  0.00    -0.017 A 
ATOM     24  C   UNL A   1      34.016  19.702  24.764  1.00  0.00     0.008 A 
ATOM     25  C   UNL A   1      35.375  19.450  24.933  1.00  0.00    -0.049 A 
ATOM     26  C   UNL A   1      33.574  21.018  24.563  1.00  0.00    -0.041 A 
ATOM     27  C   UNL A   1      36.285  20.504  24.903  1.00  0.00    -0.061 A 
ATOM     28  H   UNL A   1      35.709  18.484  25.079  1.00  0.00     0.063 H 
ATOM     29  H   UNL A   1      32.565  21.194  24.435  1.00  0.00     0.064 H 
ATOM     30  C   UNL A   1      35.833  21.814  24.713  1.00  0.00    -0.054 A 
ATOM     31  H   UNL A   1      37.293  20.319  25.021  1.00  0.00     0.062 H 
ATOM     32  H   UNL A   1      36.518  22.585  24.705  1.00  0.00     0.063 H 
BRANCH  24  33
ATOM     33  S   UNL A   1      32.820  18.382  24.865  1.00  0.00    -0.126 SA
BRANCH  33  34
ATOM     34  C   UNL A   1      33.061  17.595  23.238  1.00  0.00    -0.005 C 
ATOM     35  H   UNL A   1      32.131  17.176  22.915  1.00  0.00     0.038 H 
ATOM     36  H   UNL A   1      33.403  18.343  22.554  1.00  0.00     0.038 H 
BRANCH  34  37
ATOM     37  C   UNL A   1      34.104  16.493  23.297  1.00  0.00    -0.056 C 
ATOM     38  H   UNL A   1      34.205  16.151  24.305  1.00  0.00     0.024 H 
ATOM     39  H   UNL A   1      35.043  16.872  22.953  1.00  0.00     0.024 H 
ATOM     40  H   UNL A   1      33.797  15.679  22.674  1.00  0.00     0.024 H 
ENDBRANCH  34  37
ENDBRANCH  33  34
ENDBRANCH  24  33
ENDBRANCH  14  23
ENDBRANCH  11  13
BRANCH  11  41
ATOM     41  C   UNL A   1      31.114  27.819  24.365  1.00  0.00    -0.049 C 
ATOM     42  H   UNL A   1      31.291  27.782  25.419  1.00  0.00     0.024 H 
ATOM     43  H   UNL A   1      30.379  27.088  24.100  1.00  0.00     0.024 H 
ATOM     44  H   UNL A   1      30.761  28.793  24.096  1.00  0.00     0.024 H 
ENDBRANCH  11  41
ENDBRANCH   8  11
ENDBRANCH   4   7
ENDBRANCH   1   4
BRANCH   1  45
ATOM     45  C   UNL A   1      32.004  29.853  27.156  1.00  0.00    -0.052 C 
ATOM     46  H   UNL A   1      31.691  30.134  28.140  1.00  0.00     0.027 H 
ATOM     47  H   UNL A   1      31.556  28.945  26.808  1.00  0.00     0.027 H 
BRANCH  45  48
ATOM     48  C   UNL A   1      31.548  30.949  26.183  1.00  0.00    -0.052 C 
ATOM     49  H   UNL A   1      30.605  30.654  25.774  1.00  0.00     0.027 H 
ATOM     50  H   UNL A   1      32.327  31.038  25.455  1.00  0.00     0.027 H 
BRANCH  48  51
ATOM     51  C   UNL A   1      31.381  32.346  26.790  1.00  0.00    -0.036 C 
ATOM     52  H   UNL A   1      30.787  32.256  27.675  1.00  0.00     0.028 H 
ATOM     53  H   UNL A   1      30.924  32.950  26.033  1.00  0.00     0.028 H 
BRANCH  51  54
ATOM     54  C   UNL A   1      32.686  33.045  27.164  1.00  0.00     0.018 C 
ATOM     55  H   UNL A   1      33.308  33.103  26.295  1.00  0.00     0.049 H 
ATOM     56  H   UNL A   1      33.156  32.476  27.939  1.00  0.00     0.049 H 
BRANCH  54  57
ATOM     57  N   UNL A   1      32.459  34.389  27.668  1.00  0.00    -0.352 N 
ATOM     58  C   UNL A   1      33.015  35.033  28.747  1.00  0.00     0.251 C 
ATOM     59  H   UNL A   1      31.806  34.921  27.159  1.00  0.00     0.163 HD
ATOM     60  O   UNL A   1      32.537  36.090  29.144  1.00  0.00    -0.269 OA
BRANCH  58  61
ATOM     61  C   UNL A   1      34.185  34.454  29.443  1.00  0.00     0.039 A 
ATOM     62  C   UNL A   1      33.982  33.770  30.645  1.00  0.00    -0.049 A 
ATOM     63  C   UNL A   1      35.479  34.621  28.943  1.00  0.00    -0.049 A 
ATOM     64  C   UNL A   1      35.069  33.206  31.317  1.00  0.00    -0.053 A 
ATOM     65  H   UNL A   1      33.030  33.682  31.037  1.00  0.00     0.063 H 
ATOM     66  C   UNL A   1      36.555  34.007  29.580  1.00  0.00    -0.053 A 
ATOM     67  H   UNL A   1      35.637  35.199  28.103  1.00  0.00     0.063 H 
ATOM     68  C   UNL A   1      36.361  33.296  30.774  1.00  0.00    -0.014 A 
ATOM     69  H   UNL A   1      34.922  32.722  32.216  1.00  0.00     0.063 H 
ATOM     70  H   UNL A   1      37.500  34.075  29.171  1.00  0.00     0.063 H 
BRANCH  68  71
ATOM     71  C   UNL A   1      37.518  32.647  31.440  1.00  0.00     0.031 A 
ATOM     72  C   UNL A   1      38.228  31.498  30.781  1.00  0.00     0.074 A 
ATOM     73  C   UNL A   1      37.887  33.050  32.672  1.00  0.00     0.049 A 
ATOM     74  N   UNL A   1      39.211  30.761  31.235  1.00  0.00    -0.248 NA
ATOM     75  C   UNL A   1      37.752  31.106  29.445  1.00  0.00    -0.034 C 
ATOM     76  C   UNL A   1      37.244  34.120  33.437  1.00  0.00    -0.036 A 
ATOM     77  N   UNL A   1      38.882  32.599  33.502  1.00  0.00    -0.354 N 
ATOM     78  C   UNL A   1      39.459  29.814  30.250  1.00  0.00     0.074 A 
ATOM     79  C   UNL A   1      38.496  30.038  29.194  1.00  0.00    -0.034 C 
ATOM     80  H   UNL A   1      37.028  31.548  28.857  1.00  0.00     0.065 H 
ATOM     81  C   UNL A   1      37.870  34.252  34.617  1.00  0.00    -0.036 A 
ATOM     82  H   UNL A   1      36.440  34.682  33.119  1.00  0.00     0.065 H 
ATOM     83  C   UNL A   1      38.935  33.257  34.706  1.00  0.00     0.049 A 
ATOM     84  H   UNL A   1      39.500  31.873  33.258  1.00  0.00     0.167 HD
ATOM     85  C   UNL A   1      40.417  28.857  30.223  1.00  0.00     0.037 A 
ATOM     86  H   UNL A   1      38.401  29.444  28.356  1.00  0.00     0.065 H 
ATOM     87  H   UNL A   1      37.635  34.946  35.345  1.00  0.00     0.065 H 
ATOM     88  C   UNL A   1      39.746  33.075  35.765  1.00  0.00     0.037 A 
ATOM     89  C   UNL A   1      41.395  28.657  31.260  1.00  0.00     0.049 A 
ATOM     90  C   UNL A   1      40.810  32.014  35.701  1.00  0.00     0.074 A 
ATOM     91  C   UNL A   1      42.452  27.762  31.291  1.00  0.00    -0.036 A 
ATOM     92  N   UNL A   1      41.436  29.364  32.452  1.00  0.00    -0.354 N 
ATOM     93  N   UNL A   1      41.082  31.172  34.735  1.00  0.00    -0.248 NA
ATOM     94  C   UNL A   1      41.686  31.884  36.875  1.00  0.00    -0.034 C 
ATOM     95  C   UNL A   1      43.105  27.898  32.520  1.00  0.00    -0.036 A 
ATOM     96  H   UNL A   1      42.711  27.108  30.537  1.00  0.00     0.065 H 
ATOM     97  C   UNL A   1      42.486  28.910  33.236  1.00  0.00     0.049 A 
ATOM     98  H   UNL A   1      40.812  30.081  32.706  1.00  0.00     0.167 HD
ATOM     99  C   UNL A   1      42.172  30.431  35.169  1.00  0.00     0.074 A 
ATOM    100  C   UNL A   1      42.523  30.933  36.481  1.00  0.00    -0.034 C 
ATOM    101  H   UNL A   1      41.658  32.398  37.768  1.00  0.00     0.065 H 
ATOM    102  H   UNL A   1      43.913  27.341  32.839  1.00  0.00     0.065 H 
ATOM    103  C   UNL A   1      42.824  29.425  34.538  1.00  0.00     0.037 A 
ATOM    104  H   UNL A   1      43.321  30.595  37.040  1.00  0.00     0.065 H 
BRANCH  85 105
ATOM    105  C   UNL A   1      40.462  27.948  29.028  1.00  0.00     0.064 A 
ATOM    106  C   UNL A   1      39.707  26.767  28.975  1.00  0.00     0.173 A 
ATOM    107  C   UNL A   1      41.231  28.287  27.905  1.00  0.00     0.173 A 
ATOM    108  F   UNL A   1      38.963  26.393  30.026  1.00  0.00    -0.203 F 
ATOM    109  C   UNL A   1      39.741  25.946  27.851  1.00  0.00     0.198 A 
ATOM    110  C   UNL A   1      41.240  27.477  26.772  1.00  0.00     0.198 A 
ATOM    111  F   UNL A   1      41.967  29.409  27.902  1.00  0.00    -0.203 F 
ATOM    112  F   UNL A   1      39.046  24.800  27.839  1.00  0.00    -0.200 F 
ATOM    113  C   UNL A   1      40.501  26.305  26.747  1.00  0.00     0.200 A 
ATOM    114  F   UNL A   1      41.967  27.832  25.702  1.00  0.00    -0.200 F 
ATOM    115  F   UNL A   1      40.525  25.518  25.663  1.00  0.00    -0.200 F 
ENDBRANCH  85 105
BRANCH  88 116
ATOM    116  C   UNL A   1      39.596  33.933  36.969  1.00  0.00     0.064 A 
ATOM    117  C   UNL A   1      40.224  35.184  37.043  1.00  0.00     0.173 A 
ATOM    118  C   UNL A   1      38.825  33.523  38.066  1.00  0.00     0.173 A 
ATOM    119  F   UNL A   1      40.988  35.609  36.027  1.00  0.00    -0.203 F 
ATOM    120  C   UNL A   1      40.104  35.983  38.178  1.00  0.00     0.198 A 
ATOM    121  C   UNL A   1      38.682  34.334  39.189  1.00  0.00     0.198 A 
ATOM    122  F   UNL A   1      38.199  32.337  38.041  1.00  0.00    -0.203 F 
ATOM    123  F   UNL A   1      40.750  37.155  38.240  1.00  0.00    -0.200 F 
ATOM    124  C   UNL A   1      39.329  35.560  39.247  1.00  0.00     0.200 A 
ATOM    125  F   UNL A   1      37.922  33.929  40.215  1.00  0.00    -0.200 F 
ATOM    126  F   UNL A   1      39.209  36.331  40.336  1.00  0.00    -0.200 F 
ENDBRANCH  88 116
BRANCH 103 127
ATOM    127  C   UNL A   1      43.999  28.818  35.247  1.00  0.00     0.064 A 
ATOM    128  C   UNL A   1      43.846  27.751  36.143  1.00  0.00     0.173 A 
ATOM    129  C   UNL A   1      45.298  29.286  34.995  1.00  0.00     0.173 A 
ATOM    130  F   UNL A   1      42.622  27.278  36.427  1.00  0.00    -0.203 F 
ATOM    131  C   UNL A   1      44.948  27.189  36.781  1.00  0.00     0.198 A 
ATOM    132  C   UNL A   1      46.400  28.704  35.615  1.00  0.00     0.198 A 
ATOM    133  F   UNL A   1      45.498  30.301  34.142  1.00  0.00    -0.203 F 
ATOM    134  F   UNL A   1      44.774  26.199  37.668  1.00  0.00    -0.200 F 
ATOM    135  C   UNL A   1      46.224  27.661  36.512  1.00  0.00     0.200 A 
ATOM    136  F   UNL A   1      47.634  29.153  35.344  1.00  0.00    -0.200 F 
ATOM    137  F   UNL A   1      47.285  27.115  37.123  1.00  0.00    -0.200 F 
ENDBRANCH 103 127
ENDBRANCH  68  71
ENDBRANCH  58  61
ENDBRANCH  54  57
ENDBRANCH  51  54
ENDBRANCH  48  51
ENDBRANCH  45  48
ENDBRANCH   1  45
TORSDOF 19
ENDMDL
MODEL 4
REMARK VINA RESULT:     -11.0      4.519      8.791
REMARK SMILES CCSc1cccc(-c2ccc([C@@H](C)C(=O)NCCCCCCNC(=O)c3ccc(-c4c5nc(c(-c6c(F)c(F)c(F)c(F)c6F)c6ccc([nH]6)c(-c6c(F)c(F)c(F)c(F)c6F)c6nc(c(-c7c(F)c(F)c(F)c(F)c7F)c7ccc4[nH]7)C=C6)C=C5)cc3)cc2)c1
REMARK SMILES IDX 19 1 18 4 17 7 15 8 16 9 13 11 12 13 9 14 10 15 91 16 11 17
REMARK SMILES IDX 90 19 8 23 4 24 5 25 92 26 6 27 7 30 3 33 2 34 1 37 14 41
REMARK SMILES IDX 20 45 21 48 22 51 23 54 24 57 25 58 26 60 27 61 28 62 89 63
REMARK SMILES IDX 29 64 88 66 30 68 31 71 32 72 82 73 33 74 87 75 81 76 83 77
REMARK SMILES IDX 34 78 86 79 80 81 79 83 35 85 67 88 47 89 66 90 48 91 51 92
REMARK SMILES IDX 65 93 84 94 49 95 50 97 64 99 85 100 52 103 36 105 37 106
REMARK SMILES IDX 45 107 38 108 39 109 43 110 46 111 40 112 41 113 44 114
REMARK SMILES IDX 42 115 68 116 69 117 77 118 70 119 71 120 75 121 78 122
REMARK SMILES IDX 72 123 73 124 76 125 74 126 53 127 54 128 62 129 55 130
REMARK SMILES IDX 56 131 60 132 63 133 57 134 58 135 61 136 59 137
REMARK H PARENT 19 2 19 3 18 5 18 6 17 10 13 12 10 18 91 20 11 21 90 22 5 28
REMARK H PARENT 92 29 6 31 7 32 2 35 2 36 1 38 1 39 1 40 14 42 14 43 14 44
REMARK H PARENT 20 46 20 47 21 49 21 50 22 52 22 53 23 55 23 56 24 59 28 65
REMARK H PARENT 89 67 29 69 88 70 87 80 81 82 83 84 86 86 80 87 48 96 51 98
REMARK H PARENT 84 101 49 102 85 104
REMARK Flexibility Score: inf
ROOT
ATOM      1  C   UNL A   1      44.632  23.325  27.536  1.00  0.00    -0.036 C 
ATOM      2  H   UNL A   1      44.912  22.358  27.171  1.00  0.00     0.028 H 
ATOM      3  H   UNL A   1      43.998  23.854  26.856  1.00  0.00     0.028 H 
ENDROOT
BRANCH   1   4
ATOM      4  C   UNL A   1      45.902  24.162  27.702  1.00  0.00     0.017 C 
ATOM      5  H   UNL A   1      45.733  24.900  28.457  1.00  0.00     0.049 H 
ATOM      6  H   UNL A   1      46.700  23.504  27.979  1.00  0.00     0.049 H 
BRANCH   4   7
ATOM      7  N   UNL A   1      46.273  24.825  26.471  1.00  0.00    -0.356 N 
ATOM      8  C   UNL A   1      45.606  25.721  25.693  1.00  0.00     0.227 C 
ATOM      9  O   UNL A   1      46.156  26.043  24.633  1.00  0.00    -0.274 OA
ATOM     10  H   UNL A   1      47.168  24.586  26.137  1.00  0.00     0.163 HD
BRANCH   8  11
ATOM     11  C   UNL A   1      44.253  26.338  26.073  1.00  0.00     0.060 C 
ATOM     12  H   UNL A   1      43.873  25.735  26.871  1.00  0.00     0.045 H 
BRANCH  11  13
ATOM     13  C   UNL A   1      44.368  27.714  26.712  1.00  0.00    -0.036 A 
ATOM     14  C   UNL A   1      44.434  30.280  27.985  1.00  0.00    -0.018 A 
ATOM     15  C   UNL A   1      45.501  29.375  28.087  1.00  0.00    -0.054 A 
ATOM     16  C   UNL A   1      43.343  29.877  27.198  1.00  0.00    -0.054 A 
ATOM     17  C   UNL A   1      45.484  28.132  27.440  1.00  0.00    -0.058 A 
ATOM     18  H   UNL A   1      46.323  29.632  28.657  1.00  0.00     0.063 H 
ATOM     19  C   UNL A   1      43.299  28.613  26.593  1.00  0.00    -0.058 A 
ATOM     20  H   UNL A   1      42.553  30.526  27.063  1.00  0.00     0.063 H 
ATOM     21  H   UNL A   1      46.309  27.516  27.503  1.00  0.00     0.063 H 
ATOM     22  H   UNL A   1      42.467  28.340  26.048  1.00  0.00     0.063 H 
BRANCH  14  23
ATOM     23  C   UNL A   1      44.460  31.591  28.680  1.00  0.00    -0.017 A 
ATOM     24  C   UNL A   1      43.375  33.708  29.291  1.00  0.00     0.008 A 
ATOM     25  C   UNL A   1      44.497  34.084  30.026  1.00  0.00    -0.049 A 
ATOM     26  C   UNL A   1      43.362  32.472  28.629  1.00  0.00    -0.041 A 
ATOM     27  C   UNL A   1      45.596  33.234  30.098  1.00  0.00    -0.061 A 
ATOM     28  H   UNL A   1      44.513  34.991  30.519  1.00  0.00     0.063 H 
ATOM     29  H   UNL A   1      42.525  32.200  28.090  1.00  0.00     0.064 H 
ATOM     30  C   UNL A   1      45.579  32.008  29.425  1.00  0.00    -0.054 A 
ATOM     31  H   UNL A   1      46.426  33.507  30.647  1.00  0.00     0.062 H 
ATOM     32  H   UNL A   1      46.406  31.393  29.476  1.00  0.00     0.063 H 
BRANCH  24  33
ATOM     33  S   UNL A   1      41.978  34.805  29.126  1.00  0.00    -0.126 SA
BRANCH  33  34
ATOM     34  C   UNL A   1      42.702  36.103  28.070  1.00  0.00    -0.005 C 
ATOM     35  H   UNL A   1      42.153  37.011  28.213  1.00  0.00     0.038 H 
ATOM     36  H   UNL A   1      43.727  36.226  28.349  1.00  0.00     0.038 H 
BRANCH  34  37
ATOM     37  C   UNL A   1      42.653  35.725  26.600  1.00  0.00    -0.056 C 
ATOM     38  H   UNL A   1      43.640  35.493  26.259  1.00  0.00     0.024 H 
ATOM     39  H   UNL A   1      42.263  36.544  26.033  1.00  0.00     0.024 H 
ATOM     40  H   UNL A   1      42.022  34.870  26.473  1.00  0.00     0.024 H 
ENDBRANCH  34  37
ENDBRANCH  33  34
ENDBRANCH  24  33
ENDBRANCH  14  23
ENDBRANCH  11  13
BRANCH  11  41
ATOM     41  C   UNL A   1      43.173  26.182  25.001  1.00  0.00    -0.049 C 
ATOM     42  H   UNL A   1      43.123  25.159  24.692  1.00  0.00     0.024 H 
ATOM     43  H   UNL A   1      43.414  26.798  24.159  1.00  0.00     0.024 H 
ATOM     44  H   UNL A   1      42.227  26.481  25.402  1.00  0.00     0.024 H 
ENDBRANCH  11  41
ENDBRANCH   8  11
ENDBRANCH   4   7
ENDBRANCH   1   4
BRANCH   1  45
ATOM     45  C   UNL A   1      43.836  23.139  28.832  1.00  0.00    -0.052 C 
ATOM     46  H   UNL A   1      44.174  23.870  29.537  1.00  0.00     0.027 H 
ATOM     47  H   UNL A   1      44.012  22.130  29.146  1.00  0.00     0.027 H 
BRANCH  45  48
ATOM     48  C   UNL A   1      42.315  23.282  28.693  1.00  0.00    -0.052 C 
ATOM     49  H   UNL A   1      42.116  24.218  28.215  1.00  0.00     0.027 H 
ATOM     50  H   UNL A   1      41.922  23.210  29.685  1.00  0.00     0.027 H 
BRANCH  48  51
ATOM     51  C   UNL A   1      41.617  22.182  27.885  1.00  0.00    -0.036 C 
ATOM     52  H   UNL A   1      40.637  22.043  28.291  1.00  0.00     0.028 H 
ATOM     53  H   UNL A   1      42.237  21.313  27.965  1.00  0.00     0.028 H 
BRANCH  51  54
ATOM     54  C   UNL A   1      41.477  22.472  26.392  1.00  0.00     0.018 C 
ATOM     55  H   UNL A   1      41.967  21.696  25.842  1.00  0.00     0.049 H 
ATOM     56  H   UNL A   1      41.923  23.425  26.197  1.00  0.00     0.049 H 
BRANCH  54  57
ATOM     57  N   UNL A   1      40.085  22.533  25.978  1.00  0.00    -0.352 N 
ATOM     58  C   UNL A   1      39.092  23.407  26.347  1.00  0.00     0.251 C 
ATOM     59  H   UNL A   1      39.811  21.841  25.334  1.00  0.00     0.163 HD
ATOM     60  O   UNL A   1      37.924  23.166  26.058  1.00  0.00    -0.269 OA
BRANCH  58  61
ATOM     61  C   UNL A   1      39.419  24.636  27.101  1.00  0.00     0.039 A 
ATOM     62  C   UNL A   1      38.975  24.754  28.422  1.00  0.00    -0.049 A 
ATOM     63  C   UNL A   1      40.117  25.688  26.502  1.00  0.00    -0.049 A 
ATOM     64  C   UNL A   1      39.278  25.901  29.158  1.00  0.00    -0.053 A 
ATOM     65  H   UNL A   1      38.423  23.995  28.852  1.00  0.00     0.063 H 
ATOM     66  C   UNL A   1      40.473  26.805  27.254  1.00  0.00    -0.053 A 
ATOM     67  H   UNL A   1      40.370  25.637  25.502  1.00  0.00     0.063 H 
ATOM     68  C   UNL A   1      40.055  26.924  28.589  1.00  0.00    -0.014 A 
ATOM     69  H   UNL A   1      38.931  25.998  30.125  1.00  0.00     0.063 H 
ATOM     70  H   UNL A   1      41.047  27.549  26.828  1.00  0.00     0.063 H 
BRANCH  68  71
ATOM     71  C   UNL A   1      40.443  28.120  29.378  1.00  0.00     0.031 A 
ATOM     72  C   UNL A   1      41.782  28.180  30.058  1.00  0.00     0.074 A 
ATOM     73  C   UNL A   1      39.560  29.126  29.536  1.00  0.00     0.049 A 
ATOM     74  N   UNL A   1      42.271  29.107  30.844  1.00  0.00    -0.248 NA
ATOM     75  C   UNL A   1      42.680  27.033  29.852  1.00  0.00    -0.034 C 
ATOM     76  C   UNL A   1      38.212  29.161  28.968  1.00  0.00    -0.036 A 
ATOM     77  N   UNL A   1      39.659  30.304  30.233  1.00  0.00    -0.354 N 
ATOM     78  C   UNL A   1      43.522  28.649  31.235  1.00  0.00     0.074 A 
ATOM     79  C   UNL A   1      43.701  27.343  30.639  1.00  0.00    -0.034 C 
ATOM     80  H   UNL A   1      42.549  26.204  29.250  1.00  0.00     0.065 H 
ATOM     81  C   UNL A   1      37.615  30.309  29.326  1.00  0.00    -0.036 A 
ATOM     82  H   UNL A   1      37.788  28.423  28.385  1.00  0.00     0.065 H 
ATOM     83  C   UNL A   1      38.524  31.074  30.175  1.00  0.00     0.049 A 
ATOM     84  H   UNL A   1      40.467  30.572  30.727  1.00  0.00     0.167 HD
ATOM     85  C   UNL A   1      44.445  29.272  32.006  1.00  0.00     0.037 A 
ATOM     86  H   UNL A   1      44.515  26.732  30.805  1.00  0.00     0.065 H 
ATOM     87  H   UNL A   1      36.666  30.603  29.046  1.00  0.00     0.065 H 
ATOM     88  C   UNL A   1      38.245  32.261  30.746  1.00  0.00     0.037 A 
ATOM     89  C   UNL A   1      44.277  30.585  32.572  1.00  0.00     0.049 A 
ATOM     90  C   UNL A   1      39.294  32.937  31.586  1.00  0.00     0.074 A 
ATOM     91  C   UNL A   1      45.184  31.332  33.305  1.00  0.00    -0.036 A 
ATOM     92  N   UNL A   1      43.125  31.348  32.466  1.00  0.00    -0.354 N 
ATOM     93  N   UNL A   1      40.502  32.527  31.889  1.00  0.00    -0.248 NA
ATOM     94  C   UNL A   1      38.943  34.245  32.157  1.00  0.00    -0.034 C 
ATOM     95  C   UNL A   1      44.564  32.528  33.680  1.00  0.00    -0.036 A 
ATOM     96  H   UNL A   1      46.150  31.053  33.536  1.00  0.00     0.065 H 
ATOM     97  C   UNL A   1      43.289  32.549  33.140  1.00  0.00     0.049 A 
ATOM     98  H   UNL A   1      42.310  31.079  31.984  1.00  0.00     0.167 HD
ATOM     99  C   UNL A   1      41.064  33.533  32.662  1.00  0.00     0.074 A 
ATOM    100  C   UNL A   1      40.071  34.582  32.769  1.00  0.00    -0.034 C 
ATOM    101  H   UNL A   1      38.055  34.765  32.097  1.00  0.00     0.065 H 
ATOM    102  H   UNL A   1      44.986  33.271  34.259  1.00  0.00     0.065 H 
ATOM    103  C   UNL A   1      42.292  33.584  33.233  1.00  0.00     0.037 A 
ATOM    104  H   UNL A   1      40.220  35.477  33.260  1.00  0.00     0.065 H 
BRANCH  85 105
ATOM    105  C   UNL A   1      45.728  28.543  32.285  1.00  0.00     0.064 A 
ATOM    106  C   UNL A   1      45.798  27.516  33.239  1.00  0.00     0.173 A 
ATOM    107  C   UNL A   1      46.888  28.842  31.555  1.00  0.00     0.173 A 
ATOM    108  F   UNL A   1      44.719  27.200  33.970  1.00  0.00    -0.203 F 
ATOM    109  C   UNL A   1      46.989  26.834  33.470  1.00  0.00     0.198 A 
ATOM    110  C   UNL A   1      48.071  28.138  31.770  1.00  0.00     0.198 A 
ATOM    111  F   UNL A   1      46.875  29.810  30.627  1.00  0.00    -0.203 F 
ATOM    112  F   UNL A   1      47.044  25.888  34.417  1.00  0.00    -0.200 F 
ATOM    113  C   UNL A   1      48.122  27.139  32.731  1.00  0.00     0.200 A 
ATOM    114  F   UNL A   1      49.162  28.426  31.046  1.00  0.00    -0.200 F 
ATOM    115  F   UNL A   1      49.265  26.475  32.949  1.00  0.00    -0.200 F 
ENDBRANCH  85 105
BRANCH  88 116
ATOM    116  C   UNL A   1      36.920  32.896  30.525  1.00  0.00     0.064 A 
ATOM    117  C   UNL A   1      35.917  32.825  31.502  1.00  0.00     0.173 A 
ATOM    118  C   UNL A   1      36.630  33.585  29.339  1.00  0.00     0.173 A 
ATOM    119  F   UNL A   1      36.143  32.160  32.644  1.00  0.00    -0.203 F 
ATOM    120  C   UNL A   1      34.666  33.402  31.291  1.00  0.00     0.198 A 
ATOM    121  C   UNL A   1      35.388  34.184  29.140  1.00  0.00     0.198 A 
ATOM    122  F   UNL A   1      37.558  33.686  28.376  1.00  0.00    -0.203 F 
ATOM    123  F   UNL A   1      33.711  33.281  32.223  1.00  0.00    -0.200 F 
ATOM    124  C   UNL A   1      34.404  34.085  30.114  1.00  0.00     0.200 A 
ATOM    125  F   UNL A   1      35.143  34.855  28.007  1.00  0.00    -0.200 F 
ATOM    126  F   UNL A   1      33.203  34.643  29.914  1.00  0.00    -0.200 F 
ENDBRANCH  88 116
BRANCH 103 127
ATOM    127  C   UNL A   1      42.640  34.825  34.001  1.00  0.00     0.064 A 
ATOM    128  C   UNL A   1      42.567  34.867  35.401  1.00  0.00     0.173 A 
ATOM    129  C   UNL A   1      43.090  35.972  33.330  1.00  0.00     0.173 A 
ATOM    130  F   UNL A   1      42.128  33.800  36.086  1.00  0.00    -0.203 F 
ATOM    131  C   UNL A   1      42.908  36.021  36.100  1.00  0.00     0.198 A 
ATOM    132  C   UNL A   1      43.456  37.116  34.034  1.00  0.00     0.198 A 
ATOM    133  F   UNL A   1      43.183  35.980  31.992  1.00  0.00    -0.203 F 
ATOM    134  F   UNL A   1      42.787  36.055  37.434  1.00  0.00    -0.200 F 
ATOM    135  C   UNL A   1      43.358  37.142  35.416  1.00  0.00     0.200 A 
ATOM    136  F   UNL A   1      43.903  38.192  33.374  1.00  0.00    -0.200 F 
ATOM    137  F   UNL A   1      43.692  38.251  36.092  1.00  0.00    -0.200 F 
ENDBRANCH 103 127
ENDBRANCH  68  71
ENDBRANCH  58  61
ENDBRANCH  54  57
ENDBRANCH  51  54
ENDBRANCH  48  51
ENDBRANCH  45  48
ENDBRANCH   1  45
TORSDOF 19
ENDMDL
MODEL 5
REMARK VINA RESULT:     -10.9      3.777      6.661
REMARK SMILES CCSc1cccc(-c2ccc([C@@H](C)C(=O)NCCCCCCNC(=O)c3ccc(-c4c5nc(c(-c6c(F)c(F)c(F)c(F)c6F)c6ccc([nH]6)c(-c6c(F)c(F)c(F)c(F)c6F)c6nc(c(-c7c(F)c(F)c(F)c(F)c7F)c7ccc4[nH]7)C=C6)C=C5)cc3)cc2)c1
REMARK SMILES IDX 19 1 18 4 17 7 15 8 16 9 13 11 12 13 9 14 10 15 91 16 11 17
REMARK SMILES IDX 90 19 8 23 4 24 5 25 92 26 6 27 7 30 3 33 2 34 1 37 14 41
REMARK SMILES IDX 20 45 21 48 22 51 23 54 24 57 25 58 26 60 27 61 28 62 89 63
REMARK SMILES IDX 29 64 88 66 30 68 31 71 32 72 82 73 33 74 87 75 81 76 83 77
REMARK SMILES IDX 34 78 86 79 80 81 79 83 35 85 67 88 47 89 66 90 48 91 51 92
REMARK SMILES IDX 65 93 84 94 49 95 50 97 64 99 85 100 52 103 36 105 37 106
REMARK SMILES IDX 45 107 38 108 39 109 43 110 46 111 40 112 41 113 44 114
REMARK SMILES IDX 42 115 68 116 69 117 77 118 70 119 71 120 75 121 78 122
REMARK SMILES IDX 72 123 73 124 76 125 74 126 53 127 54 128 62 129 55 130
REMARK SMILES IDX 56 131 60 132 63 133 57 134 58 135 61 136 59 137
REMARK H PARENT 19 2 19 3 18 5 18 6 17 10 13 12 10 18 91 20 11 21 90 22 5 28
REMARK H PARENT 92 29 6 31 7 32 2 35 2 36 1 38 1 39 1 40 14 42 14 43 14 44
REMARK H PARENT 20 46 20 47 21 49 21 50 22 52 22 53 23 55 23 56 24 59 28 65
REMARK H PARENT 89 67 29 69 88 70 87 80 81 82 83 84 86 86 80 87 48 96 51 98
REMARK H PARENT 84 101 49 102 85 104
REMARK Flexibility Score: inf
ROOT
ATOM      1  C   UNL A   1      34.207  26.058  25.692  1.00  0.00    -0.036 C 
ATOM      2  H   UNL A   1      34.516  26.323  26.682  1.00  0.00     0.028 H 
ATOM      3  H   UNL A   1      35.026  25.997  25.007  1.00  0.00     0.028 H 
ENDROOT
BRANCH   1   4
ATOM      4  C   UNL A   1      33.272  27.151  25.172  1.00  0.00     0.017 C 
ATOM      5  H   UNL A   1      32.292  26.740  25.051  1.00  0.00     0.049 H 
ATOM      6  H   UNL A   1      33.269  27.952  25.882  1.00  0.00     0.049 H 
BRANCH   4   7
ATOM      7  N   UNL A   1      33.719  27.680  23.902  1.00  0.00    -0.356 N 
ATOM      8  C   UNL A   1      33.251  27.501  22.636  1.00  0.00     0.227 C 
ATOM      9  O   UNL A   1      33.911  28.021  21.728  1.00  0.00    -0.274 OA
ATOM     10  H   UNL A   1      34.500  28.277  23.963  1.00  0.00     0.163 HD
BRANCH   8  11
ATOM     11  C   UNL A   1      31.972  26.720  22.302  1.00  0.00     0.060 C 
ATOM     12  H   UNL A   1      31.834  26.827  21.246  1.00  0.00     0.045 H 
BRANCH  11  13
ATOM     13  C   UNL A   1      32.114  25.215  22.477  1.00  0.00    -0.036 A 
ATOM     14  C   UNL A   1      32.222  22.365  22.746  1.00  0.00    -0.018 A 
ATOM     15  C   UNL A   1      33.228  23.085  22.084  1.00  0.00    -0.054 A 
ATOM     16  C   UNL A   1      31.173  23.116  23.300  1.00  0.00    -0.054 A 
ATOM     17  C   UNL A   1      33.192  24.482  21.978  1.00  0.00    -0.058 A 
ATOM     18  H   UNL A   1      34.018  22.570  21.663  1.00  0.00     0.063 H 
ATOM     19  C   UNL A   1      31.107  24.509  23.149  1.00  0.00    -0.058 A 
ATOM     20  H   UNL A   1      30.431  22.632  23.828  1.00  0.00     0.063 H 
ATOM     21  H   UNL A   1      33.976  24.976  21.524  1.00  0.00     0.063 H 
ATOM     22  H   UNL A   1      30.304  25.024  23.543  1.00  0.00     0.063 H 
BRANCH  14  23
ATOM     23  C   UNL A   1      32.267  20.885  22.847  1.00  0.00    -0.017 A 
ATOM     24  C   UNL A   1      32.511  18.841  24.187  1.00  0.00     0.008 A 
ATOM     25  C   UNL A   1      32.328  18.059  23.049  1.00  0.00    -0.049 A 
ATOM     26  C   UNL A   1      32.477  20.238  24.082  1.00  0.00    -0.041 A 
ATOM     27  C   UNL A   1      32.116  18.669  21.816  1.00  0.00    -0.061 A 
ATOM     28  H   UNL A   1      32.349  17.029  23.119  1.00  0.00     0.063 H 
ATOM     29  H   UNL A   1      32.610  20.809  24.931  1.00  0.00     0.064 H 
ATOM     30  C   UNL A   1      32.095  20.063  21.718  1.00  0.00    -0.054 A 
ATOM     31  H   UNL A   1      31.973  18.091  20.972  1.00  0.00     0.062 H 
ATOM     32  H   UNL A   1      31.949  20.501  20.796  1.00  0.00     0.063 H 
BRANCH  24  33
ATOM     33  S   UNL A   1      32.853  18.090  25.769  1.00  0.00    -0.126 SA
BRANCH  33  34
ATOM     34  C   UNL A   1      33.115  16.358  25.261  1.00  0.00    -0.005 C 
ATOM     35  H   UNL A   1      32.586  15.716  25.935  1.00  0.00     0.038 H 
ATOM     36  H   UNL A   1      32.754  16.246  24.261  1.00  0.00     0.038 H 
BRANCH  34  37
ATOM     37  C   UNL A   1      34.587  15.984  25.280  1.00  0.00    -0.056 C 
ATOM     38  H   UNL A   1      34.805  15.439  26.174  1.00  0.00     0.024 H 
ATOM     39  H   UNL A   1      35.181  16.873  25.251  1.00  0.00     0.024 H 
ATOM     40  H   UNL A   1      34.811  15.377  24.428  1.00  0.00     0.024 H 
ENDBRANCH  34  37
ENDBRANCH  33  34
ENDBRANCH  24  33
ENDBRANCH  14  23
ENDBRANCH  11  13
BRANCH  11  41
ATOM     41  C   UNL A   1      30.695  27.346  22.864  1.00  0.00    -0.049 C 
ATOM     42  H   UNL A   1      30.149  26.609  23.416  1.00  0.00     0.024 H 
ATOM     43  H   UNL A   1      30.091  27.708  22.059  1.00  0.00     0.024 H 
ATOM     44  H   UNL A   1      30.952  28.159  23.511  1.00  0.00     0.024 H 
ENDBRANCH  11  41
ENDBRANCH   8  11
ENDBRANCH   4   7
ENDBRANCH   1   4
BRANCH   1  45
ATOM     45  C   UNL A   1      33.567  24.666  25.744  1.00  0.00    -0.052 C 
ATOM     46  H   UNL A   1      32.813  24.619  24.986  1.00  0.00     0.027 H 
ATOM     47  H   UNL A   1      33.182  24.554  26.737  1.00  0.00     0.027 H 
BRANCH  45  48
ATOM     48  C   UNL A   1      34.532  23.493  25.527  1.00  0.00    -0.052 C 
ATOM     49  H   UNL A   1      34.691  23.389  24.474  1.00  0.00     0.027 H 
ATOM     50  H   UNL A   1      34.067  22.643  25.981  1.00  0.00     0.027 H 
BRANCH  48  51
ATOM     51  C   UNL A   1      35.902  23.629  26.200  1.00  0.00    -0.036 C 
ATOM     52  H   UNL A   1      36.058  22.767  26.814  1.00  0.00     0.028 H 
ATOM     53  H   UNL A   1      35.874  24.545  26.754  1.00  0.00     0.028 H 
BRANCH  51  54
ATOM     54  C   UNL A   1      37.082  23.748  25.238  1.00  0.00     0.018 C 
ATOM     55  H   UNL A   1      37.489  24.735  25.310  1.00  0.00     0.049 H 
ATOM     56  H   UNL A   1      36.724  23.548  24.250  1.00  0.00     0.049 H 
BRANCH  54  57
ATOM     57  N   UNL A   1      38.129  22.786  25.540  1.00  0.00    -0.352 N 
ATOM     58  C   UNL A   1      39.353  22.971  26.135  1.00  0.00     0.251 C 
ATOM     59  H   UNL A   1      37.932  21.858  25.277  1.00  0.00     0.163 HD
ATOM     60  O   UNL A   1      40.191  22.076  26.107  1.00  0.00    -0.269 OA
BRANCH  58  61
ATOM     61  C   UNL A   1      39.674  24.251  26.804  1.00  0.00     0.039 A 
ATOM     62  C   UNL A   1      39.241  24.450  28.119  1.00  0.00    -0.049 A 
ATOM     63  C   UNL A   1      40.355  25.268  26.130  1.00  0.00    -0.049 A 
ATOM     64  C   UNL A   1      39.540  25.646  28.775  1.00  0.00    -0.053 A 
ATOM     65  H   UNL A   1      38.702  23.715  28.603  1.00  0.00     0.063 H 
ATOM     66  C   UNL A   1      40.706  26.435  26.804  1.00  0.00    -0.053 A 
ATOM     67  H   UNL A   1      40.598  25.154  25.133  1.00  0.00     0.063 H 
ATOM     68  C   UNL A   1      40.300  26.638  28.132  1.00  0.00    -0.014 A 
ATOM     69  H   UNL A   1      39.201  25.803  29.737  1.00  0.00     0.063 H 
ATOM     70  H   UNL A   1      41.268  27.156  26.324  1.00  0.00     0.063 H 
BRANCH  68  71
ATOM     71  C   UNL A   1      40.683  27.886  28.837  1.00  0.00     0.031 A 
ATOM     72  C   UNL A   1      42.065  28.044  29.408  1.00  0.00     0.074 A 
ATOM     73  C   UNL A   1      39.763  28.853  29.022  1.00  0.00     0.049 A 
ATOM     74  N   UNL A   1      42.562  29.029  30.112  1.00  0.00    -0.248 NA
ATOM     75  C   UNL A   1      43.004  26.935  29.179  1.00  0.00    -0.034 C 
ATOM     76  C   UNL A   1      38.375  28.795  28.560  1.00  0.00    -0.036 A 
ATOM     77  N   UNL A   1      39.852  30.065  29.659  1.00  0.00    -0.354 N 
ATOM     78  C   UNL A   1      43.862  28.652  30.423  1.00  0.00     0.074 A 
ATOM     79  C   UNL A   1      44.064  27.330  29.870  1.00  0.00    -0.034 C 
ATOM     80  H   UNL A   1      42.872  26.074  28.626  1.00  0.00     0.065 H 
ATOM     81  C   UNL A   1      37.747  29.927  28.916  1.00  0.00    -0.036 A 
ATOM     82  H   UNL A   1      37.948  28.011  28.044  1.00  0.00     0.065 H 
ATOM     83  C   UNL A   1      38.676  30.775  29.658  1.00  0.00     0.049 A 
ATOM     84  H   UNL A   1      40.680  30.396  30.076  1.00  0.00     0.167 HD
ATOM     85  C   UNL A   1      44.807  29.355  31.093  1.00  0.00     0.037 A 
ATOM     86  H   UNL A   1      44.920  26.770  29.997  1.00  0.00     0.065 H 
ATOM     87  H   UNL A   1      36.765  30.161  28.700  1.00  0.00     0.065 H 
ATOM     88  C   UNL A   1      38.379  31.972  30.199  1.00  0.00     0.037 A 
ATOM     89  C   UNL A   1      44.613  30.683  31.614  1.00  0.00     0.049 A 
ATOM     90  C   UNL A   1      39.452  32.736  30.925  1.00  0.00     0.074 A 
ATOM     91  C   UNL A   1      45.532  31.507  32.242  1.00  0.00    -0.036 A 
ATOM     92  N   UNL A   1      43.417  31.383  31.567  1.00  0.00    -0.354 N 
ATOM     93  N   UNL A   1      40.699  32.401  31.149  1.00  0.00    -0.248 NA
ATOM     94  C   UNL A   1      39.076  34.051  31.466  1.00  0.00    -0.034 C 
ATOM     95  C   UNL A   1      44.881  32.687  32.614  1.00  0.00    -0.036 A 
ATOM     96  H   UNL A   1      46.527  31.287  32.408  1.00  0.00     0.065 H 
ATOM     97  C   UNL A   1      43.568  32.620  32.175  1.00  0.00     0.049 A 
ATOM     98  H   UNL A   1      42.583  31.051  31.162  1.00  0.00     0.167 HD
ATOM     99  C   UNL A   1      41.264  33.469  31.832  1.00  0.00     0.074 A 
ATOM    100  C   UNL A   1      40.228  34.471  31.973  1.00  0.00    -0.034 C 
ATOM    101  H   UNL A   1      38.160  34.522  31.453  1.00  0.00     0.065 H 
ATOM    102  H   UNL A   1      45.305  33.476  33.125  1.00  0.00     0.065 H 
ATOM    103  C   UNL A   1      42.527  33.607  32.302  1.00  0.00     0.037 A 
ATOM    104  H   UNL A   1      40.366  35.394  32.412  1.00  0.00     0.065 H 
BRANCH  85 105
ATOM    105  C   UNL A   1      46.144  28.704  31.300  1.00  0.00     0.064 A 
ATOM    106  C   UNL A   1      46.418  27.934  32.440  1.00  0.00     0.173 A 
ATOM    107  C   UNL A   1      47.147  28.813  30.324  1.00  0.00     0.173 A 
ATOM    108  F   UNL A   1      45.497  27.808  33.407  1.00  0.00    -0.203 F 
ATOM    109  C   UNL A   1      47.656  27.318  32.608  1.00  0.00     0.198 A 
ATOM    110  C   UNL A   1      48.373  28.172  30.483  1.00  0.00     0.198 A 
ATOM    111  F   UNL A   1      46.935  29.533  29.212  1.00  0.00    -0.203 F 
ATOM    112  F   UNL A   1      47.910  26.624  33.725  1.00  0.00    -0.200 F 
ATOM    113  C   UNL A   1      48.629  27.431  31.626  1.00  0.00     0.200 A 
ATOM    114  F   UNL A   1      49.309  28.273  29.527  1.00  0.00    -0.200 F 
ATOM    115  F   UNL A   1      49.816  26.830  31.785  1.00  0.00    -0.200 F 
ENDBRANCH  85 105
BRANCH  88 116
ATOM    116  C   UNL A   1      37.009  32.529  30.056  1.00  0.00     0.064 A 
ATOM    117  C   UNL A   1      36.642  33.248  28.910  1.00  0.00     0.173 A 
ATOM    118  C   UNL A   1      36.043  32.356  31.057  1.00  0.00     0.173 A 
ATOM    119  F   UNL A   1      37.539  33.456  27.935  1.00  0.00    -0.203 F 
ATOM    120  C   UNL A   1      35.365  33.791  28.780  1.00  0.00     0.198 A 
ATOM    121  C   UNL A   1      34.758  32.876  30.914  1.00  0.00     0.198 A 
ATOM    122  F   UNL A   1      36.343  31.671  32.170  1.00  0.00    -0.203 F 
ATOM    123  F   UNL A   1      35.054  34.511  27.694  1.00  0.00    -0.200 F 
ATOM    124  C   UNL A   1      34.423  33.599  29.779  1.00  0.00     0.200 A 
ATOM    125  F   UNL A   1      33.846  32.678  31.876  1.00  0.00    -0.200 F 
ATOM    126  F   UNL A   1      33.194  34.118  29.652  1.00  0.00    -0.200 F 
ENDBRANCH  88 116
BRANCH 103 127
ATOM    127  C   UNL A   1      42.867  34.897  32.988  1.00  0.00     0.064 A 
ATOM    128  C   UNL A   1      43.388  35.990  32.281  1.00  0.00     0.173 A 
ATOM    129  C   UNL A   1      42.631  35.053  34.363  1.00  0.00     0.173 A 
ATOM    130  F   UNL A   1      43.645  35.885  30.968  1.00  0.00    -0.203 F 
ATOM    131  C   UNL A   1      43.684  37.186  32.930  1.00  0.00     0.198 A 
ATOM    132  C   UNL A   1      42.903  36.259  35.002  1.00  0.00     0.198 A 
ATOM    133  F   UNL A   1      42.128  34.039  35.081  1.00  0.00    -0.203 F 
ATOM    134  F   UNL A   1      44.224  38.203  32.243  1.00  0.00    -0.200 F 
ATOM    135  C   UNL A   1      43.435  37.321  34.288  1.00  0.00     0.200 A 
ATOM    136  F   UNL A   1      42.650  36.393  36.311  1.00  0.00    -0.200 F 
ATOM    137  F   UNL A   1      43.716  38.475  34.910  1.00  0.00    -0.200 F 
ENDBRANCH 103 127
ENDBRANCH  68  71
ENDBRANCH  58  61
ENDBRANCH  54  57
ENDBRANCH  51  54
ENDBRANCH  48  51
ENDBRANCH  45  48
ENDBRANCH   1  45
TORSDOF 19
ENDMDL
MODEL 6
REMARK VINA RESULT:     -10.9      3.964      6.625
REMARK SMILES CCSc1cccc(-c2ccc([C@@H](C)C(=O)NCCCCCCNC(=O)c3ccc(-c4c5nc(c(-c6c(F)c(F)c(F)c(F)c6F)c6ccc([nH]6)c(-c6c(F)c(F)c(F)c(F)c6F)c6nc(c(-c7c(F)c(F)c(F)c(F)c7F)c7ccc4[nH]7)C=C6)C=C5)cc3)cc2)c1
REMARK SMILES IDX 19 1 18 4 17 7 15 8 16 9 13 11 12 13 9 14 10 15 91 16 11 17
REMARK SMILES IDX 90 19 8 23 4 24 5 25 92 26 6 27 7 30 3 33 2 34 1 37 14 41
REMARK SMILES IDX 20 45 21 48 22 51 23 54 24 57 25 58 26 60 27 61 28 62 89 63
REMARK SMILES IDX 29 64 88 66 30 68 31 71 32 72 82 73 33 74 87 75 81 76 83 77
REMARK SMILES IDX 34 78 86 79 80 81 79 83 35 85 67 88 47 89 66 90 48 91 51 92
REMARK SMILES IDX 65 93 84 94 49 95 50 97 64 99 85 100 52 103 36 105 37 106
REMARK SMILES IDX 45 107 38 108 39 109 43 110 46 111 40 112 41 113 44 114
REMARK SMILES IDX 42 115 68 116 69 117 77 118 70 119 71 120 75 121 78 122
REMARK SMILES IDX 72 123 73 124 76 125 74 126 53 127 54 128 62 129 55 130
REMARK SMILES IDX 56 131 60 132 63 133 57 134 58 135 61 136 59 137
REMARK H PARENT 19 2 19 3 18 5 18 6 17 10 13 12 10 18 91 20 11 21 90 22 5 28
REMARK H PARENT 92 29 6 31 7 32 2 35 2 36 1 38 1 39 1 40 14 42 14 43 14 44
REMARK H PARENT 20 46 20 47 21 49 21 50 22 52 22 53 23 55 23 56 24 59 28 65
REMARK H PARENT 89 67 29 69 88 70 87 80 81 82 83 84 86 86 80 87 48 96 51 98
REMARK H PARENT 84 101 49 102 85 104
REMARK Flexibility Score: inf
ROOT
ATOM      1  C   UNL A   1      33.570  27.194  25.448  1.00  0.00    -0.036 C 
ATOM      2  H   UNL A   1      34.011  27.888  26.132  1.00  0.00     0.028 H 
ATOM      3  H   UNL A   1      33.971  27.279  24.460  1.00  0.00     0.028 H 
ENDROOT
BRANCH   1   4
ATOM      4  C   UNL A   1      32.074  27.500  25.348  1.00  0.00     0.017 C 
ATOM      5  H   UNL A   1      31.524  26.670  25.739  1.00  0.00     0.049 H 
ATOM      6  H   UNL A   1      31.879  28.390  25.911  1.00  0.00     0.049 H 
BRANCH   4   7
ATOM      7  N   UNL A   1      31.663  27.735  23.982  1.00  0.00    -0.356 N 
ATOM      8  C   UNL A   1      30.886  27.003  23.136  1.00  0.00     0.227 C 
ATOM      9  O   UNL A   1      30.788  27.425  21.977  1.00  0.00    -0.274 OA
ATOM     10  H   UNL A   1      32.006  28.572  23.593  1.00  0.00     0.163 HD
BRANCH   8  11
ATOM     11  C   UNL A   1      30.138  25.729  23.553  1.00  0.00     0.060 C 
ATOM     12  H   UNL A   1      29.538  25.456  22.710  1.00  0.00     0.045 H 
BRANCH  11  13
ATOM     13  C   UNL A   1      31.044  24.521  23.733  1.00  0.00    -0.036 A 
ATOM     14  C   UNL A   1      32.615  22.156  24.119  1.00  0.00    -0.018 A 
ATOM     15  C   UNL A   1      32.676  22.900  22.930  1.00  0.00    -0.054 A 
ATOM     16  C   UNL A   1      31.769  22.649  25.125  1.00  0.00    -0.054 A 
ATOM     17  C   UNL A   1      31.931  24.073  22.752  1.00  0.00    -0.058 A 
ATOM     18  H   UNL A   1      33.286  22.572  22.165  1.00  0.00     0.063 H 
ATOM     19  C   UNL A   1      30.982  23.793  24.929  1.00  0.00    -0.058 A 
ATOM     20  H   UNL A   1      31.722  22.156  26.030  1.00  0.00     0.063 H 
ATOM     21  H   UNL A   1      32.040  24.615  21.880  1.00  0.00     0.063 H 
ATOM     22  H   UNL A   1      30.348  24.107  25.680  1.00  0.00     0.063 H 
BRANCH  14  23
ATOM     23  C   UNL A   1      33.404  20.911  24.296  1.00  0.00    -0.017 A 
ATOM     24  C   UNL A   1      33.638  18.478  24.056  1.00  0.00     0.008 A 
ATOM     25  C   UNL A   1      34.916  18.535  24.607  1.00  0.00    -0.049 A 
ATOM     26  C   UNL A   1      32.896  19.657  23.901  1.00  0.00    -0.041 A 
ATOM     27  C   UNL A   1      35.446  19.759  25.003  1.00  0.00    -0.061 A 
ATOM     28  H   UNL A   1      35.470  17.671  24.721  1.00  0.00     0.063 H 
ATOM     29  H   UNL A   1      31.952  19.606  23.489  1.00  0.00     0.064 H 
ATOM     30  C   UNL A   1      34.694  20.929  24.856  1.00  0.00    -0.054 A 
ATOM     31  H   UNL A   1      36.395  19.805  25.406  1.00  0.00     0.062 H 
ATOM     32  H   UNL A   1      35.095  21.828  25.166  1.00  0.00     0.063 H 
BRANCH  24  33
ATOM     33  S   UNL A   1      32.905  16.917  23.601  1.00  0.00    -0.126 SA
BRANCH  33  34
ATOM     34  C   UNL A   1      33.609  15.835  24.889  1.00  0.00    -0.005 C 
ATOM     35  H   UNL A   1      34.170  15.055  24.418  1.00  0.00     0.038 H 
ATOM     36  H   UNL A   1      34.235  16.431  25.519  1.00  0.00     0.038 H 
BRANCH  34  37
ATOM     37  C   UNL A   1      32.526  15.211  25.752  1.00  0.00    -0.056 C 
ATOM     38  H   UNL A   1      32.953  14.437  26.355  1.00  0.00     0.024 H 
ATOM     39  H   UNL A   1      31.766  14.795  25.124  1.00  0.00     0.024 H 
ATOM     40  H   UNL A   1      32.097  15.960  26.383  1.00  0.00     0.024 H 
ENDBRANCH  34  37
ENDBRANCH  33  34
ENDBRANCH  24  33
ENDBRANCH  14  23
ENDBRANCH  11  13
BRANCH  11  41
ATOM     41  C   UNL A   1      29.088  25.951  24.643  1.00  0.00    -0.049 C 
ATOM     42  H   UNL A   1      28.621  26.903  24.500  1.00  0.00     0.024 H 
ATOM     43  H   UNL A   1      29.560  25.926  25.604  1.00  0.00     0.024 H 
ATOM     44  H   UNL A   1      28.349  25.179  24.589  1.00  0.00     0.024 H 
ENDBRANCH  11  41
ENDBRANCH   8  11
ENDBRANCH   4   7
ENDBRANCH   1   4
BRANCH   1  45
ATOM     45  C   UNL A   1      33.882  25.774  25.933  1.00  0.00    -0.052 C 
ATOM     46  H   UNL A   1      32.955  25.252  26.051  1.00  0.00     0.027 H 
ATOM     47  H   UNL A   1      34.429  25.887  26.846  1.00  0.00     0.027 H 
BRANCH  45  48
ATOM     48  C   UNL A   1      34.777  24.946  25.002  1.00  0.00    -0.052 C 
ATOM     49  H   UNL A   1      35.289  25.623  24.351  1.00  0.00     0.027 H 
ATOM     50  H   UNL A   1      34.123  24.268  24.494  1.00  0.00     0.027 H 
BRANCH  48  51
ATOM     51  C   UNL A   1      35.828  24.074  25.696  1.00  0.00    -0.036 C 
ATOM     52  H   UNL A   1      35.354  23.168  26.010  1.00  0.00     0.028 H 
ATOM     53  H   UNL A   1      36.211  24.656  26.509  1.00  0.00     0.028 H 
BRANCH  51  54
ATOM     54  C   UNL A   1      37.031  23.705  24.831  1.00  0.00     0.018 C 
ATOM     55  H   UNL A   1      37.631  24.579  24.682  1.00  0.00     0.049 H 
ATOM     56  H   UNL A   1      36.664  23.324  23.900  1.00  0.00     0.049 H 
BRANCH  54  57
ATOM     57  N   UNL A   1      37.850  22.674  25.447  1.00  0.00    -0.352 N 
ATOM     58  C   UNL A   1      38.962  22.789  26.243  1.00  0.00     0.251 C 
ATOM     59  H   UNL A   1      37.563  21.750  25.266  1.00  0.00     0.163 HD
ATOM     60  O   UNL A   1      39.646  21.801  26.489  1.00  0.00    -0.269 OA
BRANCH  58  61
ATOM     61  C   UNL A   1      39.351  24.103  26.800  1.00  0.00     0.039 A 
ATOM     62  C   UNL A   1      38.961  24.424  28.104  1.00  0.00    -0.049 A 
ATOM     63  C   UNL A   1      40.055  25.034  26.032  1.00  0.00    -0.049 A 
ATOM     64  C   UNL A   1      39.324  25.654  28.656  1.00  0.00    -0.053 A 
ATOM     65  H   UNL A   1      38.406  23.752  28.658  1.00  0.00     0.063 H 
ATOM     66  C   UNL A   1      40.470  26.236  26.603  1.00  0.00    -0.053 A 
ATOM     67  H   UNL A   1      40.268  24.832  25.042  1.00  0.00     0.063 H 
ATOM     68  C   UNL A   1      40.106  26.559  27.919  1.00  0.00    -0.014 A 
ATOM     69  H   UNL A   1      39.017  25.900  29.610  1.00  0.00     0.063 H 
ATOM     70  H   UNL A   1      41.047  26.892  26.054  1.00  0.00     0.063 H 
BRANCH  68  71
ATOM     71  C   UNL A   1      40.557  27.842  28.513  1.00  0.00     0.031 A 
ATOM     72  C   UNL A   1      41.988  28.024  28.934  1.00  0.00     0.074 A 
ATOM     73  C   UNL A   1      39.659  28.822  28.736  1.00  0.00     0.049 A 
ATOM     74  N   UNL A   1      42.553  29.044  29.531  1.00  0.00    -0.248 NA
ATOM     75  C   UNL A   1      42.901  26.900  28.674  1.00  0.00    -0.034 C 
ATOM     76  C   UNL A   1      38.232  28.746  28.419  1.00  0.00    -0.036 A 
ATOM     77  N   UNL A   1      39.810  30.066  29.293  1.00  0.00    -0.354 N 
ATOM     78  C   UNL A   1      43.878  28.678  29.731  1.00  0.00     0.074 A 
ATOM     79  C   UNL A   1      44.025  27.327  29.233  1.00  0.00    -0.034 C 
ATOM     80  H   UNL A   1      42.716  26.011  28.184  1.00  0.00     0.065 H 
ATOM     81  C   UNL A   1      37.642  29.898  28.773  1.00  0.00    -0.036 A 
ATOM     82  H   UNL A   1      37.756  27.936  27.991  1.00  0.00     0.065 H 
ATOM     83  C   UNL A   1      38.640  30.780  29.371  1.00  0.00     0.049 A 
ATOM     84  H   UNL A   1      40.676  30.415  29.608  1.00  0.00     0.167 HD
ATOM     85  C   UNL A   1      44.884  29.412  30.263  1.00  0.00     0.037 A 
ATOM     86  H   UNL A   1      44.890  26.771  29.305  1.00  0.00     0.065 H 
ATOM     87  H   UNL A   1      36.643  30.124  28.643  1.00  0.00     0.065 H 
ATOM     88  C   UNL A   1      38.397  32.006  29.873  1.00  0.00     0.037 A 
ATOM     89  C   UNL A   1      44.743  30.768  30.727  1.00  0.00     0.049 A 
ATOM     90  C   UNL A   1      39.537  32.804  30.445  1.00  0.00     0.074 A 
ATOM     91  C   UNL A   1      45.719  31.620  31.215  1.00  0.00    -0.036 A 
ATOM     92  N   UNL A   1      43.547  31.469  30.762  1.00  0.00    -0.354 N 
ATOM     93  N   UNL A   1      40.800  32.476  30.562  1.00  0.00    -0.248 NA
ATOM     94  C   UNL A   1      39.216  34.148  30.948  1.00  0.00    -0.034 C 
ATOM     95  C   UNL A   1      45.107  32.822  31.585  1.00  0.00    -0.036 A 
ATOM     96  H   UNL A   1      46.725  31.405  31.293  1.00  0.00     0.065 H 
ATOM     97  C   UNL A   1      43.757  32.736  31.284  1.00  0.00     0.049 A 
ATOM     98  H   UNL A   1      42.678  31.119  30.461  1.00  0.00     0.167 HD
ATOM     99  C   UNL A   1      41.429  33.577  31.126  1.00  0.00     0.074 A 
ATOM    100  C   UNL A   1      40.412  34.590  31.315  1.00  0.00    -0.034 C 
ATOM    101  H   UNL A   1      38.302  34.623  31.002  1.00  0.00     0.065 H 
ATOM    102  H   UNL A   1      45.580  33.635  32.008  1.00  0.00     0.065 H 
ATOM    103  C   UNL A   1      42.733  33.734  31.460  1.00  0.00     0.037 A 
ATOM    104  H   UNL A   1      40.592  35.534  31.687  1.00  0.00     0.065 H 
BRANCH  85 105
ATOM    105  C   UNL A   1      46.236  28.767  30.371  1.00  0.00     0.064 A 
ATOM    106  C   UNL A   1      47.186  28.876  29.345  1.00  0.00     0.173 A 
ATOM    107  C   UNL A   1      46.601  28.072  31.534  1.00  0.00     0.173 A 
ATOM    108  F   UNL A   1      46.882  29.521  28.208  1.00  0.00    -0.203 F 
ATOM    109  C   UNL A   1      48.444  28.291  29.468  1.00  0.00     0.198 A 
ATOM    110  C   UNL A   1      47.870  27.513  31.664  1.00  0.00     0.198 A 
ATOM    111  F   UNL A   1      45.733  27.943  32.548  1.00  0.00    -0.203 F 
ATOM    112  F   UNL A   1      49.320  28.370  28.457  1.00  0.00    -0.200 F 
ATOM    113  C   UNL A   1      48.788  27.617  30.630  1.00  0.00     0.200 A 
ATOM    114  F   UNL A   1      48.205  26.872  32.794  1.00  0.00    -0.200 F 
ATOM    115  F   UNL A   1      50.002  27.063  30.751  1.00  0.00    -0.200 F 
ENDBRANCH  85 105
BRANCH  88 116
ATOM    116  C   UNL A   1      37.020  32.562  29.837  1.00  0.00     0.064 A 
ATOM    117  C   UNL A   1      36.151  32.400  30.925  1.00  0.00     0.173 A 
ATOM    118  C   UNL A   1      36.544  33.263  28.720  1.00  0.00     0.173 A 
ATOM    119  F   UNL A   1      36.555  31.719  32.007  1.00  0.00    -0.203 F 
ATOM    120  C   UNL A   1      34.851  32.901  30.888  1.00  0.00     0.198 A 
ATOM    121  C   UNL A   1      35.254  33.788  28.695  1.00  0.00     0.198 A 
ATOM    122  F   UNL A   1      37.339  33.450  27.656  1.00  0.00    -0.203 F 
ATOM    123  F   UNL A   1      34.027  32.694  31.925  1.00  0.00    -0.200 F 
ATOM    124  C   UNL A   1      34.406  33.599  29.776  1.00  0.00     0.200 A 
ATOM    125  F   UNL A   1      34.832  34.473  27.624  1.00  0.00    -0.200 F 
ATOM    126  F   UNL A   1      33.158  34.084  29.744  1.00  0.00    -0.200 F 
ENDBRANCH  88 116
BRANCH 103 127
ATOM    127  C   UNL A   1      43.139  35.058  32.037  1.00  0.00     0.064 A 
ATOM    128  C   UNL A   1      43.574  36.113  31.222  1.00  0.00     0.173 A 
ATOM    129  C   UNL A   1      43.054  35.285  33.419  1.00  0.00     0.173 A 
ATOM    130  F   UNL A   1      43.686  35.940  29.896  1.00  0.00    -0.203 F 
ATOM    131  C   UNL A   1      43.933  37.340  31.772  1.00  0.00     0.198 A 
ATOM    132  C   UNL A   1      43.388  36.523  33.963  1.00  0.00     0.198 A 
ATOM    133  F   UNL A   1      42.637  34.310  34.240  1.00  0.00    -0.203 F 
ATOM    134  F   UNL A   1      44.389  38.320  30.979  1.00  0.00    -0.200 F 
ATOM    135  C   UNL A   1      43.832  37.546  33.140  1.00  0.00     0.200 A 
ATOM    136  F   UNL A   1      43.278  36.724  35.283  1.00  0.00    -0.200 F 
ATOM    137  F   UNL A   1      44.173  38.731  33.668  1.00  0.00    -0.200 F 
ENDBRANCH 103 127
ENDBRANCH  68  71
ENDBRANCH  58  61
ENDBRANCH  54  57
ENDBRANCH  51  54
ENDBRANCH  48  51
ENDBRANCH  45  48
ENDBRANCH   1  45
TORSDOF 19
ENDMDL
MODEL 7
REMARK VINA RESULT:     -10.8      4.631      9.019
REMARK SMILES CCSc1cccc(-c2ccc([C@@H](C)C(=O)NCCCCCCNC(=O)c3ccc(-c4c5nc(c(-c6c(F)c(F)c(F)c(F)c6F)c6ccc([nH]6)c(-c6c(F)c(F)c(F)c(F)c6F)c6nc(c(-c7c(F)c(F)c(F)c(F)c7F)c7ccc4[nH]7)C=C6)C=C5)cc3)cc2)c1
REMARK SMILES IDX 19 1 18 4 17 7 15 8 16 9 13 11 12 13 9 14 10 15 91 16 11 17
REMARK SMILES IDX 90 19 8 23 4 24 5 25 92 26 6 27 7 30 3 33 2 34 1 37 14 41
REMARK SMILES IDX 20 45 21 48 22 51 23 54 24 57 25 58 26 60 27 61 28 62 89 63
REMARK SMILES IDX 29 64 88 66 30 68 31 71 32 72 82 73 33 74 87 75 81 76 83 77
REMARK SMILES IDX 34 78 86 79 80 81 79 83 35 85 67 88 47 89 66 90 48 91 51 92
REMARK SMILES IDX 65 93 84 94 49 95 50 97 64 99 85 100 52 103 36 105 37 106
REMARK SMILES IDX 45 107 38 108 39 109 43 110 46 111 40 112 41 113 44 114
REMARK SMILES IDX 42 115 68 116 69 117 77 118 70 119 71 120 75 121 78 122
REMARK SMILES IDX 72 123 73 124 76 125 74 126 53 127 54 128 62 129 55 130
REMARK SMILES IDX 56 131 60 132 63 133 57 134 58 135 61 136 59 137
REMARK H PARENT 19 2 19 3 18 5 18 6 17 10 13 12 10 18 91 20 11 21 90 22 5 28
REMARK H PARENT 92 29 6 31 7 32 2 35 2 36 1 38 1 39 1 40 14 42 14 43 14 44
REMARK H PARENT 20 46 20 47 21 49 21 50 22 52 22 53 23 55 23 56 24 59 28 65
REMARK H PARENT 89 67 29 69 88 70 87 80 81 82 83 84 86 86 80 87 48 96 51 98
REMARK H PARENT 84 101 49 102 85 104
REMARK Flexibility Score: inf
ROOT
ATOM      1  C   UNL A   1      45.139  23.389  27.800  1.00  0.00    -0.036 C 
ATOM      2  H   UNL A   1      45.731  22.498  27.842  1.00  0.00     0.028 H 
ATOM      3  H   UNL A   1      44.620  23.493  26.870  1.00  0.00     0.028 H 
ENDROOT
BRANCH   1   4
ATOM      4  C   UNL A   1      46.073  24.594  27.924  1.00  0.00     0.017 C 
ATOM      5  H   UNL A   1      45.571  25.367  28.466  1.00  0.00     0.049 H 
ATOM      6  H   UNL A   1      46.958  24.277  28.437  1.00  0.00     0.049 H 
BRANCH   4   7
ATOM      7  N   UNL A   1      46.465  25.107  26.629  1.00  0.00    -0.356 N 
ATOM      8  C   UNL A   1      45.799  25.877  25.726  1.00  0.00     0.227 C 
ATOM      9  O   UNL A   1      46.371  26.079  24.649  1.00  0.00    -0.274 OA
ATOM     10  H   UNL A   1      47.375  24.853  26.351  1.00  0.00     0.163 HD
BRANCH   8  11
ATOM     11  C   UNL A   1      44.420  26.499  25.989  1.00  0.00     0.060 C 
ATOM     12  H   UNL A   1      44.049  26.020  26.871  1.00  0.00     0.045 H 
BRANCH  11  13
ATOM     13  C   UNL A   1      44.478  27.964  26.396  1.00  0.00    -0.036 A 
ATOM     14  C   UNL A   1      44.465  30.691  27.272  1.00  0.00    -0.018 A 
ATOM     15  C   UNL A   1      45.649  29.941  27.206  1.00  0.00    -0.054 A 
ATOM     16  C   UNL A   1      43.289  30.047  26.856  1.00  0.00    -0.054 A 
ATOM     17  C   UNL A   1      45.662  28.616  26.748  1.00  0.00    -0.058 A 
ATOM     18  H   UNL A   1      46.536  30.377  27.503  1.00  0.00     0.063 H 
ATOM     19  C   UNL A   1      43.290  28.706  26.448  1.00  0.00    -0.058 A 
ATOM     20  H   UNL A   1      42.402  30.573  26.851  1.00  0.00     0.063 H 
ATOM     21  H   UNL A   1      46.560  28.115  26.671  1.00  0.00     0.063 H 
ATOM     22  H   UNL A   1      42.401  28.257  26.178  1.00  0.00     0.063 H 
BRANCH  14  23
ATOM     23  C   UNL A   1      44.462  32.092  27.765  1.00  0.00    -0.017 A 
ATOM     24  C   UNL A   1      43.827  34.449  27.498  1.00  0.00     0.008 A 
ATOM     25  C   UNL A   1      44.432  34.762  28.713  1.00  0.00    -0.049 A 
ATOM     26  C   UNL A   1      43.843  33.126  27.035  1.00  0.00    -0.041 A 
ATOM     27  C   UNL A   1      45.048  33.761  29.458  1.00  0.00    -0.061 A 
ATOM     28  H   UNL A   1      44.422  35.733  29.062  1.00  0.00     0.063 H 
ATOM     29  H   UNL A   1      43.389  32.903  26.135  1.00  0.00     0.064 H 
ATOM     30  C   UNL A   1      45.070  32.446  28.983  1.00  0.00    -0.054 A 
ATOM     31  H   UNL A   1      45.492  33.989  30.362  1.00  0.00     0.062 H 
ATOM     32  H   UNL A   1      45.541  31.717  29.540  1.00  0.00     0.063 H 
BRANCH  24  33
ATOM     33  S   UNL A   1      43.087  35.721  26.489  1.00  0.00    -0.126 SA
BRANCH  33  34
ATOM     34  C   UNL A   1      41.866  36.401  27.660  1.00  0.00    -0.005 C 
ATOM     35  H   UNL A   1      40.888  36.307  27.234  1.00  0.00     0.038 H 
ATOM     36  H   UNL A   1      41.940  35.852  28.574  1.00  0.00     0.038 H 
BRANCH  34  37
ATOM     37  C   UNL A   1      42.132  37.865  27.962  1.00  0.00    -0.056 C 
ATOM     38  H   UNL A   1      42.396  38.373  27.059  1.00  0.00     0.024 H 
ATOM     39  H   UNL A   1      42.937  37.944  28.663  1.00  0.00     0.024 H 
ATOM     40  H   UNL A   1      41.252  38.309  28.378  1.00  0.00     0.024 H 
ENDBRANCH  34  37
ENDBRANCH  33  34
ENDBRANCH  24  33
ENDBRANCH  14  23
ENDBRANCH  11  13
BRANCH  11  41
ATOM     41  C   UNL A   1      43.361  26.132  24.947  1.00  0.00    -0.049 C 
ATOM     42  H   UNL A   1      43.744  26.322  23.967  1.00  0.00     0.024 H 
ATOM     43  H   UNL A   1      42.483  26.722  25.108  1.00  0.00     0.024 H 
ATOM     44  H   UNL A   1      43.116  25.094  25.040  1.00  0.00     0.024 H 
ENDBRANCH  11  41
ENDBRANCH   8  11
ENDBRANCH   4   7
ENDBRANCH   1   4
BRANCH   1  45
ATOM     45  C   UNL A   1      44.074  23.312  28.898  1.00  0.00    -0.052 C 
ATOM     46  H   UNL A   1      44.299  24.059  29.631  1.00  0.00     0.027 H 
ATOM     47  H   UNL A   1      44.113  22.313  29.280  1.00  0.00     0.027 H 
BRANCH  45  48
ATOM     48  C   UNL A   1      42.630  23.530  28.427  1.00  0.00    -0.052 C 
ATOM     49  H   UNL A   1      42.629  24.351  27.740  1.00  0.00     0.027 H 
ATOM     50  H   UNL A   1      42.056  23.707  29.312  1.00  0.00     0.027 H 
BRANCH  48  51
ATOM     51  C   UNL A   1      41.972  22.334  27.732  1.00  0.00    -0.036 C 
ATOM     52  H   UNL A   1      41.047  22.128  28.229  1.00  0.00     0.028 H 
ATOM     53  H   UNL A   1      42.674  21.528  27.794  1.00  0.00     0.028 H 
BRANCH  51  54
ATOM     54  C   UNL A   1      41.679  22.533  26.247  1.00  0.00     0.018 C 
ATOM     55  H   UNL A   1      42.153  21.749  25.693  1.00  0.00     0.049 H 
ATOM     56  H   UNL A   1      42.058  23.492  25.961  1.00  0.00     0.049 H 
BRANCH  54  57
ATOM     57  N   UNL A   1      40.253  22.511  25.965  1.00  0.00    -0.352 N 
ATOM     58  C   UNL A   1      39.252  23.336  26.414  1.00  0.00     0.251 C 
ATOM     59  H   UNL A   1      39.959  21.793  25.358  1.00  0.00     0.163 HD
ATOM     60  O   UNL A   1      38.078  23.027  26.240  1.00  0.00    -0.269 OA
BRANCH  58  61
ATOM     61  C   UNL A   1      39.579  24.595  27.118  1.00  0.00     0.039 A 
ATOM     62  C   UNL A   1      39.200  24.735  28.457  1.00  0.00    -0.049 A 
ATOM     63  C   UNL A   1      40.212  25.650  26.457  1.00  0.00    -0.049 A 
ATOM     64  C   UNL A   1      39.505  25.910  29.147  1.00  0.00    -0.053 A 
ATOM     65  H   UNL A   1      38.695  23.971  28.935  1.00  0.00     0.063 H 
ATOM     66  C   UNL A   1      40.571  26.797  27.161  1.00  0.00    -0.053 A 
ATOM     67  H   UNL A   1      40.413  25.579  25.447  1.00  0.00     0.063 H 
ATOM     68  C   UNL A   1      40.218  26.940  28.512  1.00  0.00    -0.014 A 
ATOM     69  H   UNL A   1      39.206  26.023  30.128  1.00  0.00     0.063 H 
ATOM     70  H   UNL A   1      41.098  27.547  26.686  1.00  0.00     0.063 H 
BRANCH  68  71
ATOM     71  C   UNL A   1      40.609  28.168  29.249  1.00  0.00     0.031 A 
ATOM     72  C   UNL A   1      41.988  28.297  29.833  1.00  0.00     0.074 A 
ATOM     73  C   UNL A   1      39.698  29.140  29.448  1.00  0.00     0.049 A 
ATOM     74  N   UNL A   1      42.490  29.261  30.565  1.00  0.00    -0.248 NA
ATOM     75  C   UNL A   1      42.917  27.184  29.587  1.00  0.00    -0.034 C 
ATOM     76  C   UNL A   1      38.313  29.108  28.975  1.00  0.00    -0.036 A 
ATOM     77  N   UNL A   1      39.795  30.336  30.114  1.00  0.00    -0.354 N 
ATOM     78  C   UNL A   1      43.784  28.863  30.877  1.00  0.00     0.074 A 
ATOM     79  C   UNL A   1      43.976  27.552  30.295  1.00  0.00    -0.034 C 
ATOM     80  H   UNL A   1      42.781  26.337  29.012  1.00  0.00     0.065 H 
ATOM     81  C   UNL A   1      37.695  30.238  29.352  1.00  0.00    -0.036 A 
ATOM     82  H   UNL A   1      37.882  28.340  28.437  1.00  0.00     0.065 H 
ATOM     83  C   UNL A   1      38.627  31.058  30.120  1.00  0.00     0.049 A 
ATOM     84  H   UNL A   1      40.623  30.648  30.545  1.00  0.00     0.167 HD
ATOM     85  C   UNL A   1      44.730  29.540  31.570  1.00  0.00     0.037 A 
ATOM     86  H   UNL A   1      44.825  26.980  30.416  1.00  0.00     0.065 H 
ATOM     87  H   UNL A   1      36.717  30.487  29.133  1.00  0.00     0.065 H 
ATOM     88  C   UNL A   1      38.338  32.246  30.686  1.00  0.00     0.037 A 
ATOM     89  C   UNL A   1      44.547  30.858  32.119  1.00  0.00     0.049 A 
ATOM     90  C   UNL A   1      39.413  32.982  31.438  1.00  0.00     0.074 A 
ATOM     91  C   UNL A   1      45.469  31.657  32.774  1.00  0.00    -0.036 A 
ATOM     92  N   UNL A   1      43.359  31.571  32.080  1.00  0.00    -0.354 N 
ATOM     93  N   UNL A   1      40.655  32.628  31.664  1.00  0.00    -0.248 NA
ATOM     94  C   UNL A   1      39.047  34.287  32.006  1.00  0.00    -0.034 C 
ATOM     95  C   UNL A   1      44.827  32.835  33.168  1.00  0.00    -0.036 A 
ATOM     96  H   UNL A   1      46.460  31.422  32.942  1.00  0.00     0.065 H 
ATOM     97  C   UNL A   1      43.518  32.792  32.717  1.00  0.00     0.049 A 
ATOM     98  H   UNL A   1      42.524  31.257  31.661  1.00  0.00     0.167 HD
ATOM     99  C   UNL A   1      41.225  33.674  32.376  1.00  0.00     0.074 A 
ATOM    100  C   UNL A   1      40.199  34.683  32.532  1.00  0.00    -0.034 C 
ATOM    101  H   UNL A   1      38.136  34.769  31.998  1.00  0.00     0.065 H 
ATOM    102  H   UNL A   1      45.256  33.607  33.701  1.00  0.00     0.065 H 
ATOM    103  C   UNL A   1      42.486  33.787  32.859  1.00  0.00     0.037 A 
ATOM    104  H   UNL A   1      40.343  35.594  32.994  1.00  0.00     0.065 H 
BRANCH  85 105
ATOM    105  C   UNL A   1      46.059  28.870  31.772  1.00  0.00     0.064 A 
ATOM    106  C   UNL A   1      47.161  29.162  30.955  1.00  0.00     0.173 A 
ATOM    107  C   UNL A   1      46.244  27.961  32.824  1.00  0.00     0.173 A 
ATOM    108  F   UNL A   1      47.033  30.017  29.929  1.00  0.00    -0.203 F 
ATOM    109  C   UNL A   1      48.393  28.550  31.168  1.00  0.00     0.198 A 
ATOM    110  C   UNL A   1      47.485  27.372  33.051  1.00  0.00     0.198 A 
ATOM    111  F   UNL A   1      45.224  27.650  33.639  1.00  0.00    -0.203 F 
ATOM    112  F   UNL A   1      49.420  28.811  30.348  1.00  0.00    -0.200 F 
ATOM    113  C   UNL A   1      48.557  27.661  32.221  1.00  0.00     0.200 A 
ATOM    114  F   UNL A   1      47.644  26.522  34.077  1.00  0.00    -0.200 F 
ATOM    115  F   UNL A   1      49.746  27.080  32.430  1.00  0.00    -0.200 F 
ENDBRANCH  85 105
BRANCH  88 116
ATOM    116  C   UNL A   1      36.975  32.821  30.546  1.00  0.00     0.064 A 
ATOM    117  C   UNL A   1      36.621  33.561  29.409  1.00  0.00     0.173 A 
ATOM    118  C   UNL A   1      36.003  32.645  31.540  1.00  0.00     0.173 A 
ATOM    119  F   UNL A   1      37.525  33.772  28.441  1.00  0.00    -0.203 F 
ATOM    120  C   UNL A   1      35.351  34.120  29.282  1.00  0.00     0.198 A 
ATOM    121  C   UNL A   1      34.725  33.181  31.399  1.00  0.00     0.198 A 
ATOM    122  F   UNL A   1      36.290  31.940  32.645  1.00  0.00    -0.203 F 
ATOM    123  F   UNL A   1      35.053  34.859  28.205  1.00  0.00    -0.200 F 
ATOM    124  C   UNL A   1      34.403  33.925  30.274  1.00  0.00     0.200 A 
ATOM    125  F   UNL A   1      33.806  32.980  32.354  1.00  0.00    -0.200 F 
ATOM    126  F   UNL A   1      33.181  34.459  30.149  1.00  0.00    -0.200 F 
ENDBRANCH  88 116
BRANCH 103 127
ATOM    127  C   UNL A   1      42.834  35.058  33.577  1.00  0.00     0.064 A 
ATOM    128  C   UNL A   1      43.273  36.196  32.886  1.00  0.00     0.173 A 
ATOM    129  C   UNL A   1      42.689  35.148  34.970  1.00  0.00     0.173 A 
ATOM    130  F   UNL A   1      43.441  36.155  31.555  1.00  0.00    -0.203 F 
ATOM    131  C   UNL A   1      43.577  37.372  33.566  1.00  0.00     0.198 A 
ATOM    132  C   UNL A   1      42.969  36.333  35.643  1.00  0.00     0.198 A 
ATOM    133  F   UNL A   1      42.267  34.088  35.676  1.00  0.00    -0.203 F 
ATOM    134  F   UNL A   1      44.038  38.434  32.891  1.00  0.00    -0.200 F 
ATOM    135  C   UNL A   1      43.419  37.441  34.943  1.00  0.00     0.200 A 
ATOM    136  F   UNL A   1      42.803  36.403  36.971  1.00  0.00    -0.200 F 
ATOM    137  F   UNL A   1      43.707  38.577  35.595  1.00  0.00    -0.200 F 
ENDBRANCH 103 127
ENDBRANCH  68  71
ENDBRANCH  58  61
ENDBRANCH  54  57
ENDBRANCH  51  54
ENDBRANCH  48  51
ENDBRANCH  45  48
ENDBRANCH   1  45
TORSDOF 19
ENDMDL
MODEL 8
REMARK VINA RESULT:     -10.8      2.787      8.395
REMARK SMILES CCSc1cccc(-c2ccc([C@@H](C)C(=O)NCCCCCCNC(=O)c3ccc(-c4c5nc(c(-c6c(F)c(F)c(F)c(F)c6F)c6ccc([nH]6)c(-c6c(F)c(F)c(F)c(F)c6F)c6nc(c(-c7c(F)c(F)c(F)c(F)c7F)c7ccc4[nH]7)C=C6)C=C5)cc3)cc2)c1
REMARK SMILES IDX 19 1 18 4 17 7 15 8 16 9 13 11 12 13 9 14 10 15 91 16 11 17
REMARK SMILES IDX 90 19 8 23 4 24 5 25 92 26 6 27 7 30 3 33 2 34 1 37 14 41
REMARK SMILES IDX 20 45 21 48 22 51 23 54 24 57 25 58 26 60 27 61 28 62 89 63
REMARK SMILES IDX 29 64 88 66 30 68 31 71 32 72 82 73 33 74 87 75 81 76 83 77
REMARK SMILES IDX 34 78 86 79 80 81 79 83 35 85 67 88 47 89 66 90 48 91 51 92
REMARK SMILES IDX 65 93 84 94 49 95 50 97 64 99 85 100 52 103 36 105 37 106
REMARK SMILES IDX 45 107 38 108 39 109 43 110 46 111 40 112 41 113 44 114
REMARK SMILES IDX 42 115 68 116 69 117 77 118 70 119 71 120 75 121 78 122
REMARK SMILES IDX 72 123 73 124 76 125 74 126 53 127 54 128 62 129 55 130
REMARK SMILES IDX 56 131 60 132 63 133 57 134 58 135 61 136 59 137
REMARK H PARENT 19 2 19 3 18 5 18 6 17 10 13 12 10 18 91 20 11 21 90 22 5 28
REMARK H PARENT 92 29 6 31 7 32 2 35 2 36 1 38 1 39 1 40 14 42 14 43 14 44
REMARK H PARENT 20 46 20 47 21 49 21 50 22 52 22 53 23 55 23 56 24 59 28 65
REMARK H PARENT 89 67 29 69 88 70 87 80 81 82 83 84 86 86 80 87 48 96 51 98
REMARK H PARENT 84 101 49 102 85 104
REMARK Flexibility Score: inf
ROOT
ATOM      1  C   UNL A   1      34.797  31.242  28.009  1.00  0.00    -0.036 C 
ATOM      2  H   UNL A   1      35.764  30.867  27.747  1.00  0.00     0.028 H 
ATOM      3  H   UNL A   1      34.488  30.934  28.986  1.00  0.00     0.028 H 
ENDROOT
BRANCH   1   4
ATOM      4  C   UNL A   1      33.777  30.675  27.020  1.00  0.00     0.017 C 
ATOM      5  H   UNL A   1      33.231  31.485  26.584  1.00  0.00     0.049 H 
ATOM      6  H   UNL A   1      34.310  30.125  26.273  1.00  0.00     0.049 H 
BRANCH   4   7
ATOM      7  N   UNL A   1      32.847  29.774  27.665  1.00  0.00    -0.356 N 
ATOM      8  C   UNL A   1      32.110  28.739  27.177  1.00  0.00     0.227 C 
ATOM      9  O   UNL A   1      31.322  28.206  27.967  1.00  0.00    -0.274 OA
ATOM     10  H   UNL A   1      32.725  29.939  28.628  1.00  0.00     0.163 HD
BRANCH   8  11
ATOM     11  C   UNL A   1      32.226  28.213  25.739  1.00  0.00     0.060 C 
ATOM     12  H   UNL A   1      33.028  28.764  25.293  1.00  0.00     0.045 H 
BRANCH  11  13
ATOM     13  C   UNL A   1      32.712  26.774  25.653  1.00  0.00    -0.036 A 
ATOM     14  C   UNL A   1      33.512  24.038  25.370  1.00  0.00    -0.018 A 
ATOM     15  C   UNL A   1      34.442  25.088  25.341  1.00  0.00    -0.054 A 
ATOM     16  C   UNL A   1      32.169  24.394  25.577  1.00  0.00    -0.054 A 
ATOM     17  C   UNL A   1      34.056  26.425  25.510  1.00  0.00    -0.058 A 
ATOM     18  H   UNL A   1      35.440  24.870  25.191  1.00  0.00     0.063 H 
ATOM     19  C   UNL A   1      31.774  25.734  25.693  1.00  0.00    -0.058 A 
ATOM     20  H   UNL A   1      31.457  23.652  25.643  1.00  0.00     0.063 H 
ATOM     21  H   UNL A   1      34.777  27.162  25.529  1.00  0.00     0.063 H 
ATOM     22  H   UNL A   1      30.773  25.958  25.813  1.00  0.00     0.063 H 
BRANCH  14  23
ATOM     23  C   UNL A   1      33.931  22.626  25.183  1.00  0.00    -0.017 A 
ATOM     24  C   UNL A   1      35.696  20.929  24.991  1.00  0.00     0.008 A 
ATOM     25  C   UNL A   1      34.735  19.929  24.853  1.00  0.00    -0.049 A 
ATOM     26  C   UNL A   1      35.292  22.261  25.157  1.00  0.00    -0.041 A 
ATOM     27  C   UNL A   1      33.383  20.259  24.878  1.00  0.00    -0.061 A 
ATOM     28  H   UNL A   1      35.025  18.946  24.733  1.00  0.00     0.063 H 
ATOM     29  H   UNL A   1      36.010  22.994  25.262  1.00  0.00     0.064 H 
ATOM     30  C   UNL A   1      32.990  21.592  25.032  1.00  0.00    -0.054 A 
ATOM     31  H   UNL A   1      32.670  19.519  24.782  1.00  0.00     0.062 H 
ATOM     32  H   UNL A   1      31.984  21.823  25.036  1.00  0.00     0.063 H 
BRANCH  24  33
ATOM     33  S   UNL A   1      37.436  20.547  24.896  1.00  0.00    -0.126 SA
BRANCH  33  34
ATOM     34  C   UNL A   1      38.138  21.999  25.746  1.00  0.00    -0.005 C 
ATOM     35  H   UNL A   1      38.112  22.836  25.080  1.00  0.00     0.038 H 
ATOM     36  H   UNL A   1      37.554  22.187  26.622  1.00  0.00     0.038 H 
BRANCH  34  37
ATOM     37  C   UNL A   1      39.574  21.757  26.177  1.00  0.00    -0.056 C 
ATOM     38  H   UNL A   1      39.606  20.947  26.874  1.00  0.00     0.024 H 
ATOM     39  H   UNL A   1      39.961  22.641  26.641  1.00  0.00     0.024 H 
ATOM     40  H   UNL A   1      40.167  21.515  25.321  1.00  0.00     0.024 H 
ENDBRANCH  34  37
ENDBRANCH  33  34
ENDBRANCH  24  33
ENDBRANCH  14  23
ENDBRANCH  11  13
BRANCH  11  41
ATOM     41  C   UNL A   1      31.040  28.578  24.844  1.00  0.00    -0.049 C 
ATOM     42  H   UNL A   1      30.957  27.863  24.053  1.00  0.00     0.024 H 
ATOM     43  H   UNL A   1      31.193  29.553  24.429  1.00  0.00     0.024 H 
ATOM     44  H   UNL A   1      30.141  28.575  25.425  1.00  0.00     0.024 H 
ENDBRANCH  11  41
ENDBRANCH   8  11
ENDBRANCH   4   7
ENDBRANCH   1   4
BRANCH   1  45
ATOM     45  C   UNL A   1      34.862  32.773  28.026  1.00  0.00    -0.052 C 
ATOM     46  H   UNL A   1      34.407  33.135  27.128  1.00  0.00     0.027 H 
ATOM     47  H   UNL A   1      35.900  33.025  28.110  1.00  0.00     0.027 H 
BRANCH  45  48
ATOM     48  C   UNL A   1      34.164  33.446  29.215  1.00  0.00    -0.052 C 
ATOM     49  H   UNL A   1      34.915  33.920  29.812  1.00  0.00     0.027 H 
ATOM     50  H   UNL A   1      33.636  32.666  29.724  1.00  0.00     0.027 H 
BRANCH  48  51
ATOM     51  C   UNL A   1      33.112  34.500  28.857  1.00  0.00    -0.036 C 
ATOM     52  H   UNL A   1      32.166  34.166  29.230  1.00  0.00     0.028 H 
ATOM     53  H   UNL A   1      33.136  34.597  27.791  1.00  0.00     0.028 H 
BRANCH  51  54
ATOM     54  C   UNL A   1      33.380  35.894  29.419  1.00  0.00     0.018 C 
ATOM     55  H   UNL A   1      33.162  36.619  28.663  1.00  0.00     0.049 H 
ATOM     56  H   UNL A   1      34.407  35.939  29.714  1.00  0.00     0.049 H 
BRANCH  54  57
ATOM     57  N   UNL A   1      32.563  36.176  30.588  1.00  0.00    -0.352 N 
ATOM     58  C   UNL A   1      32.680  35.717  31.877  1.00  0.00     0.251 C 
ATOM     59  H   UNL A   1      31.810  36.790  30.432  1.00  0.00     0.163 HD
ATOM     60  O   UNL A   1      31.766  35.895  32.676  1.00  0.00    -0.269 OA
BRANCH  58  61
ATOM     61  C   UNL A   1      33.898  34.999  32.309  1.00  0.00     0.039 A 
ATOM     62  C   UNL A   1      33.767  33.719  32.856  1.00  0.00    -0.049 A 
ATOM     63  C   UNL A   1      35.158  35.596  32.221  1.00  0.00    -0.049 A 
ATOM     64  C   UNL A   1      34.903  33.016  33.263  1.00  0.00    -0.053 A 
ATOM     65  H   UNL A   1      32.831  33.294  32.959  1.00  0.00     0.063 H 
ATOM     66  C   UNL A   1      36.297  34.872  32.570  1.00  0.00    -0.053 A 
ATOM     67  H   UNL A   1      35.246  36.572  31.899  1.00  0.00     0.063 H 
ATOM     68  C   UNL A   1      36.180  33.577  33.097  1.00  0.00    -0.014 A 
ATOM     69  H   UNL A   1      34.804  32.081  33.687  1.00  0.00     0.063 H 
ATOM     70  H   UNL A   1      37.231  35.291  32.440  1.00  0.00     0.063 H 
BRANCH  68  71
ATOM     71  C   UNL A   1      37.402  32.818  33.462  1.00  0.00     0.031 A 
ATOM     72  C   UNL A   1      38.135  33.125  34.738  1.00  0.00     0.074 A 
ATOM     73  C   UNL A   1      37.890  31.895  32.610  1.00  0.00     0.049 A 
ATOM     74  N   UNL A   1      39.254  32.619  35.193  1.00  0.00    -0.248 NA
ATOM     75  C   UNL A   1      37.548  34.160  35.604  1.00  0.00    -0.034 C 
ATOM     76  C   UNL A   1      37.297  31.544  31.319  1.00  0.00    -0.036 A 
ATOM     77  N   UNL A   1      39.002  31.096  32.695  1.00  0.00    -0.354 N 
ATOM     78  C   UNL A   1      39.511  33.281  36.386  1.00  0.00     0.074 A 
ATOM     79  C   UNL A   1      38.458  34.257  36.564  1.00  0.00    -0.034 C 
ATOM     80  H   UNL A   1      36.661  34.674  35.494  1.00  0.00     0.065 H 
ATOM     81  C   UNL A   1      38.043  30.589  30.739  1.00  0.00    -0.036 A 
ATOM     82  H   UNL A   1      36.443  31.961  30.918  1.00  0.00     0.065 H 
ATOM     83  C   UNL A   1      39.182  30.285  31.600  1.00  0.00     0.049 A 
ATOM     84  H   UNL A   1      39.613  31.101  33.467  1.00  0.00     0.167 HD
ATOM     85  C   UNL A   1      40.523  33.078  37.263  1.00  0.00     0.037 A 
ATOM     86  H   UNL A   1      38.420  34.940  37.336  1.00  0.00     0.065 H 
ATOM     87  H   UNL A   1      37.842  30.142  29.830  1.00  0.00     0.065 H 
ATOM     88  C   UNL A   1      40.158  29.401  31.320  1.00  0.00     0.037 A 
ATOM     89  C   UNL A   1      41.552  32.084  37.099  1.00  0.00     0.049 A 
ATOM     90  C   UNL A   1      41.263  29.186  32.318  1.00  0.00     0.074 A 
ATOM     91  C   UNL A   1      42.578  31.752  37.967  1.00  0.00    -0.036 A 
ATOM     92  N   UNL A   1      41.684  31.261  35.992  1.00  0.00    -0.354 N 
ATOM     93  N   UNL A   1      41.455  29.767  33.478  1.00  0.00    -0.248 NA
ATOM     94  C   UNL A   1      42.282  28.185  31.971  1.00  0.00    -0.034 C 
ATOM     95  C   UNL A   1      43.356  30.758  37.366  1.00  0.00    -0.036 A 
ATOM     96  H   UNL A   1      42.741  32.167  38.898  1.00  0.00     0.065 H 
ATOM     97  C   UNL A   1      42.788  30.436  36.144  1.00  0.00     0.049 A 
ATOM     98  H   UNL A   1      41.083  31.261  35.211  1.00  0.00     0.167 HD
ATOM     99  C   UNL A   1      42.598  29.187  34.010  1.00  0.00     0.074 A 
ATOM    100  C   UNL A   1      43.049  28.197  33.054  1.00  0.00    -0.034 C 
ATOM    101  H   UNL A   1      42.376  27.622  31.113  1.00  0.00     0.065 H 
ATOM    102  H   UNL A   1      44.208  30.334  37.765  1.00  0.00     0.065 H 
ATOM    103  C   UNL A   1      43.220  29.452  35.184  1.00  0.00     0.037 A 
ATOM    104  H   UNL A   1      43.863  27.580  33.195  1.00  0.00     0.065 H 
BRANCH  85 105
ATOM    105  C   UNL A   1      40.571  33.947  38.487  1.00  0.00     0.064 A 
ATOM    106  C   UNL A   1      41.307  35.141  38.511  1.00  0.00     0.173 A 
ATOM    107  C   UNL A   1      39.835  33.605  39.631  1.00  0.00     0.173 A 
ATOM    108  F   UNL A   1      42.036  35.507  37.447  1.00  0.00    -0.203 F 
ATOM    109  C   UNL A   1      41.324  35.948  39.646  1.00  0.00     0.198 A 
ATOM    110  C   UNL A   1      39.832  34.429  40.753  1.00  0.00     0.198 A 
ATOM    111  F   UNL A   1      39.110  32.477  39.658  1.00  0.00    -0.203 F 
ATOM    112  F   UNL A   1      42.068  37.062  39.663  1.00  0.00    -0.200 F 
ATOM    113  C   UNL A   1      40.580  35.596  40.763  1.00  0.00     0.200 A 
ATOM    114  F   UNL A   1      39.103  34.093  41.828  1.00  0.00    -0.200 F 
ATOM    115  F   UNL A   1      40.591  36.379  41.850  1.00  0.00    -0.200 F 
ENDBRANCH  85 105
BRANCH  88 116
ATOM    116  C   UNL A   1      40.123  28.638  30.046  1.00  0.00     0.064 A 
ATOM    117  C   UNL A   1      40.701  29.159  28.880  1.00  0.00     0.173 A 
ATOM    118  C   UNL A   1      39.514  27.378  29.967  1.00  0.00     0.173 A 
ATOM    119  F   UNL A   1      41.278  30.369  28.903  1.00  0.00    -0.203 F 
ATOM    120  C   UNL A   1      40.653  28.456  27.678  1.00  0.00     0.198 A 
ATOM    121  C   UNL A   1      39.490  26.664  28.771  1.00  0.00     0.198 A 
ATOM    122  F   UNL A   1      38.951  26.834  31.056  1.00  0.00    -0.203 F 
ATOM    123  F   UNL A   1      41.175  28.996  26.568  1.00  0.00    -0.200 F 
ATOM    124  C   UNL A   1      40.052  27.207  27.625  1.00  0.00     0.200 A 
ATOM    125  F   UNL A   1      38.920  25.452  28.727  1.00  0.00    -0.200 F 
ATOM    126  F   UNL A   1      40.010  26.531  26.470  1.00  0.00    -0.200 F 
ENDBRANCH  88 116
BRANCH 103 127
ATOM    127  C   UNL A   1      44.438  28.641  35.514  1.00  0.00     0.064 A 
ATOM    128  C   UNL A   1      45.722  29.058  35.136  1.00  0.00     0.173 A 
ATOM    129  C   UNL A   1      44.321  27.452  36.250  1.00  0.00     0.173 A 
ATOM    130  F   UNL A   1      45.884  30.180  34.418  1.00  0.00    -0.203 F 
ATOM    131  C   UNL A   1      46.844  28.301  35.463  1.00  0.00     0.198 A 
ATOM    132  C   UNL A   1      45.447  26.712  36.598  1.00  0.00     0.198 A 
ATOM    133  F   UNL A   1      43.115  27.014  36.640  1.00  0.00    -0.203 F 
ATOM    134  F   UNL A   1      48.058  28.694  35.053  1.00  0.00    -0.200 F 
ATOM    135  C   UNL A   1      46.706  27.133  36.199  1.00  0.00     0.200 A 
ATOM    136  F   UNL A   1      45.314  25.591  37.320  1.00  0.00    -0.200 F 
ATOM    137  F   UNL A   1      47.789  26.408  36.517  1.00  0.00    -0.200 F 
ENDBRANCH 103 127
ENDBRANCH  68  71
ENDBRANCH  58  61
ENDBRANCH  54  57
ENDBRANCH  51  54
ENDBRANCH  48  51
ENDBRANCH  45  48
ENDBRANCH   1  45
TORSDOF 19
ENDMDL
MODEL 9
REMARK VINA RESULT:     -10.8      2.146      3.199
REMARK SMILES CCSc1cccc(-c2ccc([C@@H](C)C(=O)NCCCCCCNC(=O)c3ccc(-c4c5nc(c(-c6c(F)c(F)c(F)c(F)c6F)c6ccc([nH]6)c(-c6c(F)c(F)c(F)c(F)c6F)c6nc(c(-c7c(F)c(F)c(F)c(F)c7F)c7ccc4[nH]7)C=C6)C=C5)cc3)cc2)c1
REMARK SMILES IDX 19 1 18 4 17 7 15 8 16 9 13 11 12 13 9 14 10 15 91 16 11 17
REMARK SMILES IDX 90 19 8 23 4 24 5 25 92 26 6 27 7 30 3 33 2 34 1 37 14 41
REMARK SMILES IDX 20 45 21 48 22 51 23 54 24 57 25 58 26 60 27 61 28 62 89 63
REMARK SMILES IDX 29 64 88 66 30 68 31 71 32 72 82 73 33 74 87 75 81 76 83 77
REMARK SMILES IDX 34 78 86 79 80 81 79 83 35 85 67 88 47 89 66 90 48 91 51 92
REMARK SMILES IDX 65 93 84 94 49 95 50 97 64 99 85 100 52 103 36 105 37 106
REMARK SMILES IDX 45 107 38 108 39 109 43 110 46 111 40 112 41 113 44 114
REMARK SMILES IDX 42 115 68 116 69 117 77 118 70 119 71 120 75 121 78 122
REMARK SMILES IDX 72 123 73 124 76 125 74 126 53 127 54 128 62 129 55 130
REMARK SMILES IDX 56 131 60 132 63 133 57 134 58 135 61 136 59 137
REMARK H PARENT 19 2 19 3 18 5 18 6 17 10 13 12 10 18 91 20 11 21 90 22 5 28
REMARK H PARENT 92 29 6 31 7 32 2 35 2 36 1 38 1 39 1 40 14 42 14 43 14 44
REMARK H PARENT 20 46 20 47 21 49 21 50 22 52 22 53 23 55 23 56 24 59 28 65
REMARK H PARENT 89 67 29 69 88 70 87 80 81 82 83 84 86 86 80 87 48 96 51 98
REMARK H PARENT 84 101 49 102 85 104
REMARK Flexibility Score: inf
ROOT
ATOM      1  C   UNL A   1      33.374  29.436  27.204  1.00  0.00    -0.036 C 
ATOM      2  H   UNL A   1      33.899  30.323  26.917  1.00  0.00     0.028 H 
ATOM      3  H   UNL A   1      33.484  29.211  28.244  1.00  0.00     0.028 H 
ENDROOT
BRANCH   1   4
ATOM      4  C   UNL A   1      33.964  28.256  26.430  1.00  0.00     0.017 C 
ATOM      5  H   UNL A   1      35.029  28.276  26.527  1.00  0.00     0.049 H 
ATOM      6  H   UNL A   1      33.558  27.353  26.839  1.00  0.00     0.049 H 
BRANCH   4   7
ATOM      7  N   UNL A   1      33.619  28.307  25.026  1.00  0.00    -0.356 N 
ATOM      8  C   UNL A   1      33.036  27.390  24.206  1.00  0.00     0.227 C 
ATOM      9  O   UNL A   1      32.954  27.696  23.011  1.00  0.00    -0.274 OA
ATOM     10  H   UNL A   1      33.847  29.157  24.584  1.00  0.00     0.163 HD
BRANCH   8  11
ATOM     11  C   UNL A   1      32.480  26.044  24.693  1.00  0.00     0.060 C 
ATOM     12  H   UNL A   1      31.877  25.672  23.890  1.00  0.00     0.045 H 
BRANCH  11  13
ATOM     13  C   UNL A   1      33.542  24.966  24.850  1.00  0.00    -0.036 A 
ATOM     14  C   UNL A   1      35.648  23.036  25.063  1.00  0.00    -0.018 A 
ATOM     15  C   UNL A   1      34.912  23.455  26.182  1.00  0.00    -0.054 A 
ATOM     16  C   UNL A   1      35.278  23.587  23.825  1.00  0.00    -0.054 A 
ATOM     17  C   UNL A   1      33.862  24.376  26.075  1.00  0.00    -0.058 A 
ATOM     18  H   UNL A   1      35.152  23.074  27.111  1.00  0.00     0.063 H 
ATOM     19  C   UNL A   1      34.263  24.549  23.723  1.00  0.00    -0.058 A 
ATOM     20  H   UNL A   1      35.766  23.279  22.971  1.00  0.00     0.063 H 
ATOM     21  H   UNL A   1      33.315  24.622  26.915  1.00  0.00     0.063 H 
ATOM     22  H   UNL A   1      34.040  24.954  22.801  1.00  0.00     0.063 H 
BRANCH  14  23
ATOM     23  C   UNL A   1      36.763  22.065  25.189  1.00  0.00    -0.017 A 
ATOM     24  C   UNL A   1      39.076  21.537  25.826  1.00  0.00     0.008 A 
ATOM     25  C   UNL A   1      38.887  20.208  25.454  1.00  0.00    -0.049 A 
ATOM     26  C   UNL A   1      38.021  22.451  25.695  1.00  0.00    -0.041 A 
ATOM     27  C   UNL A   1      37.656  19.796  24.954  1.00  0.00    -0.061 A 
ATOM     28  H   UNL A   1      39.659  19.529  25.550  1.00  0.00     0.063 H 
ATOM     29  H   UNL A   1      38.169  23.432  25.976  1.00  0.00     0.064 H 
ATOM     30  C   UNL A   1      36.612  20.717  24.816  1.00  0.00    -0.054 A 
ATOM     31  H   UNL A   1      37.511  18.810  24.684  1.00  0.00     0.062 H 
ATOM     32  H   UNL A   1      35.709  20.400  24.432  1.00  0.00     0.063 H 
BRANCH  24  33
ATOM     33  S   UNL A   1      40.663  22.110  26.407  1.00  0.00    -0.126 SA
BRANCH  33  34
ATOM     34  C   UNL A   1      40.979  20.906  27.740  1.00  0.00    -0.005 C 
ATOM     35  H   UNL A   1      41.440  21.413  28.562  1.00  0.00     0.038 H 
ATOM     36  H   UNL A   1      40.043  20.478  28.030  1.00  0.00     0.038 H 
BRANCH  34  37
ATOM     37  C   UNL A   1      41.891  19.784  27.279  1.00  0.00    -0.056 C 
ATOM     38  H   UNL A   1      42.618  19.581  28.037  1.00  0.00     0.024 H 
ATOM     39  H   UNL A   1      42.389  20.076  26.377  1.00  0.00     0.024 H 
ATOM     40  H   UNL A   1      41.311  18.904  27.097  1.00  0.00     0.024 H 
ENDBRANCH  34  37
ENDBRANCH  33  34
ENDBRANCH  24  33
ENDBRANCH  14  23
ENDBRANCH  11  13
BRANCH  11  41
ATOM     41  C   UNL A   1      31.468  26.164  25.833  1.00  0.00    -0.049 C 
ATOM     42  H   UNL A   1      31.496  27.155  26.234  1.00  0.00     0.024 H 
ATOM     43  H   UNL A   1      31.712  25.461  26.603  1.00  0.00     0.024 H 
ATOM     44  H   UNL A   1      30.486  25.957  25.461  1.00  0.00     0.024 H 
ENDBRANCH  11  41
ENDBRANCH   8  11
ENDBRANCH   4   7
ENDBRANCH   1   4
BRANCH   1  45
ATOM     45  C   UNL A   1      31.878  29.658  26.954  1.00  0.00    -0.052 C 
ATOM     46  H   UNL A   1      31.396  29.771  27.903  1.00  0.00     0.027 H 
ATOM     47  H   UNL A   1      31.540  28.805  26.402  1.00  0.00     0.027 H 
BRANCH  45  48
ATOM     48  C   UNL A   1      31.533  30.883  26.098  1.00  0.00    -0.052 C 
ATOM     49  H   UNL A   1      30.606  30.685  25.600  1.00  0.00     0.027 H 
ATOM     50  H   UNL A   1      32.360  31.019  25.434  1.00  0.00     0.027 H 
BRANCH  48  51
ATOM     51  C   UNL A   1      31.385  32.204  26.860  1.00  0.00    -0.036 C 
ATOM     52  H   UNL A   1      30.938  31.992  27.809  1.00  0.00     0.028 H 
ATOM     53  H   UNL A   1      30.786  32.841  26.242  1.00  0.00     0.028 H 
BRANCH  51  54
ATOM     54  C   UNL A   1      32.692  32.954  27.107  1.00  0.00     0.018 C 
ATOM     55  H   UNL A   1      33.238  33.009  26.188  1.00  0.00     0.049 H 
ATOM     56  H   UNL A   1      33.243  32.420  27.853  1.00  0.00     0.049 H 
BRANCH  54  57
ATOM     57  N   UNL A   1      32.462  34.303  27.598  1.00  0.00    -0.352 N 
ATOM     58  C   UNL A   1      33.015  34.958  28.670  1.00  0.00     0.251 C 
ATOM     59  H   UNL A   1      31.808  34.828  27.082  1.00  0.00     0.163 HD
ATOM     60  O   UNL A   1      32.534  36.018  29.056  1.00  0.00    -0.269 OA
BRANCH  58  61
ATOM     61  C   UNL A   1      34.184  34.388  29.374  1.00  0.00     0.039 A 
ATOM     62  C   UNL A   1      33.974  33.656  30.546  1.00  0.00    -0.049 A 
ATOM     63  C   UNL A   1      35.484  34.610  28.912  1.00  0.00    -0.049 A 
ATOM     64  C   UNL A   1      35.061  33.100  31.224  1.00  0.00    -0.053 A 
ATOM     65  H   UNL A   1      33.016  33.527  30.911  1.00  0.00     0.063 H 
ATOM     66  C   UNL A   1      36.563  34.005  29.552  1.00  0.00    -0.053 A 
ATOM     67  H   UNL A   1      35.645  35.222  28.096  1.00  0.00     0.063 H 
ATOM     68  C   UNL A   1      36.363  33.247  30.716  1.00  0.00    -0.014 A 
ATOM     69  H   UNL A   1      34.908  32.580  32.102  1.00  0.00     0.063 H 
ATOM     70  H   UNL A   1      37.515  34.115  29.169  1.00  0.00     0.063 H 
BRANCH  68  71
ATOM     71  C   UNL A   1      37.522  32.607  31.387  1.00  0.00     0.031 A 
ATOM     72  C   UNL A   1      38.236  31.456  30.736  1.00  0.00     0.074 A 
ATOM     73  C   UNL A   1      37.890  33.022  32.615  1.00  0.00     0.049 A 
ATOM     74  N   UNL A   1      39.223  30.727  31.196  1.00  0.00    -0.248 NA
ATOM     75  C   UNL A   1      37.761  31.051  29.404  1.00  0.00    -0.034 C 
ATOM     76  C   UNL A   1      37.243  34.095  33.371  1.00  0.00    -0.036 A 
ATOM     77  N   UNL A   1      38.887  32.581  33.448  1.00  0.00    -0.354 N 
ATOM     78  C   UNL A   1      39.475  29.772  30.219  1.00  0.00     0.074 A 
ATOM     79  C   UNL A   1      38.510  29.984  29.161  1.00  0.00    -0.034 C 
ATOM     80  H   UNL A   1      37.035  31.485  28.812  1.00  0.00     0.065 H 
ATOM     81  C   UNL A   1      37.869  34.239  34.550  1.00  0.00    -0.036 A 
ATOM     82  H   UNL A   1      36.436  34.652  33.050  1.00  0.00     0.065 H 
ATOM     83  C   UNL A   1      38.937  33.249  34.647  1.00  0.00     0.049 A 
ATOM     84  H   UNL A   1      39.508  31.855  33.210  1.00  0.00     0.167 HD
ATOM     85  C   UNL A   1      40.436  28.819  30.199  1.00  0.00     0.037 A 
ATOM     86  H   UNL A   1      38.416  29.383  28.328  1.00  0.00     0.065 H 
ATOM     87  H   UNL A   1      37.632  34.938  35.273  1.00  0.00     0.065 H 
ATOM     88  C   UNL A   1      39.750  33.079  35.708  1.00  0.00     0.037 A 
ATOM     89  C   UNL A   1      41.415  28.632  31.238  1.00  0.00     0.049 A 
ATOM     90  C   UNL A   1      40.819  32.022  35.652  1.00  0.00     0.074 A 
ATOM     91  C   UNL A   1      42.475  27.741  31.275  1.00  0.00    -0.036 A 
ATOM     92  N   UNL A   1      41.454  29.348  32.424  1.00  0.00    -0.354 N 
ATOM     93  N   UNL A   1      41.094  31.173  34.692  1.00  0.00    -0.248 NA
ATOM     94  C   UNL A   1      41.696  31.905  36.826  1.00  0.00    -0.034 C 
ATOM     95  C   UNL A   1      43.129  27.890  32.503  1.00  0.00    -0.036 A 
ATOM     96  H   UNL A   1      42.738  27.082  30.526  1.00  0.00     0.065 H 
ATOM     97  C   UNL A   1      42.506  28.905  33.211  1.00  0.00     0.049 A 
ATOM     98  H   UNL A   1      40.827  30.065  32.672  1.00  0.00     0.167 HD
ATOM     99  C   UNL A   1      42.187  30.440  35.131  1.00  0.00     0.074 A 
ATOM    100  C   UNL A   1      42.536  30.954  36.440  1.00  0.00    -0.034 C 
ATOM    101  H   UNL A   1      41.666  32.425  37.715  1.00  0.00     0.065 H 
ATOM    102  H   UNL A   1      43.939  27.339  32.826  1.00  0.00     0.065 H 
ATOM    103  C   UNL A   1      42.842  29.431  34.508  1.00  0.00     0.037 A 
ATOM    104  H   UNL A   1      43.335  30.623  37.001  1.00  0.00     0.065 H 
BRANCH  85 105
ATOM    105  C   UNL A   1      40.484  27.901  29.011  1.00  0.00     0.064 A 
ATOM    106  C   UNL A   1      39.708  26.734  28.953  1.00  0.00     0.173 A 
ATOM    107  C   UNL A   1      41.279  28.218  27.899  1.00  0.00     0.173 A 
ATOM    108  F   UNL A   1      38.939  26.382  29.994  1.00  0.00    -0.203 F 
ATOM    109  C   UNL A   1      39.745  25.904  27.836  1.00  0.00     0.198 A 
ATOM    110  C   UNL A   1      41.292  27.399  26.772  1.00  0.00     0.198 A 
ATOM    111  F   UNL A   1      42.036  29.325  27.901  1.00  0.00    -0.203 F 
ATOM    112  F   UNL A   1      39.029  24.772  27.820  1.00  0.00    -0.200 F 
ATOM    113  C   UNL A   1      40.531  26.241  26.743  1.00  0.00     0.200 A 
ATOM    114  F   UNL A   1      42.043  27.733  25.712  1.00  0.00    -0.200 F 
ATOM    115  F   UNL A   1      40.559  25.446  25.665  1.00  0.00    -0.200 F 
ENDBRANCH  85 105
BRANCH  88 116
ATOM    116  C   UNL A   1      39.597  33.946  36.904  1.00  0.00     0.064 A 
ATOM    117  C   UNL A   1      40.227  35.196  36.971  1.00  0.00     0.173 A 
ATOM    118  C   UNL A   1      38.822  33.544  38.001  1.00  0.00     0.173 A 
ATOM    119  F   UNL A   1      40.994  35.614  35.954  1.00  0.00    -0.203 F 
ATOM    120  C   UNL A   1      40.103  36.004  38.100  1.00  0.00     0.198 A 
ATOM    121  C   UNL A   1      38.676  34.364  39.118  1.00  0.00     0.198 A 
ATOM    122  F   UNL A   1      38.195  32.359  37.984  1.00  0.00    -0.203 F 
ATOM    123  F   UNL A   1      40.751  37.175  38.156  1.00  0.00    -0.200 F 
ATOM    124  C   UNL A   1      39.324  35.590  39.170  1.00  0.00     0.200 A 
ATOM    125  F   UNL A   1      37.912  33.967  40.145  1.00  0.00    -0.200 F 
ATOM    126  F   UNL A   1      39.202  36.369  40.253  1.00  0.00    -0.200 F 
ENDBRANCH  88 116
BRANCH 103 127
ATOM    127  C   UNL A   1      44.020  28.835  35.221  1.00  0.00     0.064 A 
ATOM    128  C   UNL A   1      43.875  27.756  36.105  1.00  0.00     0.173 A 
ATOM    129  C   UNL A   1      45.314  29.325  34.987  1.00  0.00     0.173 A 
ATOM    130  F   UNL A   1      42.656  27.261  36.372  1.00  0.00    -0.203 F 
ATOM    131  C   UNL A   1      44.980  27.204  36.747  1.00  0.00     0.198 A 
ATOM    132  C   UNL A   1      46.419  28.754  35.611  1.00  0.00     0.198 A 
ATOM    133  F   UNL A   1      45.506  30.352  34.146  1.00  0.00    -0.203 F 
ATOM    134  F   UNL A   1      44.813  26.203  37.622  1.00  0.00    -0.200 F 
ATOM    135  C   UNL A   1      46.251  27.699  36.494  1.00  0.00     0.200 A 
ATOM    136  F   UNL A   1      47.648  29.224  35.356  1.00  0.00    -0.200 F 
ATOM    137  F   UNL A   1      47.315  27.163  37.110  1.00  0.00    -0.200 F 
ENDBRANCH 103 127
ENDBRANCH  68  71
ENDBRANCH  58  61
ENDBRANCH  54  57
ENDBRANCH  51  54
ENDBRANCH  48  51
ENDBRANCH  45  48
ENDBRANCH   1  45
TORSDOF 19
ENDMDL
MODEL 10
REMARK VINA RESULT:     -10.8      4.063      9.705
REMARK SMILES CCSc1cccc(-c2ccc([C@@H](C)C(=O)NCCCCCCNC(=O)c3ccc(-c4c5nc(c(-c6c(F)c(F)c(F)c(F)c6F)c6ccc([nH]6)c(-c6c(F)c(F)c(F)c(F)c6F)c6nc(c(-c7c(F)c(F)c(F)c(F)c7F)c7ccc4[nH]7)C=C6)C=C5)cc3)cc2)c1
REMARK SMILES IDX 19 1 18 4 17 7 15 8 16 9 13 11 12 13 9 14 10 15 91 16 11 17
REMARK SMILES IDX 90 19 8 23 4 24 5 25 92 26 6 27 7 30 3 33 2 34 1 37 14 41
REMARK SMILES IDX 20 45 21 48 22 51 23 54 24 57 25 58 26 60 27 61 28 62 89 63
REMARK SMILES IDX 29 64 88 66 30 68 31 71 32 72 82 73 33 74 87 75 81 76 83 77
REMARK SMILES IDX 34 78 86 79 80 81 79 83 35 85 67 88 47 89 66 90 48 91 51 92
REMARK SMILES IDX 65 93 84 94 49 95 50 97 64 99 85 100 52 103 36 105 37 106
REMARK SMILES IDX 45 107 38 108 39 109 43 110 46 111 40 112 41 113 44 114
REMARK SMILES IDX 42 115 68 116 69 117 77 118 70 119 71 120 75 121 78 122
REMARK SMILES IDX 72 123 73 124 76 125 74 126 53 127 54 128 62 129 55 130
REMARK SMILES IDX 56 131 60 132 63 133 57 134 58 135 61 136 59 137
REMARK H PARENT 19 2 19 3 18 5 18 6 17 10 13 12 10 18 91 20 11 21 90 22 5 28
REMARK H PARENT 92 29 6 31 7 32 2 35 2 36 1 38 1 39 1 40 14 42 14 43 14 44
REMARK H PARENT 20 46 20 47 21 49 21 50 22 52 22 53 23 55 23 56 24 59 28 65
REMARK H PARENT 89 67 29 69 88 70 87 80 81 82 83 84 86 86 80 87 48 96 51 98
REMARK H PARENT 84 101 49 102 85 104
REMARK Flexibility Score: inf
ROOT
ATOM      1  C   UNL A   1      38.271  34.051  29.856  1.00  0.00    -0.036 C 
ATOM      2  H   UNL A   1      39.298  33.866  29.617  1.00  0.00     0.028 H 
ATOM      3  H   UNL A   1      37.944  35.020  29.543  1.00  0.00     0.028 H 
ENDROOT
BRANCH   1   4
ATOM      4  C   UNL A   1      38.115  33.999  31.377  1.00  0.00     0.017 C 
ATOM      5  H   UNL A   1      38.971  33.515  31.797  1.00  0.00     0.049 H 
ATOM      6  H   UNL A   1      38.027  35.004  31.736  1.00  0.00     0.049 H 
BRANCH   4   7
ATOM      7  N   UNL A   1      36.926  33.276  31.772  1.00  0.00    -0.356 N 
ATOM      8  C   UNL A   1      36.630  32.575  32.900  1.00  0.00     0.227 C 
ATOM      9  O   UNL A   1      35.547  31.979  32.908  1.00  0.00    -0.274 OA
ATOM     10  H   UNL A   1      36.201  33.294  31.105  1.00  0.00     0.163 HD
BRANCH   8  11
ATOM     11  C   UNL A   1      37.548  32.511  34.129  1.00  0.00     0.060 C 
ATOM     12  H   UNL A   1      36.934  32.159  34.932  1.00  0.00     0.045 H 
BRANCH  11  13
ATOM     13  C   UNL A   1      38.626  31.441  34.030  1.00  0.00    -0.036 A 
ATOM     14  C   UNL A   1      40.659  29.423  34.013  1.00  0.00    -0.018 A 
ATOM     15  C   UNL A   1      39.479  29.292  33.264  1.00  0.00    -0.054 A 
ATOM     16  C   UNL A   1      40.808  30.610  34.748  1.00  0.00    -0.054 A 
ATOM     17  C   UNL A   1      38.498  30.292  33.248  1.00  0.00    -0.058 A 
ATOM     18  H   UNL A   1      39.330  28.434  32.710  1.00  0.00     0.063 H 
ATOM     19  C   UNL A   1      39.804  31.589  34.775  1.00  0.00    -0.058 A 
ATOM     20  H   UNL A   1      41.676  30.766  35.282  1.00  0.00     0.063 H 
ATOM     21  H   UNL A   1      37.667  30.177  32.647  1.00  0.00     0.063 H 
ATOM     22  H   UNL A   1      39.936  32.435  35.351  1.00  0.00     0.063 H 
BRANCH  14  23
ATOM     23  C   UNL A   1      41.689  28.355  34.028  1.00  0.00    -0.017 A 
ATOM     24  C   UNL A   1      42.469  26.149  34.775  1.00  0.00     0.008 A 
ATOM     25  C   UNL A   1      43.643  26.302  34.040  1.00  0.00    -0.049 A 
ATOM     26  C   UNL A   1      41.505  27.166  34.763  1.00  0.00    -0.041 A 
ATOM     27  C   UNL A   1      43.851  27.463  33.302  1.00  0.00    -0.061 A 
ATOM     28  H   UNL A   1      44.356  25.555  34.042  1.00  0.00     0.063 H 
ATOM     29  H   UNL A   1      40.638  27.043  35.308  1.00  0.00     0.064 H 
ATOM     30  C   UNL A   1      42.890  28.478  33.305  1.00  0.00    -0.054 A 
ATOM     31  H   UNL A   1      44.717  27.576  32.751  1.00  0.00     0.062 H 
ATOM     32  H   UNL A   1      43.064  29.338  32.763  1.00  0.00     0.063 H 
BRANCH  24  33
ATOM     33  S   UNL A   1      42.202  24.702  35.784  1.00  0.00    -0.126 SA
BRANCH  33  34
ATOM     34  C   UNL A   1      42.979  23.425  34.740  1.00  0.00    -0.005 C 
ATOM     35  H   UNL A   1      42.302  22.602  34.638  1.00  0.00     0.038 H 
ATOM     36  H   UNL A   1      43.199  23.861  33.788  1.00  0.00     0.038 H 
BRANCH  34  37
ATOM     37  C   UNL A   1      44.278  22.920  35.342  1.00  0.00    -0.056 C 
ATOM     38  H   UNL A   1      44.560  22.005  34.865  1.00  0.00     0.024 H 
ATOM     39  H   UNL A   1      44.144  22.749  36.389  1.00  0.00     0.024 H 
ATOM     40  H   UNL A   1      45.046  23.650  35.195  1.00  0.00     0.024 H 
ENDBRANCH  34  37
ENDBRANCH  33  34
ENDBRANCH  24  33
ENDBRANCH  14  23
ENDBRANCH  11  13
BRANCH  11  41
ATOM     41  C   UNL A   1      38.003  33.879  34.640  1.00  0.00    -0.049 C 
ATOM     42  H   UNL A   1      37.148  34.498  34.812  1.00  0.00     0.024 H 
ATOM     43  H   UNL A   1      38.636  34.340  33.909  1.00  0.00     0.024 H 
ATOM     44  H   UNL A   1      38.546  33.756  35.554  1.00  0.00     0.024 H 
ENDBRANCH  11  41
ENDBRANCH   8  11
ENDBRANCH   4   7
ENDBRANCH   1   4
BRANCH   1  45
ATOM     45  C   UNL A   1      37.410  33.028  29.108  1.00  0.00    -0.052 C 
ATOM     46  H   UNL A   1      36.783  32.536  29.823  1.00  0.00     0.027 H 
ATOM     47  H   UNL A   1      38.094  32.368  28.615  1.00  0.00     0.027 H 
BRANCH  45  48
ATOM     48  C   UNL A   1      36.511  33.608  28.008  1.00  0.00    -0.052 C 
ATOM     49  H   UNL A   1      36.759  33.119  27.089  1.00  0.00     0.027 H 
ATOM     50  H   UNL A   1      36.698  34.661  28.002  1.00  0.00     0.027 H 
BRANCH  48  51
ATOM     51  C   UNL A   1      35.003  33.451  28.233  1.00  0.00    -0.036 C 
ATOM     52  H   UNL A   1      34.545  33.250  27.287  1.00  0.00     0.028 H 
ATOM     53  H   UNL A   1      34.670  34.366  28.679  1.00  0.00     0.028 H 
BRANCH  51  54
ATOM     54  C   UNL A   1      34.609  32.336  29.198  1.00  0.00     0.018 C 
ATOM     55  H   UNL A   1      33.887  32.717  29.890  1.00  0.00     0.049 H 
ATOM     56  H   UNL A   1      35.494  32.009  29.704  1.00  0.00     0.049 H 
BRANCH  54  57
ATOM     57  N   UNL A   1      34.038  31.193  28.506  1.00  0.00    -0.352 N 
ATOM     58  C   UNL A   1      34.653  30.093  27.961  1.00  0.00     0.251 C 
ATOM     59  H   UNL A   1      33.058  31.209  28.412  1.00  0.00     0.163 HD
ATOM     60  O   UNL A   1      34.025  29.339  27.225  1.00  0.00    -0.269 OA
BRANCH  58  61
ATOM     61  C   UNL A   1      36.077  29.813  28.248  1.00  0.00     0.039 A 
ATOM     62  C   UNL A   1      36.434  29.387  29.531  1.00  0.00    -0.049 A 
ATOM     63  C   UNL A   1      37.062  30.011  27.278  1.00  0.00    -0.049 A 
ATOM     64  C   UNL A   1      37.770  29.107  29.825  1.00  0.00    -0.053 A 
ATOM     65  H   UNL A   1      35.711  29.280  30.261  1.00  0.00     0.063 H 
ATOM     66  C   UNL A   1      38.386  29.674  27.551  1.00  0.00    -0.053 A 
ATOM     67  H   UNL A   1      36.810  30.407  26.359  1.00  0.00     0.063 H 
ATOM     68  C   UNL A   1      38.754  29.221  28.828  1.00  0.00    -0.014 A 
ATOM     69  H   UNL A   1      38.037  28.815  30.778  1.00  0.00     0.063 H 
ATOM     70  H   UNL A   1      39.100  29.757  26.811  1.00  0.00     0.063 H 
BRANCH  68  71
ATOM     71  C   UNL A   1      40.168  28.865  29.104  1.00  0.00     0.031 A 
ATOM     72  C   UNL A   1      41.075  29.837  29.804  1.00  0.00     0.074 A 
ATOM     73  C   UNL A   1      40.653  27.687  28.663  1.00  0.00     0.049 A 
ATOM     74  N   UNL A   1      42.352  29.733  30.072  1.00  0.00    -0.248 NA
ATOM     75  C   UNL A   1      40.473  31.108  30.236  1.00  0.00    -0.034 C 
ATOM     76  C   UNL A   1      39.885  26.682  27.927  1.00  0.00    -0.036 A 
ATOM     77  N   UNL A   1      41.910  27.144  28.757  1.00  0.00    -0.354 N 
ATOM     78  C   UNL A   1      42.708  30.926  30.687  1.00  0.00     0.074 A 
ATOM     79  C   UNL A   1      41.525  31.758  30.714  1.00  0.00    -0.034 C 
ATOM     80  H   UNL A   1      39.489  31.414  30.182  1.00  0.00     0.065 H 
ATOM     81  C   UNL A   1      40.683  25.638  27.649  1.00  0.00    -0.036 A 
ATOM     82  H   UNL A   1      38.891  26.761  27.664  1.00  0.00     0.065 H 
ATOM     83  C   UNL A   1      42.024  25.914  28.157  1.00  0.00     0.049 A 
ATOM     84  H   UNL A   1      42.659  27.593  29.212  1.00  0.00     0.167 HD
ATOM     85  C   UNL A   1      43.909  31.285  31.201  1.00  0.00     0.037 A 
ATOM     86  H   UNL A   1      41.503  32.730  31.059  1.00  0.00     0.065 H 
ATOM     87  H   UNL A   1      40.394  24.778  27.156  1.00  0.00     0.065 H 
ATOM     88  C   UNL A   1      43.090  25.103  28.026  1.00  0.00     0.037 A 
ATOM     89  C   UNL A   1      45.076  30.442  31.202  1.00  0.00     0.049 A 
ATOM     90  C   UNL A   1      44.408  25.521  28.619  1.00  0.00     0.074 A 
ATOM     91  C   UNL A   1      46.318  30.687  31.763  1.00  0.00    -0.036 A 
ATOM     92  N   UNL A   1      45.145  29.189  30.611  1.00  0.00    -0.354 N 
ATOM     93  N   UNL A   1      44.714  26.620  29.263  1.00  0.00    -0.248 NA
ATOM     94  C   UNL A   1      45.528  24.579  28.472  1.00  0.00    -0.034 C 
ATOM     95  C   UNL A   1      47.151  29.601  31.475  1.00  0.00    -0.036 A 
ATOM     96  H   UNL A   1      46.584  31.527  32.301  1.00  0.00     0.065 H 
ATOM     97  C   UNL A   1      46.415  28.658  30.775  1.00  0.00     0.049 A 
ATOM     98  H   UNL A   1      44.403  28.742  30.144  1.00  0.00     0.167 HD
ATOM     99  C   UNL A   1      46.049  26.494  29.621  1.00  0.00     0.074 A 
ATOM    100  C   UNL A   1      46.492  25.204  29.136  1.00  0.00    -0.034 C 
ATOM    101  H   UNL A   1      45.556  23.672  27.984  1.00  0.00     0.065 H 
ATOM    102  H   UNL A   1      48.144  29.515  31.740  1.00  0.00     0.065 H 
ATOM    103  C   UNL A   1      46.838  27.369  30.290  1.00  0.00     0.037 A 
ATOM    104  H   UNL A   1      47.437  24.818  29.285  1.00  0.00     0.065 H 
BRANCH  85 105
ATOM    105  C   UNL A   1      44.026  32.652  31.812  1.00  0.00     0.064 A 
ATOM    106  C   UNL A   1      44.258  33.790  31.026  1.00  0.00     0.173 A 
ATOM    107  C   UNL A   1      43.857  32.829  33.193  1.00  0.00     0.173 A 
ATOM    108  F   UNL A   1      44.438  33.672  29.702  1.00  0.00    -0.203 F 
ATOM    109  C   UNL A   1      44.342  35.054  31.604  1.00  0.00     0.198 A 
ATOM    110  C   UNL A   1      43.913  34.099  33.764  1.00  0.00     0.198 A 
ATOM    111  F   UNL A   1      43.627  31.775  33.989  1.00  0.00    -0.203 F 
ATOM    112  F   UNL A   1      44.608  36.122  30.840  1.00  0.00    -0.200 F 
ATOM    113  C   UNL A   1      44.162  35.209  32.971  1.00  0.00     0.200 A 
ATOM    114  F   UNL A   1      43.727  34.248  35.084  1.00  0.00    -0.200 F 
ATOM    115  F   UNL A   1      44.234  36.427  33.524  1.00  0.00    -0.200 F 
ENDBRANCH  85 105
BRANCH  88 116
ATOM    116  C   UNL A   1      42.950  23.803  27.321  1.00  0.00     0.064 A 
ATOM    117  C   UNL A   1      42.453  22.674  27.988  1.00  0.00     0.173 A 
ATOM    118  C   UNL A   1      43.306  23.661  25.973  1.00  0.00     0.173 A 
ATOM    119  F   UNL A   1      42.118  22.756  29.284  1.00  0.00    -0.203 F 
ATOM    120  C   UNL A   1      42.339  21.447  27.337  1.00  0.00     0.198 A 
ATOM    121  C   UNL A   1      43.166  22.442  25.315  1.00  0.00     0.198 A 
ATOM    122  F   UNL A   1      43.781  24.713  25.289  1.00  0.00    -0.203 F 
ATOM    123  F   UNL A   1      41.903  20.373  28.009  1.00  0.00    -0.200 F 
ATOM    124  C   UNL A   1      42.690  21.333  26.000  1.00  0.00     0.200 A 
ATOM    125  F   UNL A   1      43.493  22.338  24.020  1.00  0.00    -0.200 F 
ATOM    126  F   UNL A   1      42.575  20.155  25.374  1.00  0.00    -0.200 F 
ENDBRANCH  88 116
BRANCH 103 127
ATOM    127  C   UNL A   1      48.252  26.949  30.561  1.00  0.00     0.064 A 
ATOM    128  C   UNL A   1      48.592  26.198  31.695  1.00  0.00     0.173 A 
ATOM    129  C   UNL A   1      49.274  27.270  29.653  1.00  0.00     0.173 A 
ATOM    130  F   UNL A   1      47.653  25.880  32.600  1.00  0.00    -0.203 F 
ATOM    131  C   UNL A   1      49.907  25.804  31.924  1.00  0.00     0.198 A 
ATOM    132  C   UNL A   1      50.583  26.851  29.872  1.00  0.00     0.198 A 
ATOM    133  F   UNL A   1      48.999  27.981  28.550  1.00  0.00    -0.203 F 
ATOM    134  F   UNL A   1      50.217  25.125  33.038  1.00  0.00    -0.200 F 
ATOM    135  C   UNL A   1      50.899  26.124  31.009  1.00  0.00     0.200 A 
ATOM    136  F   UNL A   1      51.538  27.150  28.981  1.00  0.00    -0.200 F 
ATOM    137  F   UNL A   1      52.165  25.738  31.229  1.00  0.00    -0.200 F 
ENDBRANCH 103 127
ENDBRANCH  68  71
ENDBRANCH  58  61
ENDBRANCH  54  57
ENDBRANCH  51  54
ENDBRANCH  48  51
ENDBRANCH  45  48
ENDBRANCH   1  45
TORSDOF 19
ENDMDL
