MODEL 1
REMARK VINA RESULT:     -11.8      0.000      0.000
REMARK SMILES [NH3+][C@@H](Cc1c[nH]c2ccccc12)C(=O)N[C@@H](CS)C(=O)N[C@@H](CO)C(=O)NCCCCCCNC(=O)c1ccc(-c2c3nc(c(-c4c(F)c(F)c(F)c(F)c4F)c4ccc([nH]4)c(-c4c(F)c(F)c(F)c(F)c4F)c4nc(c(-c5c(F)c(F)c(F)c(F)c5F)c5ccc2[nH]5)C=C4)C=C3)cc1
REMARK SMILES IDX 28 1 27 4 25 5 26 6 22 8 21 10 19 11 20 12 16 14 15 16 13 17
REMARK SMILES IDX 14 18 2 20 1 22 3 26 4 29 5 30 12 31 6 32 7 34 11 35 8 37
REMARK SMILES IDX 10 38 9 40 17 44 18 47 23 49 24 52 29 54 30 57 31 60 32 63
REMARK SMILES IDX 33 66 34 69 35 70 36 72 37 73 38 74 99 75 39 76 98 78 40 80
REMARK SMILES IDX 41 83 42 84 92 85 43 86 97 87 91 88 93 89 44 90 96 91 90 93
REMARK SMILES IDX 89 95 45 97 77 100 57 101 76 102 58 103 61 104 75 105 94 106
REMARK SMILES IDX 59 107 60 109 74 111 95 112 62 115 46 117 47 118 55 119
REMARK SMILES IDX 48 120 49 121 53 122 56 123 50 124 51 125 54 126 52 127
REMARK SMILES IDX 78 128 79 129 87 130 80 131 81 132 85 133 88 134 82 135
REMARK SMILES IDX 83 136 86 137 84 138 63 139 64 140 72 141 65 142 66 143
REMARK SMILES IDX 70 144 73 145 67 146 68 147 71 148 69 149
REMARK H PARENT 28 2 28 3 27 7 22 9 21 13 16 15 15 19 2 21 1 23 1 24 1 25 3 27
REMARK H PARENT 3 28 5 33 6 36 11 39 8 41 10 42 9 43 17 45 17 46 18 48 23 50
REMARK H PARENT 23 51 24 53 29 55 29 56 30 58 30 59 31 61 31 62 32 64 32 65
REMARK H PARENT 33 67 33 68 34 71 38 77 99 79 39 81 98 82 97 92 91 94 93 96
REMARK H PARENT 96 98 90 99 58 108 61 110 94 113 59 114 95 116
REMARK Flexibility Score: inf
ROOT
ATOM      1  C   UNL A   1      36.072  20.799  25.004  1.00  0.00     0.017 C 
ATOM      2  H   UNL A   1      35.469  20.557  24.153  1.00  0.00     0.049 H 
ATOM      3  H   UNL A   1      36.599  19.938  25.358  1.00  0.00     0.049 H 
ENDROOT
BRANCH   1   4
ATOM      4  N   UNL A   1      35.211  21.269  26.069  1.00  0.00    -0.354 N 
ATOM      5  C   UNL A   1      33.902  21.014  26.339  1.00  0.00     0.244 C 
ATOM      6  O   UNL A   1      33.496  21.293  27.471  1.00  0.00    -0.273 OA
ATOM      7  H   UNL A   1      35.648  21.878  26.708  1.00  0.00     0.163 HD
BRANCH   5   8
ATOM      8  C   UNL A   1      32.977  20.339  25.324  1.00  0.00     0.131 C 
ATOM      9  H   UNL A   1      31.974  20.606  25.586  1.00  0.00     0.066 H 
BRANCH   8  10
ATOM     10  N   UNL A   1      33.204  20.849  23.977  1.00  0.00    -0.340 N 
ATOM     11  C   UNL A   1      32.372  21.666  23.301  1.00  0.00     0.244 C 
ATOM     12  O   UNL A   1      31.959  21.208  22.230  1.00  0.00    -0.273 OA
ATOM     13  H   UNL A   1      34.033  20.575  23.525  1.00  0.00     0.164 HD
BRANCH  11  14
ATOM     14  C   UNL A   1      31.872  23.000  23.881  1.00  0.00     0.117 C 
ATOM     15  H   UNL A   1      32.647  23.371  24.518  1.00  0.00     0.064 H 
BRANCH  14  16
ATOM     16  N   UNL A   1      31.711  23.962  22.811  1.00  0.00    -0.338 N 
ATOM     17  C   UNL A   1      32.351  25.176  22.739  1.00  0.00     0.279 C 
ATOM     18  O   UNL A   1      32.650  25.573  21.608  1.00  0.00    -0.268 OA
ATOM     19  H   UNL A   1      31.096  23.729  22.078  1.00  0.00     0.164 HD
BRANCH  17  20
ATOM     20  C   UNL A   1      32.589  26.078  23.994  1.00  0.00     0.168 C 
ATOM     21  H   UNL A   1      32.316  25.457  24.821  1.00  0.00     0.107 H 
BRANCH  20  22
ATOM     22  N   UNL A   1      34.023  26.420  24.098  1.00  0.00    -0.347 N 
ATOM     23  H   UNL A   1      34.215  27.254  23.544  1.00  0.00     0.345 HD
ATOM     24  H   UNL A   1      34.585  25.644  23.749  1.00  0.00     0.345 HD
ATOM     25  H   UNL A   1      34.260  26.599  25.074  1.00  0.00     0.345 HD
ENDBRANCH  20  22
BRANCH  20  26
ATOM     26  C   UNL A   1      31.574  27.200  24.350  1.00  0.00     0.036 C 
ATOM     27  H   UNL A   1      32.021  27.778  25.133  1.00  0.00     0.038 H 
ATOM     28  H   UNL A   1      30.683  26.652  24.577  1.00  0.00     0.038 H 
BRANCH  26  29
ATOM     29  C   UNL A   1      31.107  28.182  23.303  1.00  0.00    -0.016 A 
ATOM     30  C   UNL A   1      31.963  28.930  22.511  1.00  0.00     0.005 A 
ATOM     31  C   UNL A   1      29.775  28.593  22.932  1.00  0.00     0.003 A 
ATOM     32  N   UNL A   1      31.237  29.886  21.856  1.00  0.00    -0.361 N 
ATOM     33  H   UNL A   1      32.981  28.788  22.429  1.00  0.00     0.082 H 
ATOM     34  C   UNL A   1      29.906  29.758  22.169  1.00  0.00     0.046 A 
ATOM     35  C   UNL A   1      28.470  28.177  23.267  1.00  0.00    -0.053 A 
ATOM     36  H   UNL A   1      31.612  30.564  21.251  1.00  0.00     0.166 HD
ATOM     37  C   UNL A   1      28.824  30.588  21.848  1.00  0.00    -0.038 A 
ATOM     38  C   UNL A   1      27.376  28.995  22.957  1.00  0.00    -0.062 A 
ATOM     39  H   UNL A   1      28.321  27.273  23.741  1.00  0.00     0.063 H 
ATOM     40  C   UNL A   1      27.556  30.198  22.284  1.00  0.00    -0.060 A 
ATOM     41  H   UNL A   1      28.959  31.458  21.308  1.00  0.00     0.064 H 
ATOM     42  H   UNL A   1      26.425  28.700  23.231  1.00  0.00     0.062 H 
ATOM     43  H   UNL A   1      26.745  30.810  22.105  1.00  0.00     0.062 H 
ENDBRANCH  26  29
ENDBRANCH  20  26
ENDBRANCH  17  20
ENDBRANCH  14  16
BRANCH  14  44
ATOM     44  C   UNL A   1      30.846  22.978  25.024  1.00  0.00     0.020 C 
ATOM     45  H   UNL A   1      30.717  21.956  25.310  1.00  0.00     0.040 H 
ATOM     46  H   UNL A   1      29.990  23.470  24.611  1.00  0.00     0.040 H 
BRANCH  44  47
ATOM     47  S   UNL A   1      31.201  23.916  26.540  1.00  0.00    -0.177 SA
ATOM     48  H   UNL A   1      32.013  23.182  27.347  1.00  0.00     0.102 HD
ENDBRANCH  44  47
ENDBRANCH  14  44
ENDBRANCH  11  14
ENDBRANCH   8  10
BRANCH   8  49
ATOM     49  C   UNL A   1      33.013  18.803  25.412  1.00  0.00     0.072 C 
ATOM     50  H   UNL A   1      34.014  18.478  25.219  1.00  0.00     0.059 H 
ATOM     51  H   UNL A   1      32.315  18.433  24.691  1.00  0.00     0.059 H 
BRANCH  49  52
ATOM     52  O   UNL A   1      32.611  18.291  26.680  1.00  0.00    -0.394 OA
ATOM     53  H   UNL A   1      32.892  17.365  26.758  1.00  0.00     0.210 HD
ENDBRANCH  49  52
ENDBRANCH   8  49
ENDBRANCH   5   8
ENDBRANCH   1   4
BRANCH   1  54
ATOM     54  C   UNL A   1      37.098  21.849  24.597  1.00  0.00    -0.036 C 
ATOM     55  H   UNL A   1      36.607  22.584  23.993  1.00  0.00     0.028 H 
ATOM     56  H   UNL A   1      37.876  21.338  24.070  1.00  0.00     0.028 H 
BRANCH  54  57
ATOM     57  C   UNL A   1      37.757  22.561  25.781  1.00  0.00    -0.052 C 
ATOM     58  H   UNL A   1      37.217  22.301  26.668  1.00  0.00     0.027 H 
ATOM     59  H   UNL A   1      37.724  23.607  25.562  1.00  0.00     0.027 H 
BRANCH  57  60
ATOM     60  C   UNL A   1      39.231  22.207  25.996  1.00  0.00    -0.052 C 
ATOM     61  H   UNL A   1      39.643  22.907  26.694  1.00  0.00     0.027 H 
ATOM     62  H   UNL A   1      39.693  22.248  25.032  1.00  0.00     0.027 H 
BRANCH  60  63
ATOM     63  C   UNL A   1      39.484  20.795  26.533  1.00  0.00    -0.036 C 
ATOM     64  H   UNL A   1      38.606  20.473  27.054  1.00  0.00     0.028 H 
ATOM     65  H   UNL A   1      40.344  20.858  27.168  1.00  0.00     0.028 H 
BRANCH  63  66
ATOM     66  C   UNL A   1      39.807  19.769  25.461  1.00  0.00     0.018 C 
ATOM     67  H   UNL A   1      40.198  20.275  24.603  1.00  0.00     0.049 H 
ATOM     68  H   UNL A   1      38.906  19.245  25.219  1.00  0.00     0.049 H 
BRANCH  66  69
ATOM     69  N   UNL A   1      40.784  18.799  25.920  1.00  0.00    -0.352 N 
ATOM     70  C   UNL A   1      42.084  19.001  26.304  1.00  0.00     0.251 C 
ATOM     71  H   UNL A   1      40.469  17.867  25.963  1.00  0.00     0.163 HD
ATOM     72  O   UNL A   1      42.842  18.052  26.452  1.00  0.00    -0.269 OA
BRANCH  70  73
ATOM     73  C   UNL A   1      42.566  20.379  26.522  1.00  0.00     0.039 A 
ATOM     74  C   UNL A   1      42.993  21.123  25.422  1.00  0.00    -0.049 A 
ATOM     75  C   UNL A   1      42.597  20.931  27.807  1.00  0.00    -0.049 A 
ATOM     76  C   UNL A   1      43.417  22.439  25.607  1.00  0.00    -0.053 A 
ATOM     77  H   UNL A   1      42.995  20.703  24.479  1.00  0.00     0.063 H 
ATOM     78  C   UNL A   1      42.936  22.269  27.976  1.00  0.00    -0.053 A 
ATOM     79  H   UNL A   1      42.369  20.347  28.626  1.00  0.00     0.063 H 
ATOM     80  C   UNL A   1      43.367  23.029  26.881  1.00  0.00    -0.014 A 
ATOM     81  H   UNL A   1      43.770  22.981  24.803  1.00  0.00     0.063 H 
ATOM     82  H   UNL A   1      42.870  22.702  28.911  1.00  0.00     0.063 H 
BRANCH  80  83
ATOM     83  C   UNL A   1      43.778  24.442  27.076  1.00  0.00     0.031 A 
ATOM     84  C   UNL A   1      42.786  25.460  27.562  1.00  0.00     0.074 A 
ATOM     85  C   UNL A   1      45.039  24.810  26.780  1.00  0.00     0.049 A 
ATOM     86  N   UNL A   1      42.958  26.735  27.799  1.00  0.00    -0.248 NA
ATOM     87  C   UNL A   1      41.407  24.993  27.783  1.00  0.00    -0.034 C 
ATOM     88  C   UNL A   1      46.072  23.924  26.241  1.00  0.00    -0.036 A 
ATOM     89  N   UNL A   1      45.666  26.024  26.890  1.00  0.00    -0.354 N 
ATOM     90  C   UNL A   1      41.715  27.220  28.184  1.00  0.00     0.074 A 
ATOM     91  C   UNL A   1      40.782  26.120  28.086  1.00  0.00    -0.034 C 
ATOM     92  H   UNL A   1      41.028  24.035  27.718  1.00  0.00     0.065 H 
ATOM     93  C   UNL A   1      47.214  24.615  26.101  1.00  0.00    -0.036 A 
ATOM     94  H   UNL A   1      45.942  22.928  26.005  1.00  0.00     0.065 H 
ATOM     95  C   UNL A   1      46.985  25.999  26.507  1.00  0.00     0.049 A 
ATOM     96  H   UNL A   1      45.215  26.837  27.214  1.00  0.00     0.167 HD
ATOM     97  C   UNL A   1      41.388  28.464  28.609  1.00  0.00     0.037 A 
ATOM     98  H   UNL A   1      39.765  26.202  28.234  1.00  0.00     0.065 H 
ATOM     99  H   UNL A   1      48.109  24.231  25.761  1.00  0.00     0.065 H 
ATOM    100  C   UNL A   1      47.905  26.981  26.486  1.00  0.00     0.037 A 
ATOM    101  C   UNL A   1      42.327  29.548  28.724  1.00  0.00     0.049 A 
ATOM    102  C   UNL A   1      47.520  28.352  26.972  1.00  0.00     0.074 A 
ATOM    103  C   UNL A   1      42.116  30.826  29.206  1.00  0.00    -0.036 A 
ATOM    104  N   UNL A   1      43.660  29.481  28.342  1.00  0.00    -0.354 N 
ATOM    105  N   UNL A   1      46.363  28.777  27.420  1.00  0.00    -0.248 NA
ATOM    106  C   UNL A   1      48.572  29.377  26.961  1.00  0.00    -0.034 C 
ATOM    107  C   UNL A   1      43.302  31.551  29.061  1.00  0.00    -0.036 A 
ATOM    108  H   UNL A   1      41.233  31.184  29.605  1.00  0.00     0.065 H 
ATOM    109  C   UNL A   1      44.275  30.705  28.552  1.00  0.00     0.049 A 
ATOM    110  H   UNL A   1      44.104  28.682  27.976  1.00  0.00     0.167 HD
ATOM    111  C   UNL A   1      46.555  30.106  27.774  1.00  0.00     0.074 A 
ATOM    112  C   UNL A   1      47.944  30.412  27.501  1.00  0.00    -0.034 C 
ATOM    113  H   UNL A   1      49.544  29.309  26.623  1.00  0.00     0.065 H 
ATOM    114  H   UNL A   1      43.434  32.548  29.294  1.00  0.00     0.065 H 
ATOM    115  C   UNL A   1      45.661  30.992  28.280  1.00  0.00     0.037 A 
ATOM    116  H   UNL A   1      48.388  31.322  27.701  1.00  0.00     0.065 H 
BRANCH  97 117
ATOM    117  C   UNL A   1      39.953  28.718  28.979  1.00  0.00     0.064 A 
ATOM    118  C   UNL A   1      39.023  29.202  28.044  1.00  0.00     0.173 A 
ATOM    119  C   UNL A   1      39.494  28.448  30.276  1.00  0.00     0.173 A 
ATOM    120  F   UNL A   1      39.409  29.487  26.792  1.00  0.00    -0.203 F 
ATOM    121  C   UNL A   1      37.700  29.440  28.406  1.00  0.00     0.198 A 
ATOM    122  C   UNL A   1      38.162  28.653  30.625  1.00  0.00     0.198 A 
ATOM    123  F   UNL A   1      40.338  27.978  31.209  1.00  0.00    -0.203 F 
ATOM    124  F   UNL A   1      36.846  29.960  27.512  1.00  0.00    -0.200 F 
ATOM    125  C   UNL A   1      37.269  29.159  29.693  1.00  0.00     0.200 A 
ATOM    126  F   UNL A   1      37.743  28.366  31.865  1.00  0.00    -0.200 F 
ATOM    127  F   UNL A   1      35.993  29.383  30.038  1.00  0.00    -0.200 F 
ENDBRANCH  97 117
BRANCH 100 128
ATOM    128  C   UNL A   1      49.287  26.690  26.023  1.00  0.00     0.064 A 
ATOM    129  C   UNL A   1      50.242  26.146  26.893  1.00  0.00     0.173 A 
ATOM    130  C   UNL A   1      49.678  26.939  24.699  1.00  0.00     0.173 A 
ATOM    131  F   UNL A   1      49.920  25.905  28.172  1.00  0.00    -0.203 F 
ATOM    132  C   UNL A   1      51.541  25.883  26.463  1.00  0.00     0.198 A 
ATOM    133  C   UNL A   1      50.969  26.646  24.262  1.00  0.00     0.198 A 
ATOM    134  F   UNL A   1      48.800  27.450  23.823  1.00  0.00    -0.203 F 
ATOM    135  F   UNL A   1      52.446  25.405  27.328  1.00  0.00    -0.200 F 
ATOM    136  C   UNL A   1      51.901  26.127  25.146  1.00  0.00     0.200 A 
ATOM    137  F   UNL A   1      51.306  26.866  22.984  1.00  0.00    -0.200 F 
ATOM    138  F   UNL A   1      53.148  25.865  24.731  1.00  0.00    -0.200 F 
ENDBRANCH 100 128
BRANCH 115 139
ATOM    139  C   UNL A   1      46.167  32.366  28.614  1.00  0.00     0.064 A 
ATOM    140  C   UNL A   1      46.123  33.416  27.686  1.00  0.00     0.173 A 
ATOM    141  C   UNL A   1      46.662  32.644  29.898  1.00  0.00     0.173 A 
ATOM    142  F   UNL A   1      45.672  33.200  26.441  1.00  0.00    -0.203 F 
ATOM    143  C   UNL A   1      46.586  34.686  28.021  1.00  0.00     0.198 A 
ATOM    144  C   UNL A   1      47.090  33.923  30.240  1.00  0.00     0.198 A 
ATOM    145  F   UNL A   1      46.717  31.678  30.826  1.00  0.00    -0.203 F 
ATOM    146  F   UNL A   1      46.584  35.662  27.102  1.00  0.00    -0.200 F 
ATOM    147  C   UNL A   1      47.060  34.941  29.299  1.00  0.00     0.200 A 
ATOM    148  F   UNL A   1      47.532  34.171  31.481  1.00  0.00    -0.200 F 
ATOM    149  F   UNL A   1      47.495  36.167  29.622  1.00  0.00    -0.200 F 
ENDBRANCH 115 139
ENDBRANCH  80  83
ENDBRANCH  70  73
ENDBRANCH  66  69
ENDBRANCH  63  66
ENDBRANCH  60  63
ENDBRANCH  57  60
ENDBRANCH  54  57
ENDBRANCH   1  54
TORSDOF 24
ENDMDL
MODEL 2
REMARK VINA RESULT:     -11.8      5.963     10.790
REMARK SMILES [NH3+][C@@H](Cc1c[nH]c2ccccc12)C(=O)N[C@@H](CS)C(=O)N[C@@H](CO)C(=O)NCCCCCCNC(=O)c1ccc(-c2c3nc(c(-c4c(F)c(F)c(F)c(F)c4F)c4ccc([nH]4)c(-c4c(F)c(F)c(F)c(F)c4F)c4nc(c(-c5c(F)c(F)c(F)c(F)c5F)c5ccc2[nH]5)C=C4)C=C3)cc1
REMARK SMILES IDX 28 1 27 4 25 5 26 6 22 8 21 10 19 11 20 12 16 14 15 16 13 17
REMARK SMILES IDX 14 18 2 20 1 22 3 26 4 29 5 30 12 31 6 32 7 34 11 35 8 37
REMARK SMILES IDX 10 38 9 40 17 44 18 47 23 49 24 52 29 54 30 57 31 60 32 63
REMARK SMILES IDX 33 66 34 69 35 70 36 72 37 73 38 74 99 75 39 76 98 78 40 80
REMARK SMILES IDX 41 83 42 84 92 85 43 86 97 87 91 88 93 89 44 90 96 91 90 93
REMARK SMILES IDX 89 95 45 97 77 100 57 101 76 102 58 103 61 104 75 105 94 106
REMARK SMILES IDX 59 107 60 109 74 111 95 112 62 115 46 117 47 118 55 119
REMARK SMILES IDX 48 120 49 121 53 122 56 123 50 124 51 125 54 126 52 127
REMARK SMILES IDX 78 128 79 129 87 130 80 131 81 132 85 133 88 134 82 135
REMARK SMILES IDX 83 136 86 137 84 138 63 139 64 140 72 141 65 142 66 143
REMARK SMILES IDX 70 144 73 145 67 146 68 147 71 148 69 149
REMARK H PARENT 28 2 28 3 27 7 22 9 21 13 16 15 15 19 2 21 1 23 1 24 1 25 3 27
REMARK H PARENT 3 28 5 33 6 36 11 39 8 41 10 42 9 43 17 45 17 46 18 48 23 50
REMARK H PARENT 23 51 24 53 29 55 29 56 30 58 30 59 31 61 31 62 32 64 32 65
REMARK H PARENT 33 67 33 68 34 71 38 77 99 79 39 81 98 82 97 92 91 94 93 96
REMARK H PARENT 96 98 90 99 58 108 61 110 94 113 59 114 95 116
REMARK Flexibility Score: inf
ROOT
ATOM      1  C   UNL A   1      34.648  29.480  27.185  1.00  0.00     0.017 C 
ATOM      2  H   UNL A   1      34.468  29.626  26.140  1.00  0.00     0.049 H 
ATOM      3  H   UNL A   1      35.344  28.685  27.348  1.00  0.00     0.049 H 
ENDROOT
BRANCH   1   4
ATOM      4  N   UNL A   1      33.400  29.125  27.829  1.00  0.00    -0.354 N 
ATOM      5  C   UNL A   1      32.250  28.602  27.324  1.00  0.00     0.244 C 
ATOM      6  O   UNL A   1      31.453  28.111  28.128  1.00  0.00    -0.273 OA
ATOM      7  H   UNL A   1      33.379  29.291  28.800  1.00  0.00     0.163 HD
BRANCH   5   8
ATOM      8  C   UNL A   1      31.973  28.543  25.820  1.00  0.00     0.131 C 
ATOM      9  H   UNL A   1      32.812  28.061  25.363  1.00  0.00     0.066 H 
BRANCH   8  10
ATOM     10  N   UNL A   1      30.809  27.716  25.526  1.00  0.00    -0.340 N 
ATOM     11  C   UNL A   1      30.778  26.695  24.647  1.00  0.00     0.244 C 
ATOM     12  O   UNL A   1      29.957  26.826  23.733  1.00  0.00    -0.273 OA
ATOM     13  H   UNL A   1      29.977  27.921  26.009  1.00  0.00     0.164 HD
BRANCH  11  14
ATOM     14  C   UNL A   1      31.778  25.527  24.704  1.00  0.00     0.117 C 
ATOM     15  H   UNL A   1      31.295  24.683  24.257  1.00  0.00     0.064 H 
BRANCH  14  16
ATOM     16  N   UNL A   1      32.929  25.835  23.881  1.00  0.00    -0.338 N 
ATOM     17  C   UNL A   1      33.341  25.103  22.794  1.00  0.00     0.279 C 
ATOM     18  O   UNL A   1      33.847  25.739  21.864  1.00  0.00    -0.268 OA
ATOM     19  H   UNL A   1      33.457  26.632  24.119  1.00  0.00     0.164 HD
BRANCH  17  20
ATOM     20  C   UNL A   1      33.294  23.540  22.765  1.00  0.00     0.168 C 
ATOM     21  H   UNL A   1      32.434  23.291  23.350  1.00  0.00     0.107 H 
BRANCH  20  22
ATOM     22  N   UNL A   1      33.086  23.073  21.378  1.00  0.00    -0.347 N 
ATOM     23  H   UNL A   1      33.842  22.442  21.115  1.00  0.00     0.345 HD
ATOM     24  H   UNL A   1      33.078  23.874  20.746  1.00  0.00     0.345 HD
ATOM     25  H   UNL A   1      32.194  22.582  21.314  1.00  0.00     0.345 HD
ENDBRANCH  20  22
BRANCH  20  26
ATOM     26  C   UNL A   1      34.275  22.715  23.641  1.00  0.00     0.036 C 
ATOM     27  H   UNL A   1      34.812  23.418  24.244  1.00  0.00     0.038 H 
ATOM     28  H   UNL A   1      34.825  22.151  22.916  1.00  0.00     0.038 H 
BRANCH  26  29
ATOM     29  C   UNL A   1      33.764  21.646  24.579  1.00  0.00    -0.016 A 
ATOM     30  C   UNL A   1      33.949  21.673  25.951  1.00  0.00     0.005 A 
ATOM     31  C   UNL A   1      33.065  20.415  24.304  1.00  0.00     0.003 A 
ATOM     32  N   UNL A   1      33.592  20.459  26.468  1.00  0.00    -0.361 N 
ATOM     33  H   UNL A   1      34.299  22.478  26.494  1.00  0.00     0.082 H 
ATOM     34  C   UNL A   1      33.134  19.639  25.466  1.00  0.00     0.046 A 
ATOM     35  C   UNL A   1      32.495  19.822  23.159  1.00  0.00    -0.053 A 
ATOM     36  H   UNL A   1      33.655  20.209  27.418  1.00  0.00     0.166 HD
ATOM     37  C   UNL A   1      32.794  18.281  25.501  1.00  0.00    -0.038 A 
ATOM     38  C   UNL A   1      32.151  18.465  23.173  1.00  0.00    -0.062 A 
ATOM     39  H   UNL A   1      32.332  20.388  22.310  1.00  0.00     0.063 H 
ATOM     40  C   UNL A   1      32.328  17.700  24.320  1.00  0.00    -0.060 A 
ATOM     41  H   UNL A   1      32.884  17.729  26.369  1.00  0.00     0.064 H 
ATOM     42  H   UNL A   1      31.761  18.028  22.323  1.00  0.00     0.062 H 
ATOM     43  H   UNL A   1      32.113  16.691  24.300  1.00  0.00     0.062 H 
ENDBRANCH  26  29
ENDBRANCH  20  26
ENDBRANCH  17  20
ENDBRANCH  14  16
BRANCH  14  44
ATOM     44  C   UNL A   1      31.989  24.790  26.035  1.00  0.00     0.020 C 
ATOM     45  H   UNL A   1      32.054  25.536  26.800  1.00  0.00     0.040 H 
ATOM     46  H   UNL A   1      32.866  24.201  25.867  1.00  0.00     0.040 H 
BRANCH  44  47
ATOM     47  S   UNL A   1      30.745  23.580  26.576  1.00  0.00    -0.177 SA
ATOM     48  H   UNL A   1      31.370  22.454  27.016  1.00  0.00     0.102 HD
ENDBRANCH  44  47
ENDBRANCH  14  44
ENDBRANCH  11  14
ENDBRANCH   8  10
BRANCH   8  49
ATOM     49  C   UNL A   1      31.916  29.937  25.168  1.00  0.00     0.072 C 
ATOM     50  H   UNL A   1      32.875  30.152  24.745  1.00  0.00     0.059 H 
ATOM     51  H   UNL A   1      31.642  30.629  25.937  1.00  0.00     0.059 H 
BRANCH  49  52
ATOM     52  O   UNL A   1      30.935  30.050  24.140  1.00  0.00    -0.394 OA
ATOM     53  H   UNL A   1      31.367  29.982  23.273  1.00  0.00     0.210 HD
ENDBRANCH  49  52
ENDBRANCH   8  49
ENDBRANCH   5   8
ENDBRANCH   1   4
BRANCH   1  54
ATOM     54  C   UNL A   1      35.243  30.757  27.766  1.00  0.00    -0.036 C 
ATOM     55  H   UNL A   1      35.678  31.320  26.966  1.00  0.00     0.028 H 
ATOM     56  H   UNL A   1      35.964  30.460  28.498  1.00  0.00     0.028 H 
BRANCH  54  57
ATOM     57  C   UNL A   1      34.223  31.646  28.481  1.00  0.00    -0.052 C 
ATOM     58  H   UNL A   1      34.182  31.346  29.508  1.00  0.00     0.027 H 
ATOM     59  H   UNL A   1      33.294  31.514  27.969  1.00  0.00     0.027 H 
BRANCH  57  60
ATOM     60  C   UNL A   1      34.539  33.144  28.431  1.00  0.00    -0.052 C 
ATOM     61  H   UNL A   1      35.088  33.338  27.533  1.00  0.00     0.027 H 
ATOM     62  H   UNL A   1      35.091  33.364  29.320  1.00  0.00     0.027 H 
BRANCH  60  63
ATOM     63  C   UNL A   1      33.314  34.062  28.448  1.00  0.00    -0.036 C 
ATOM     64  H   UNL A   1      32.564  33.609  29.062  1.00  0.00     0.028 H 
ATOM     65  H   UNL A   1      33.003  34.178  27.430  1.00  0.00     0.028 H 
BRANCH  63  66
ATOM     66  C   UNL A   1      33.589  35.458  28.981  1.00  0.00     0.018 C 
ATOM     67  H   UNL A   1      33.402  36.169  28.204  1.00  0.00     0.049 H 
ATOM     68  H   UNL A   1      34.610  35.498  29.300  1.00  0.00     0.049 H 
BRANCH  66  69
ATOM     69  N   UNL A   1      32.747  35.775  30.121  1.00  0.00    -0.352 N 
ATOM     70  C   UNL A   1      32.862  35.356  31.420  1.00  0.00     0.251 C 
ATOM     71  H   UNL A   1      31.989  36.374  29.934  1.00  0.00     0.163 HD
ATOM     72  O   UNL A   1      31.946  35.531  32.213  1.00  0.00    -0.269 OA
BRANCH  70  73
ATOM     73  C   UNL A   1      34.099  34.674  31.852  1.00  0.00     0.039 A 
ATOM     74  C   UNL A   1      34.043  33.314  32.161  1.00  0.00    -0.049 A 
ATOM     75  C   UNL A   1      35.304  35.376  31.952  1.00  0.00    -0.049 A 
ATOM     76  C   UNL A   1      35.210  32.649  32.536  1.00  0.00    -0.053 A 
ATOM     77  H   UNL A   1      33.146  32.807  32.113  1.00  0.00     0.063 H 
ATOM     78  C   UNL A   1      36.480  34.692  32.240  1.00  0.00    -0.053 A 
ATOM     79  H   UNL A   1      35.321  36.398  31.813  1.00  0.00     0.063 H 
ATOM     80  C   UNL A   1      36.441  33.326  32.553  1.00  0.00    -0.014 A 
ATOM     81  H   UNL A   1      35.168  31.653  32.802  1.00  0.00     0.063 H 
ATOM     82  H   UNL A   1      37.383  35.192  32.223  1.00  0.00     0.063 H 
BRANCH  80  83
ATOM     83  C   UNL A   1      37.692  32.613  32.911  1.00  0.00     0.031 A 
ATOM     84  C   UNL A   1      38.392  32.914  34.206  1.00  0.00     0.074 A 
ATOM     85  C   UNL A   1      38.213  31.721  32.048  1.00  0.00     0.049 A 
ATOM     86  N   UNL A   1      39.488  32.391  34.694  1.00  0.00    -0.248 NA
ATOM     87  C   UNL A   1      37.800  33.961  35.054  1.00  0.00    -0.034 C 
ATOM     88  C   UNL A   1      37.659  31.394  30.733  1.00  0.00    -0.036 A 
ATOM     89  N   UNL A   1      39.326  30.925  32.146  1.00  0.00    -0.354 N 
ATOM     90  C   UNL A   1      39.720  33.051  35.894  1.00  0.00     0.074 A 
ATOM     91  C   UNL A   1      38.690  34.057  36.029  1.00  0.00    -0.034 C 
ATOM     92  H   UNL A   1      36.921  34.485  34.921  1.00  0.00     0.065 H 
ATOM     93  C   UNL A   1      38.412  30.441  30.162  1.00  0.00    -0.036 A 
ATOM     94  H   UNL A   1      36.822  31.828  30.312  1.00  0.00     0.065 H 
ATOM     95  C   UNL A   1      39.522  30.115  31.054  1.00  0.00     0.049 A 
ATOM     96  H   UNL A   1      39.928  30.933  32.925  1.00  0.00     0.167 HD
ATOM     97  C   UNL A   1      40.687  32.818  36.812  1.00  0.00     0.037 A 
ATOM     98  H   UNL A   1      38.654  34.757  36.786  1.00  0.00     0.065 H 
ATOM     99  H   UNL A   1      38.236  30.009  29.243  1.00  0.00     0.065 H 
ATOM    100  C   UNL A   1      40.486  29.211  30.802  1.00  0.00     0.037 A 
ATOM    101  C   UNL A   1      41.695  31.800  36.680  1.00  0.00     0.049 A 
ATOM    102  C   UNL A   1      41.545  28.964  31.842  1.00  0.00     0.074 A 
ATOM    103  C   UNL A   1      42.679  31.436  37.580  1.00  0.00    -0.036 A 
ATOM    104  N   UNL A   1      41.852  30.986  35.566  1.00  0.00    -0.354 N 
ATOM    105  N   UNL A   1      41.702  29.531  33.014  1.00  0.00    -0.248 NA
ATOM    106  C   UNL A   1      42.552  27.941  31.531  1.00  0.00    -0.034 C 
ATOM    107  C   UNL A   1      43.468  30.445  36.990  1.00  0.00    -0.036 A 
ATOM    108  H   UNL A   1      42.808  31.829  38.526  1.00  0.00     0.065 H 
ATOM    109  C   UNL A   1      42.935  30.140  35.746  1.00  0.00     0.049 A 
ATOM    110  H   UNL A   1      41.279  31.006  34.766  1.00  0.00     0.167 HD
ATOM    111  C   UNL A   1      42.805  28.914  33.592  1.00  0.00     0.074 A 
ATOM    112  C   UNL A   1      43.267  27.920  32.647  1.00  0.00    -0.034 C 
ATOM    113  H   UNL A   1      42.671  27.386  30.670  1.00  0.00     0.065 H 
ATOM    114  H   UNL A   1      44.306  30.011  37.408  1.00  0.00     0.065 H 
ATOM    115  C   UNL A   1      43.379  29.150  34.798  1.00  0.00     0.037 A 
ATOM    116  H   UNL A   1      44.054  27.275  32.821  1.00  0.00     0.065 H 
BRANCH  97 117
ATOM    117  C   UNL A   1      40.702  33.684  38.041  1.00  0.00     0.064 A 
ATOM    118  C   UNL A   1      41.571  34.781  38.163  1.00  0.00     0.173 A 
ATOM    119  C   UNL A   1      39.817  33.432  39.100  1.00  0.00     0.173 A 
ATOM    120  F   UNL A   1      42.446  35.062  37.186  1.00  0.00    -0.203 F 
ATOM    121  C   UNL A   1      41.578  35.567  39.313  1.00  0.00     0.198 A 
ATOM    122  C   UNL A   1      39.801  34.241  40.233  1.00  0.00     0.198 A 
ATOM    123  F   UNL A   1      38.960  32.401  39.035  1.00  0.00    -0.203 F 
ATOM    124  F   UNL A   1      42.458  36.570  39.431  1.00  0.00    -0.200 F 
ATOM    125  C   UNL A   1      40.688  35.301  40.343  1.00  0.00     0.200 A 
ATOM    126  F   UNL A   1      38.931  33.993  41.220  1.00  0.00    -0.200 F 
ATOM    127  F   UNL A   1      40.692  36.062  41.446  1.00  0.00    -0.200 F 
ENDBRANCH  97 117
BRANCH 100 128
ATOM    128  C   UNL A   1      40.470  28.449  29.526  1.00  0.00     0.064 A 
ATOM    129  C   UNL A   1      41.204  28.885  28.414  1.00  0.00     0.173 A 
ATOM    130  C   UNL A   1      39.729  27.265  29.394  1.00  0.00     0.173 A 
ATOM    131  F   UNL A   1      41.915  30.020  28.486  1.00  0.00    -0.203 F 
ATOM    132  C   UNL A   1      41.182  28.178  27.214  1.00  0.00     0.198 A 
ATOM    133  C   UNL A   1      39.733  26.541  28.203  1.00  0.00     0.198 A 
ATOM    134  F   UNL A   1      39.017  26.799  30.431  1.00  0.00    -0.203 F 
ATOM    135  F   UNL A   1      41.857  28.641  26.153  1.00  0.00    -0.200 F 
ATOM    136  C   UNL A   1      40.451  27.003  27.111  1.00  0.00     0.200 A 
ATOM    137  F   UNL A   1      39.041  25.398  28.115  1.00  0.00    -0.200 F 
ATOM    138  F   UNL A   1      40.437  26.319  25.960  1.00  0.00    -0.200 F 
ENDBRANCH 100 128
BRANCH 115 139
ATOM    139  C   UNL A   1      44.547  28.289  35.184  1.00  0.00     0.064 A 
ATOM    140  C   UNL A   1      44.377  27.064  35.844  1.00  0.00     0.173 A 
ATOM    141  C   UNL A   1      45.854  28.678  34.849  1.00  0.00     0.173 A 
ATOM    142  F   UNL A   1      43.151  26.652  36.200  1.00  0.00    -0.203 F 
ATOM    143  C   UNL A   1      45.473  26.275  36.182  1.00  0.00     0.198 A 
ATOM    144  C   UNL A   1      46.944  27.870  35.156  1.00  0.00     0.198 A 
ATOM    145  F   UNL A   1      46.072  29.837  34.209  1.00  0.00    -0.203 F 
ATOM    146  F   UNL A   1      45.292  25.133  36.861  1.00  0.00    -0.200 F 
ATOM    147  C   UNL A   1      46.755  26.674  35.830  1.00  0.00     0.200 A 
ATOM    148  F   UNL A   1      48.179  28.250  34.799  1.00  0.00    -0.200 F 
ATOM    149  F   UNL A   1      47.808  25.908  36.147  1.00  0.00    -0.200 F 
ENDBRANCH 115 139
ENDBRANCH  80  83
ENDBRANCH  70  73
ENDBRANCH  66  69
ENDBRANCH  63  66
ENDBRANCH  60  63
ENDBRANCH  57  60
ENDBRANCH  54  57
ENDBRANCH   1  54
TORSDOF 24
ENDMDL
MODEL 3
REMARK VINA RESULT:     -11.7      5.913     10.583
REMARK SMILES [NH3+][C@@H](Cc1c[nH]c2ccccc12)C(=O)N[C@@H](CS)C(=O)N[C@@H](CO)C(=O)NCCCCCCNC(=O)c1ccc(-c2c3nc(c(-c4c(F)c(F)c(F)c(F)c4F)c4ccc([nH]4)c(-c4c(F)c(F)c(F)c(F)c4F)c4nc(c(-c5c(F)c(F)c(F)c(F)c5F)c5ccc2[nH]5)C=C4)C=C3)cc1
REMARK SMILES IDX 28 1 27 4 25 5 26 6 22 8 21 10 19 11 20 12 16 14 15 16 13 17
REMARK SMILES IDX 14 18 2 20 1 22 3 26 4 29 5 30 12 31 6 32 7 34 11 35 8 37
REMARK SMILES IDX 10 38 9 40 17 44 18 47 23 49 24 52 29 54 30 57 31 60 32 63
REMARK SMILES IDX 33 66 34 69 35 70 36 72 37 73 38 74 99 75 39 76 98 78 40 80
REMARK SMILES IDX 41 83 42 84 92 85 43 86 97 87 91 88 93 89 44 90 96 91 90 93
REMARK SMILES IDX 89 95 45 97 77 100 57 101 76 102 58 103 61 104 75 105 94 106
REMARK SMILES IDX 59 107 60 109 74 111 95 112 62 115 46 117 47 118 55 119
REMARK SMILES IDX 48 120 49 121 53 122 56 123 50 124 51 125 54 126 52 127
REMARK SMILES IDX 78 128 79 129 87 130 80 131 81 132 85 133 88 134 82 135
REMARK SMILES IDX 83 136 86 137 84 138 63 139 64 140 72 141 65 142 66 143
REMARK SMILES IDX 70 144 73 145 67 146 68 147 71 148 69 149
REMARK H PARENT 28 2 28 3 27 7 22 9 21 13 16 15 15 19 2 21 1 23 1 24 1 25 3 27
REMARK H PARENT 3 28 5 33 6 36 11 39 8 41 10 42 9 43 17 45 17 46 18 48 23 50
REMARK H PARENT 23 51 24 53 29 55 29 56 30 58 30 59 31 61 31 62 32 64 32 65
REMARK H PARENT 33 67 33 68 34 71 38 77 99 79 39 81 98 82 97 92 91 94 93 96
REMARK H PARENT 96 98 90 99 58 108 61 110 94 113 59 114 95 116
REMARK Flexibility Score: inf
ROOT
ATOM      1  C   UNL A   1      34.390  29.897  26.998  1.00  0.00     0.017 C 
ATOM      2  H   UNL A   1      34.055  30.390  26.110  1.00  0.00     0.049 H 
ATOM      3  H   UNL A   1      35.039  29.080  26.764  1.00  0.00     0.049 H 
ENDROOT
BRANCH   1   4
ATOM      4  N   UNL A   1      33.239  29.369  27.703  1.00  0.00    -0.354 N 
ATOM      5  C   UNL A   1      32.152  28.686  27.254  1.00  0.00     0.244 C 
ATOM      6  O   UNL A   1      31.475  28.089  28.095  1.00  0.00    -0.273 OA
ATOM      7  H   UNL A   1      33.245  29.533  28.674  1.00  0.00     0.163 HD
BRANCH   5   8
ATOM      8  C   UNL A   1      31.810  28.586  25.765  1.00  0.00     0.131 C 
ATOM      9  H   UNL A   1      32.719  28.356  25.247  1.00  0.00     0.066 H 
BRANCH   8  10
ATOM     10  N   UNL A   1      30.893  27.482  25.504  1.00  0.00    -0.340 N 
ATOM     11  C   UNL A   1      31.110  26.477  24.633  1.00  0.00     0.244 C 
ATOM     12  O   UNL A   1      30.264  26.380  23.738  1.00  0.00    -0.273 OA
ATOM     13  H   UNL A   1      30.047  27.471  26.006  1.00  0.00     0.164 HD
BRANCH  11  14
ATOM     14  C   UNL A   1      32.378  25.607  24.674  1.00  0.00     0.117 C 
ATOM     15  H   UNL A   1      32.115  24.656  24.262  1.00  0.00     0.064 H 
BRANCH  14  16
ATOM     16  N   UNL A   1      33.384  26.179  23.803  1.00  0.00    -0.338 N 
ATOM     17  C   UNL A   1      33.278  26.280  22.436  1.00  0.00     0.279 C 
ATOM     18  O   UNL A   1      33.801  27.272  21.917  1.00  0.00    -0.268 OA
ATOM     19  H   UNL A   1      34.207  26.521  24.222  1.00  0.00     0.164 HD
BRANCH  17  20
ATOM     20  C   UNL A   1      32.644  25.155  21.555  1.00  0.00     0.168 C 
ATOM     21  H   UNL A   1      31.857  24.757  22.161  1.00  0.00     0.107 H 
BRANCH  20  22
ATOM     22  N   UNL A   1      32.061  25.747  20.332  1.00  0.00    -0.347 N 
ATOM     23  H   UNL A   1      31.368  26.448  20.592  1.00  0.00     0.345 HD
ATOM     24  H   UNL A   1      31.613  25.015  19.780  1.00  0.00     0.345 HD
ATOM     25  H   UNL A   1      32.799  26.185  19.782  1.00  0.00     0.345 HD
ENDBRANCH  20  22
BRANCH  20  26
ATOM     26  C   UNL A   1      33.368  23.790  21.394  1.00  0.00     0.036 C 
ATOM     27  H   UNL A   1      34.327  24.001  20.968  1.00  0.00     0.038 H 
ATOM     28  H   UNL A   1      32.674  23.219  20.812  1.00  0.00     0.038 H 
BRANCH  26  29
ATOM     29  C   UNL A   1      33.615  22.899  22.589  1.00  0.00    -0.016 A 
ATOM     30  C   UNL A   1      32.664  22.046  23.124  1.00  0.00     0.005 A 
ATOM     31  C   UNL A   1      34.778  22.762  23.430  1.00  0.00     0.003 A 
ATOM     32  N   UNL A   1      33.116  21.579  24.327  1.00  0.00    -0.361 N 
ATOM     33  H   UNL A   1      31.762  21.803  22.686  1.00  0.00     0.082 H 
ATOM     34  C   UNL A   1      34.371  22.076  24.580  1.00  0.00     0.046 A 
ATOM     35  C   UNL A   1      36.099  23.256  23.401  1.00  0.00    -0.053 A 
ATOM     36  H   UNL A   1      32.617  20.976  24.923  1.00  0.00     0.166 HD
ATOM     37  C   UNL A   1      35.159  21.983  25.734  1.00  0.00    -0.038 A 
ATOM     38  C   UNL A   1      36.901  23.174  24.546  1.00  0.00    -0.062 A 
ATOM     39  H   UNL A   1      36.473  23.680  22.537  1.00  0.00     0.063 H 
ATOM     40  C   UNL A   1      36.424  22.573  25.705  1.00  0.00    -0.060 A 
ATOM     41  H   UNL A   1      34.816  21.494  26.577  1.00  0.00     0.064 H 
ATOM     42  H   UNL A   1      37.857  23.564  24.529  1.00  0.00     0.062 H 
ATOM     43  H   UNL A   1      37.010  22.562  26.554  1.00  0.00     0.062 H 
ENDBRANCH  26  29
ENDBRANCH  20  26
ENDBRANCH  17  20
ENDBRANCH  14  16
BRANCH  14  44
ATOM     44  C   UNL A   1      32.814  24.988  26.010  1.00  0.00     0.020 C 
ATOM     45  H   UNL A   1      32.978  25.796  26.692  1.00  0.00     0.040 H 
ATOM     46  H   UNL A   1      33.671  24.400  25.753  1.00  0.00     0.040 H 
BRANCH  44  47
ATOM     47  S   UNL A   1      31.704  23.808  26.835  1.00  0.00    -0.177 SA
ATOM     48  H   UNL A   1      32.305  23.331  27.958  1.00  0.00     0.102 HD
ENDBRANCH  44  47
ENDBRANCH  14  44
ENDBRANCH  11  14
ENDBRANCH   8  10
BRANCH   8  49
ATOM     49  C   UNL A   1      31.343  29.925  25.167  1.00  0.00     0.072 C 
ATOM     50  H   UNL A   1      32.149  30.626  25.239  1.00  0.00     0.059 H 
ATOM     51  H   UNL A   1      30.483  30.232  25.724  1.00  0.00     0.059 H 
BRANCH  49  52
ATOM     52  O   UNL A   1      30.945  29.837  23.802  1.00  0.00    -0.394 OA
ATOM     53  H   UNL A   1      31.064  30.701  23.374  1.00  0.00     0.210 HD
ENDBRANCH  49  52
ENDBRANCH   8  49
ENDBRANCH   5   8
ENDBRANCH   1   4
BRANCH   1  54
ATOM     54  C   UNL A   1      35.170  30.891  27.849  1.00  0.00    -0.036 C 
ATOM     55  H   UNL A   1      35.793  31.473  27.202  1.00  0.00     0.028 H 
ATOM     56  H   UNL A   1      35.733  30.321  28.558  1.00  0.00     0.028 H 
BRANCH  54  57
ATOM     57  C   UNL A   1      34.284  31.848  28.651  1.00  0.00    -0.052 C 
ATOM     58  H   UNL A   1      34.520  31.729  29.689  1.00  0.00     0.027 H 
ATOM     59  H   UNL A   1      33.273  31.591  28.419  1.00  0.00     0.027 H 
BRANCH  57  60
ATOM     60  C   UNL A   1      34.452  33.326  28.287  1.00  0.00    -0.052 C 
ATOM     61  H   UNL A   1      34.766  33.383  27.265  1.00  0.00     0.027 H 
ATOM     62  H   UNL A   1      35.170  33.724  28.973  1.00  0.00     0.027 H 
BRANCH  60  63
ATOM     63  C   UNL A   1      33.189  34.177  28.446  1.00  0.00    -0.036 C 
ATOM     64  H   UNL A   1      32.527  33.672  29.118  1.00  0.00     0.028 H 
ATOM     65  H   UNL A   1      32.775  34.296  27.466  1.00  0.00     0.028 H 
BRANCH  63  66
ATOM     66  C   UNL A   1      33.443  35.574  28.986  1.00  0.00     0.018 C 
ATOM     67  H   UNL A   1      33.153  36.290  28.245  1.00  0.00     0.049 H 
ATOM     68  H   UNL A   1      34.485  35.660  29.214  1.00  0.00     0.049 H 
BRANCH  66  69
ATOM     69  N   UNL A   1      32.692  35.826  30.203  1.00  0.00    -0.352 N 
ATOM     70  C   UNL A   1      32.881  35.304  31.456  1.00  0.00     0.251 C 
ATOM     71  H   UNL A   1      31.944  36.460  30.115  1.00  0.00     0.163 HD
ATOM     72  O   UNL A   1      32.028  35.445  32.321  1.00  0.00    -0.269 OA
BRANCH  70  73
ATOM     73  C   UNL A   1      34.120  34.555  31.746  1.00  0.00     0.039 A 
ATOM     74  C   UNL A   1      35.346  35.210  31.615  1.00  0.00    -0.049 A 
ATOM     75  C   UNL A   1      34.070  33.215  32.141  1.00  0.00    -0.049 A 
ATOM     76  C   UNL A   1      36.523  34.528  31.920  1.00  0.00    -0.053 A 
ATOM     77  H   UNL A   1      35.380  36.191  31.296  1.00  0.00     0.063 H 
ATOM     78  C   UNL A   1      35.237  32.565  32.528  1.00  0.00    -0.053 A 
ATOM     79  H   UNL A   1      33.171  32.710  32.146  1.00  0.00     0.063 H 
ATOM     80  C   UNL A   1      36.475  33.209  32.404  1.00  0.00    -0.014 A 
ATOM     81  H   UNL A   1      37.434  34.994  31.789  1.00  0.00     0.063 H 
ATOM     82  H   UNL A   1      35.190  31.607  32.908  1.00  0.00     0.063 H 
BRANCH  80  83
ATOM     83  C   UNL A   1      37.722  32.492  32.768  1.00  0.00     0.031 A 
ATOM     84  C   UNL A   1      38.423  32.801  34.061  1.00  0.00     0.074 A 
ATOM     85  C   UNL A   1      38.239  31.589  31.914  1.00  0.00     0.049 A 
ATOM     86  N   UNL A   1      39.516  32.276  34.554  1.00  0.00    -0.248 NA
ATOM     87  C   UNL A   1      37.838  33.859  34.899  1.00  0.00    -0.034 C 
ATOM     88  C   UNL A   1      37.683  31.254  30.602  1.00  0.00    -0.036 A 
ATOM     89  N   UNL A   1      39.347  30.789  32.020  1.00  0.00    -0.354 N 
ATOM     90  C   UNL A   1      39.752  32.946  35.748  1.00  0.00     0.074 A 
ATOM     91  C   UNL A   1      38.728  33.959  35.874  1.00  0.00    -0.034 C 
ATOM     92  H   UNL A   1      36.962  34.387  34.762  1.00  0.00     0.065 H 
ATOM     93  C   UNL A   1      38.431  30.292  30.040  1.00  0.00    -0.036 A 
ATOM     94  H   UNL A   1      36.849  31.689  30.177  1.00  0.00     0.065 H 
ATOM     95  C   UNL A   1      39.538  29.968  30.935  1.00  0.00     0.049 A 
ATOM     96  H   UNL A   1      39.949  30.800  32.799  1.00  0.00     0.167 HD
ATOM     97  C   UNL A   1      40.718  32.716  36.669  1.00  0.00     0.037 A 
ATOM     98  H   UNL A   1      38.696  34.666  36.625  1.00  0.00     0.065 H 
ATOM     99  H   UNL A   1      38.253  29.852  29.124  1.00  0.00     0.065 H 
ATOM    100  C   UNL A   1      40.498  29.055  30.691  1.00  0.00     0.037 A 
ATOM    101  C   UNL A   1      41.720  31.691  36.546  1.00  0.00     0.049 A 
ATOM    102  C   UNL A   1      41.555  28.812  31.734  1.00  0.00     0.074 A 
ATOM    103  C   UNL A   1      42.702  31.329  37.450  1.00  0.00    -0.036 A 
ATOM    104  N   UNL A   1      41.873  30.866  35.439  1.00  0.00    -0.354 N 
ATOM    105  N   UNL A   1      41.715  29.389  32.900  1.00  0.00    -0.248 NA
ATOM    106  C   UNL A   1      42.557  27.781  31.432  1.00  0.00    -0.034 C 
ATOM    107  C   UNL A   1      43.485  30.328  36.868  1.00  0.00    -0.036 A 
ATOM    108  H   UNL A   1      42.833  31.730  38.392  1.00  0.00     0.065 H 
ATOM    109  C   UNL A   1      42.951  30.015  35.628  1.00  0.00     0.049 A 
ATOM    110  H   UNL A   1      41.300  30.881  34.639  1.00  0.00     0.167 HD
ATOM    111  C   UNL A   1      42.814  28.771  33.485  1.00  0.00     0.074 A 
ATOM    112  C   UNL A   1      43.271  27.766  32.548  1.00  0.00    -0.034 C 
ATOM    113  H   UNL A   1      42.673  27.217  30.576  1.00  0.00     0.065 H 
ATOM    114  H   UNL A   1      44.321  29.893  37.291  1.00  0.00     0.065 H 
ATOM    115  C   UNL A   1      43.390  29.015  34.688  1.00  0.00     0.037 A 
ATOM    116  H   UNL A   1      44.054  27.118  32.728  1.00  0.00     0.065 H 
BRANCH  97 117
ATOM    117  C   UNL A   1      40.737  33.592  37.890  1.00  0.00     0.064 A 
ATOM    118  C   UNL A   1      41.614  34.683  38.004  1.00  0.00     0.173 A 
ATOM    119  C   UNL A   1      39.848  33.357  38.949  1.00  0.00     0.173 A 
ATOM    120  F   UNL A   1      42.493  34.949  37.026  1.00  0.00    -0.203 F 
ATOM    121  C   UNL A   1      41.626  35.480  39.146  1.00  0.00     0.198 A 
ATOM    122  C   UNL A   1      39.837  34.177  40.075  1.00  0.00     0.198 A 
ATOM    123  F   UNL A   1      38.984  32.332  38.892  1.00  0.00    -0.203 F 
ATOM    124  F   UNL A   1      42.514  36.477  39.257  1.00  0.00    -0.200 F 
ATOM    125  C   UNL A   1      40.732  35.230  40.177  1.00  0.00     0.200 A 
ATOM    126  F   UNL A   1      38.963  33.944  41.063  1.00  0.00    -0.200 F 
ATOM    127  F   UNL A   1      40.740  36.001  41.273  1.00  0.00    -0.200 F 
ENDBRANCH  97 117
BRANCH 100 128
ATOM    128  C   UNL A   1      40.478  28.282  29.422  1.00  0.00     0.064 A 
ATOM    129  C   UNL A   1      39.707  27.118  29.297  1.00  0.00     0.173 A 
ATOM    130  C   UNL A   1      41.219  28.697  28.306  1.00  0.00     0.173 A 
ATOM    131  F   UNL A   1      38.994  26.673  30.341  1.00  0.00    -0.203 F 
ATOM    132  C   UNL A   1      39.696  26.386  28.112  1.00  0.00     0.198 A 
ATOM    133  C   UNL A   1      41.182  27.981  27.110  1.00  0.00     0.198 A 
ATOM    134  F   UNL A   1      41.966  29.809  28.370  1.00  0.00    -0.203 F 
ATOM    135  F   UNL A   1      38.986  25.252  28.033  1.00  0.00    -0.200 F 
ATOM    136  C   UNL A   1      40.428  26.822  27.017  1.00  0.00     0.200 A 
ATOM    137  F   UNL A   1      41.877  28.417  26.051  1.00  0.00    -0.200 F 
ATOM    138  F   UNL A   1      40.410  26.123  25.875  1.00  0.00    -0.200 F 
ENDBRANCH 100 128
BRANCH 115 139
ATOM    139  C   UNL A   1      44.553  28.151  35.083  1.00  0.00     0.064 A 
ATOM    140  C   UNL A   1      45.877  28.521  34.807  1.00  0.00     0.173 A 
ATOM    141  C   UNL A   1      44.339  26.955  35.786  1.00  0.00     0.173 A 
ATOM    142  F   UNL A   1      46.136  29.647  34.125  1.00  0.00    -0.203 F 
ATOM    143  C   UNL A   1      46.942  27.711  35.193  1.00  0.00     0.198 A 
ATOM    144  C   UNL A   1      45.407  26.167  36.202  1.00  0.00     0.198 A 
ATOM    145  F   UNL A   1      43.092  26.559  36.084  1.00  0.00    -0.203 F 
ATOM    146  F   UNL A   1      48.196  28.058  34.872  1.00  0.00    -0.200 F 
ATOM    147  C   UNL A   1      46.707  26.540  35.898  1.00  0.00     0.200 A 
ATOM    148  F   UNL A   1      45.178  25.044  36.898  1.00  0.00    -0.200 F 
ATOM    149  F   UNL A   1      47.734  25.767  36.278  1.00  0.00    -0.200 F 
ENDBRANCH 115 139
ENDBRANCH  80  83
ENDBRANCH  70  73
ENDBRANCH  66  69
ENDBRANCH  63  66
ENDBRANCH  60  63
ENDBRANCH  57  60
ENDBRANCH  54  57
ENDBRANCH   1  54
TORSDOF 24
ENDMDL
MODEL 4
REMARK VINA RESULT:     -11.6      6.071     10.810
REMARK SMILES [NH3+][C@@H](Cc1c[nH]c2ccccc12)C(=O)N[C@@H](CS)C(=O)N[C@@H](CO)C(=O)NCCCCCCNC(=O)c1ccc(-c2c3nc(c(-c4c(F)c(F)c(F)c(F)c4F)c4ccc([nH]4)c(-c4c(F)c(F)c(F)c(F)c4F)c4nc(c(-c5c(F)c(F)c(F)c(F)c5F)c5ccc2[nH]5)C=C4)C=C3)cc1
REMARK SMILES IDX 28 1 27 4 25 5 26 6 22 8 21 10 19 11 20 12 16 14 15 16 13 17
REMARK SMILES IDX 14 18 2 20 1 22 3 26 4 29 5 30 12 31 6 32 7 34 11 35 8 37
REMARK SMILES IDX 10 38 9 40 17 44 18 47 23 49 24 52 29 54 30 57 31 60 32 63
REMARK SMILES IDX 33 66 34 69 35 70 36 72 37 73 38 74 99 75 39 76 98 78 40 80
REMARK SMILES IDX 41 83 42 84 92 85 43 86 97 87 91 88 93 89 44 90 96 91 90 93
REMARK SMILES IDX 89 95 45 97 77 100 57 101 76 102 58 103 61 104 75 105 94 106
REMARK SMILES IDX 59 107 60 109 74 111 95 112 62 115 46 117 47 118 55 119
REMARK SMILES IDX 48 120 49 121 53 122 56 123 50 124 51 125 54 126 52 127
REMARK SMILES IDX 78 128 79 129 87 130 80 131 81 132 85 133 88 134 82 135
REMARK SMILES IDX 83 136 86 137 84 138 63 139 64 140 72 141 65 142 66 143
REMARK SMILES IDX 70 144 73 145 67 146 68 147 71 148 69 149
REMARK H PARENT 28 2 28 3 27 7 22 9 21 13 16 15 15 19 2 21 1 23 1 24 1 25 3 27
REMARK H PARENT 3 28 5 33 6 36 11 39 8 41 10 42 9 43 17 45 17 46 18 48 23 50
REMARK H PARENT 23 51 24 53 29 55 29 56 30 58 30 59 31 61 31 62 32 64 32 65
REMARK H PARENT 33 67 33 68 34 71 38 77 99 79 39 81 98 82 97 92 91 94 93 96
REMARK H PARENT 96 98 90 99 58 108 61 110 94 113 59 114 95 116
REMARK Flexibility Score: inf
ROOT
ATOM      1  C   UNL A   1      33.888  29.910  27.170  1.00  0.00     0.017 C 
ATOM      2  H   UNL A   1      34.341  29.210  26.498  1.00  0.00     0.049 H 
ATOM      3  H   UNL A   1      33.440  29.409  28.002  1.00  0.00     0.049 H 
ENDROOT
BRANCH   1   4
ATOM      4  N   UNL A   1      32.847  30.629  26.464  1.00  0.00    -0.354 N 
ATOM      5  C   UNL A   1      31.879  30.193  25.614  1.00  0.00     0.244 C 
ATOM      6  O   UNL A   1      30.936  30.959  25.394  1.00  0.00    -0.273 OA
ATOM      7  H   UNL A   1      32.839  31.599  26.628  1.00  0.00     0.163 HD
BRANCH   5   8
ATOM      8  C   UNL A   1      31.898  28.788  25.007  1.00  0.00     0.131 C 
ATOM      9  H   UNL A   1      31.975  28.095  25.819  1.00  0.00     0.066 H 
BRANCH   8  10
ATOM     10  N   UNL A   1      30.647  28.488  24.322  1.00  0.00    -0.340 N 
ATOM     11  C   UNL A   1      30.487  27.557  23.360  1.00  0.00     0.244 C 
ATOM     12  O   UNL A   1      30.081  27.997  22.280  1.00  0.00    -0.273 OA
ATOM     13  H   UNL A   1      29.853  29.007  24.583  1.00  0.00     0.164 HD
BRANCH  11  14
ATOM     14  C   UNL A   1      30.903  26.089  23.555  1.00  0.00     0.117 C 
ATOM     15  H   UNL A   1      31.873  26.099  24.008  1.00  0.00     0.064 H 
BRANCH  14  16
ATOM     16  N   UNL A   1      30.007  25.453  24.497  1.00  0.00    -0.338 N 
ATOM     17  C   UNL A   1      30.277  25.247  25.829  1.00  0.00     0.279 C 
ATOM     18  O   UNL A   1      29.316  25.320  26.602  1.00  0.00    -0.268 OA
ATOM     19  H   UNL A   1      29.135  25.144  24.157  1.00  0.00     0.164 HD
BRANCH  17  20
ATOM     20  C   UNL A   1      31.691  24.824  26.345  1.00  0.00     0.168 C 
ATOM     21  H   UNL A   1      32.255  24.644  25.453  1.00  0.00     0.107 H 
BRANCH  20  22
ATOM     22  N   UNL A   1      32.306  25.943  27.089  1.00  0.00    -0.347 N 
ATOM     23  H   UNL A   1      33.051  25.585  27.687  1.00  0.00     0.345 HD
ATOM     24  H   UNL A   1      31.599  26.399  27.665  1.00  0.00     0.345 HD
ATOM     25  H   UNL A   1      32.694  26.617  26.430  1.00  0.00     0.345 HD
ENDBRANCH  20  22
BRANCH  20  26
ATOM     26  C   UNL A   1      31.917  23.396  26.915  1.00  0.00     0.036 C 
ATOM     27  H   UNL A   1      31.116  22.790  26.546  1.00  0.00     0.038 H 
ATOM     28  H   UNL A   1      31.973  23.567  27.970  1.00  0.00     0.038 H 
BRANCH  26  29
ATOM     29  C   UNL A   1      33.194  22.642  26.629  1.00  0.00    -0.016 A 
ATOM     30  C   UNL A   1      33.853  21.862  27.564  1.00  0.00     0.005 A 
ATOM     31  C   UNL A   1      34.004  22.590  25.437  1.00  0.00     0.003 A 
ATOM     32  N   UNL A   1      35.084  21.527  27.071  1.00  0.00    -0.361 N 
ATOM     33  H   UNL A   1      33.477  21.578  28.482  1.00  0.00     0.082 H 
ATOM     34  C   UNL A   1      35.237  22.040  25.806  1.00  0.00     0.046 A 
ATOM     35  C   UNL A   1      33.874  23.068  24.117  1.00  0.00    -0.053 A 
ATOM     36  H   UNL A   1      35.761  20.998  27.551  1.00  0.00     0.166 HD
ATOM     37  C   UNL A   1      36.366  22.068  24.978  1.00  0.00    -0.038 A 
ATOM     38  C   UNL A   1      34.992  23.106  23.275  1.00  0.00    -0.062 A 
ATOM     39  H   UNL A   1      32.956  23.389  23.772  1.00  0.00     0.063 H 
ATOM     40  C   UNL A   1      36.227  22.641  23.712  1.00  0.00    -0.060 A 
ATOM     41  H   UNL A   1      37.269  21.679  25.293  1.00  0.00     0.064 H 
ATOM     42  H   UNL A   1      34.899  23.485  22.319  1.00  0.00     0.062 H 
ATOM     43  H   UNL A   1      37.051  22.721  23.096  1.00  0.00     0.062 H 
ENDBRANCH  26  29
ENDBRANCH  20  26
ENDBRANCH  17  20
ENDBRANCH  14  16
BRANCH  14  44
ATOM     44  C   UNL A   1      31.401  25.288  22.343  1.00  0.00     0.020 C 
ATOM     45  H   UNL A   1      30.617  25.301  21.615  1.00  0.00     0.040 H 
ATOM     46  H   UNL A   1      31.656  24.333  22.752  1.00  0.00     0.040 H 
BRANCH  44  47
ATOM     47  S   UNL A   1      32.920  25.824  21.500  1.00  0.00    -0.177 SA
ATOM     48  H   UNL A   1      33.736  26.448  22.391  1.00  0.00     0.102 HD
ENDBRANCH  44  47
ENDBRANCH  14  44
ENDBRANCH  11  14
ENDBRANCH   8  10
BRANCH   8  49
ATOM     49  C   UNL A   1      33.147  28.526  24.146  1.00  0.00     0.072 C 
ATOM     50  H   UNL A   1      32.884  27.835  23.372  1.00  0.00     0.059 H 
ATOM     51  H   UNL A   1      33.901  28.142  24.799  1.00  0.00     0.059 H 
BRANCH  49  52
ATOM     52  O   UNL A   1      33.682  29.699  23.539  1.00  0.00    -0.394 OA
ATOM     53  H   UNL A   1      33.698  29.586  22.575  1.00  0.00     0.210 HD
ENDBRANCH  49  52
ENDBRANCH   8  49
ENDBRANCH   5   8
ENDBRANCH   1   4
BRANCH   1  54
ATOM     54  C   UNL A   1      34.964  30.847  27.704  1.00  0.00    -0.036 C 
ATOM     55  H   UNL A   1      35.405  31.361  26.875  1.00  0.00     0.028 H 
ATOM     56  H   UNL A   1      35.669  30.243  28.235  1.00  0.00     0.028 H 
BRANCH  54  57
ATOM     57  C   UNL A   1      34.439  31.891  28.693  1.00  0.00    -0.052 C 
ATOM     58  H   UNL A   1      35.003  31.805  29.599  1.00  0.00     0.027 H 
ATOM     59  H   UNL A   1      33.398  31.686  28.826  1.00  0.00     0.027 H 
BRANCH  57  60
ATOM     60  C   UNL A   1      34.538  33.338  28.202  1.00  0.00    -0.052 C 
ATOM     61  H   UNL A   1      34.715  33.320  27.147  1.00  0.00     0.027 H 
ATOM     62  H   UNL A   1      35.334  33.789  28.757  1.00  0.00     0.027 H 
BRANCH  60  63
ATOM     63  C   UNL A   1      33.296  34.194  28.463  1.00  0.00    -0.036 C 
ATOM     64  H   UNL A   1      32.660  33.665  29.142  1.00  0.00     0.028 H 
ATOM     65  H   UNL A   1      32.836  34.365  27.511  1.00  0.00     0.028 H 
BRANCH  63  66
ATOM     66  C   UNL A   1      33.593  35.561  29.055  1.00  0.00     0.018 C 
ATOM     67  H   UNL A   1      33.439  36.306  28.302  1.00  0.00     0.049 H 
ATOM     68  H   UNL A   1      34.608  35.564  29.394  1.00  0.00     0.049 H 
BRANCH  66  69
ATOM     69  N   UNL A   1      32.736  35.855  30.189  1.00  0.00    -0.352 N 
ATOM     70  C   UNL A   1      32.835  35.412  31.482  1.00  0.00     0.251 C 
ATOM     71  H   UNL A   1      31.979  36.456  30.004  1.00  0.00     0.163 HD
ATOM     72  O   UNL A   1      31.909  35.571  32.266  1.00  0.00    -0.269 OA
BRANCH  70  73
ATOM     73  C   UNL A   1      34.068  34.725  31.916  1.00  0.00     0.039 A 
ATOM     74  C   UNL A   1      34.044  33.338  32.073  1.00  0.00    -0.049 A 
ATOM     75  C   UNL A   1      35.239  35.447  32.169  1.00  0.00    -0.049 A 
ATOM     76  C   UNL A   1      35.210  32.671  32.448  1.00  0.00    -0.053 A 
ATOM     77  H   UNL A   1      33.171  32.812  31.913  1.00  0.00     0.063 H 
ATOM     78  C   UNL A   1      36.419  34.771  32.456  1.00  0.00    -0.053 A 
ATOM     79  H   UNL A   1      35.226  36.478  32.142  1.00  0.00     0.063 H 
ATOM     80  C   UNL A   1      36.412  33.379  32.617  1.00  0.00    -0.014 A 
ATOM     81  H   UNL A   1      35.189  31.651  32.603  1.00  0.00     0.063 H 
ATOM     82  H   UNL A   1      37.303  35.297  32.551  1.00  0.00     0.063 H 
BRANCH  80  83
ATOM     83  C   UNL A   1      37.664  32.669  32.976  1.00  0.00     0.031 A 
ATOM     84  C   UNL A   1      38.363  32.972  34.271  1.00  0.00     0.074 A 
ATOM     85  C   UNL A   1      38.188  31.777  32.114  1.00  0.00     0.049 A 
ATOM     86  N   UNL A   1      39.460  32.451  34.760  1.00  0.00    -0.248 NA
ATOM     87  C   UNL A   1      37.769  34.019  35.118  1.00  0.00    -0.034 C 
ATOM     88  C   UNL A   1      37.635  31.448  30.799  1.00  0.00    -0.036 A 
ATOM     89  N   UNL A   1      39.303  30.984  32.213  1.00  0.00    -0.354 N 
ATOM     90  C   UNL A   1      39.690  33.113  35.959  1.00  0.00     0.074 A 
ATOM     91  C   UNL A   1      38.659  34.117  36.094  1.00  0.00    -0.034 C 
ATOM     92  H   UNL A   1      36.889  34.541  34.985  1.00  0.00     0.065 H 
ATOM     93  C   UNL A   1      38.390  30.497  30.229  1.00  0.00    -0.036 A 
ATOM     94  H   UNL A   1      36.797  31.880  30.378  1.00  0.00     0.065 H 
ATOM     95  C   UNL A   1      39.500  30.174  31.121  1.00  0.00     0.049 A 
ATOM     96  H   UNL A   1      39.904  30.994  32.992  1.00  0.00     0.167 HD
ATOM     97  C   UNL A   1      40.658  32.883  36.878  1.00  0.00     0.037 A 
ATOM     98  H   UNL A   1      38.621  34.817  36.850  1.00  0.00     0.065 H 
ATOM     99  H   UNL A   1      38.216  30.064  29.310  1.00  0.00     0.065 H 
ATOM    100  C   UNL A   1      40.466  29.271  30.870  1.00  0.00     0.037 A 
ATOM    101  C   UNL A   1      41.668  31.867  36.747  1.00  0.00     0.049 A 
ATOM    102  C   UNL A   1      41.526  29.027  31.911  1.00  0.00     0.074 A 
ATOM    103  C   UNL A   1      42.652  31.506  37.648  1.00  0.00    -0.036 A 
ATOM    104  N   UNL A   1      41.827  31.052  35.633  1.00  0.00    -0.354 N 
ATOM    105  N   UNL A   1      41.682  29.596  33.082  1.00  0.00    -0.248 NA
ATOM    106  C   UNL A   1      42.536  28.007  31.600  1.00  0.00    -0.034 C 
ATOM    107  C   UNL A   1      43.443  30.515  37.058  1.00  0.00    -0.036 A 
ATOM    108  H   UNL A   1      42.781  31.900  38.594  1.00  0.00     0.065 H 
ATOM    109  C   UNL A   1      42.912  30.209  35.815  1.00  0.00     0.049 A 
ATOM    110  H   UNL A   1      41.254  31.070  34.833  1.00  0.00     0.167 HD
ATOM    111  C   UNL A   1      42.785  28.982  33.661  1.00  0.00     0.074 A 
ATOM    112  C   UNL A   1      43.249  27.988  32.717  1.00  0.00    -0.034 C 
ATOM    113  H   UNL A   1      42.656  27.452  30.740  1.00  0.00     0.065 H 
ATOM    114  H   UNL A   1      44.283  30.084  37.477  1.00  0.00     0.065 H 
ATOM    115  C   UNL A   1      43.359  29.220  34.867  1.00  0.00     0.037 A 
ATOM    116  H   UNL A   1      44.038  27.345  32.891  1.00  0.00     0.065 H 
BRANCH  97 117
ATOM    117  C   UNL A   1      40.670  33.749  38.107  1.00  0.00     0.064 A 
ATOM    118  C   UNL A   1      41.488  34.887  38.202  1.00  0.00     0.173 A 
ATOM    119  C   UNL A   1      39.833  33.456  39.193  1.00  0.00     0.173 A 
ATOM    120  F   UNL A   1      42.317  35.209  37.197  1.00  0.00    -0.203 F 
ATOM    121  C   UNL A   1      41.494  35.673  39.351  1.00  0.00     0.198 A 
ATOM    122  C   UNL A   1      39.815  34.264  40.327  1.00  0.00     0.198 A 
ATOM    123  F   UNL A   1      39.025  32.384  39.155  1.00  0.00    -0.203 F 
ATOM    124  F   UNL A   1      42.329  36.718  39.441  1.00  0.00    -0.200 F 
ATOM    125  C   UNL A   1      40.653  35.366  40.409  1.00  0.00     0.200 A 
ATOM    126  F   UNL A   1      38.990  33.975  41.342  1.00  0.00    -0.200 F 
ATOM    127  F   UNL A   1      40.655  36.127  41.512  1.00  0.00    -0.200 F 
ENDBRANCH  97 117
BRANCH 100 128
ATOM    128  C   UNL A   1      40.453  28.509  29.595  1.00  0.00     0.064 A 
ATOM    129  C   UNL A   1      39.717  27.322  29.470  1.00  0.00     0.173 A 
ATOM    130  C   UNL A   1      41.165  28.956  28.472  1.00  0.00     0.173 A 
ATOM    131  F   UNL A   1      39.032  26.846  30.520  1.00  0.00    -0.203 F 
ATOM    132  C   UNL A   1      39.712  26.601  28.278  1.00  0.00     0.198 A 
ATOM    133  C   UNL A   1      41.134  28.250  27.271  1.00  0.00     0.198 A 
ATOM    134  F   UNL A   1      41.878  30.090  28.535  1.00  0.00    -0.203 F 
ATOM    135  F   UNL A   1      39.036  25.446  28.199  1.00  0.00    -0.200 F 
ATOM    136  C   UNL A   1      40.414  27.068  27.177  1.00  0.00     0.200 A 
ATOM    137  F   UNL A   1      41.800  28.715  26.205  1.00  0.00    -0.200 F 
ATOM    138  F   UNL A   1      40.402  26.379  26.029  1.00  0.00    -0.200 F 
ENDBRANCH 100 128
BRANCH 115 139
ATOM    139  C   UNL A   1      44.529  28.362  35.254  1.00  0.00     0.064 A 
ATOM    140  C   UNL A   1      44.361  27.137  35.916  1.00  0.00     0.173 A 
ATOM    141  C   UNL A   1      45.834  28.753  34.918  1.00  0.00     0.173 A 
ATOM    142  F   UNL A   1      43.135  26.723  36.273  1.00  0.00    -0.203 F 
ATOM    143  C   UNL A   1      45.459  26.351  36.255  1.00  0.00     0.198 A 
ATOM    144  C   UNL A   1      46.926  27.947  35.226  1.00  0.00     0.198 A 
ATOM    145  F   UNL A   1      46.050  29.911  34.276  1.00  0.00    -0.203 F 
ATOM    146  F   UNL A   1      45.280  25.209  36.935  1.00  0.00    -0.200 F 
ATOM    147  C   UNL A   1      46.739  26.751  35.902  1.00  0.00     0.200 A 
ATOM    148  F   UNL A   1      48.160  28.329  34.869  1.00  0.00    -0.200 F 
ATOM    149  F   UNL A   1      47.794  25.988  36.220  1.00  0.00    -0.200 F 
ENDBRANCH 115 139
ENDBRANCH  80  83
ENDBRANCH  70  73
ENDBRANCH  66  69
ENDBRANCH  63  66
ENDBRANCH  60  63
ENDBRANCH  57  60
ENDBRANCH  54  57
ENDBRANCH   1  54
TORSDOF 24
ENDMDL
MODEL 5
REMARK VINA RESULT:     -11.5      1.829      7.385
REMARK SMILES [NH3+][C@@H](Cc1c[nH]c2ccccc12)C(=O)N[C@@H](CS)C(=O)N[C@@H](CO)C(=O)NCCCCCCNC(=O)c1ccc(-c2c3nc(c(-c4c(F)c(F)c(F)c(F)c4F)c4ccc([nH]4)c(-c4c(F)c(F)c(F)c(F)c4F)c4nc(c(-c5c(F)c(F)c(F)c(F)c5F)c5ccc2[nH]5)C=C4)C=C3)cc1
REMARK SMILES IDX 28 1 27 4 25 5 26 6 22 8 21 10 19 11 20 12 16 14 15 16 13 17
REMARK SMILES IDX 14 18 2 20 1 22 3 26 4 29 5 30 12 31 6 32 7 34 11 35 8 37
REMARK SMILES IDX 10 38 9 40 17 44 18 47 23 49 24 52 29 54 30 57 31 60 32 63
REMARK SMILES IDX 33 66 34 69 35 70 36 72 37 73 38 74 99 75 39 76 98 78 40 80
REMARK SMILES IDX 41 83 42 84 92 85 43 86 97 87 91 88 93 89 44 90 96 91 90 93
REMARK SMILES IDX 89 95 45 97 77 100 57 101 76 102 58 103 61 104 75 105 94 106
REMARK SMILES IDX 59 107 60 109 74 111 95 112 62 115 46 117 47 118 55 119
REMARK SMILES IDX 48 120 49 121 53 122 56 123 50 124 51 125 54 126 52 127
REMARK SMILES IDX 78 128 79 129 87 130 80 131 81 132 85 133 88 134 82 135
REMARK SMILES IDX 83 136 86 137 84 138 63 139 64 140 72 141 65 142 66 143
REMARK SMILES IDX 70 144 73 145 67 146 68 147 71 148 69 149
REMARK H PARENT 28 2 28 3 27 7 22 9 21 13 16 15 15 19 2 21 1 23 1 24 1 25 3 27
REMARK H PARENT 3 28 5 33 6 36 11 39 8 41 10 42 9 43 17 45 17 46 18 48 23 50
REMARK H PARENT 23 51 24 53 29 55 29 56 30 58 30 59 31 61 31 62 32 64 32 65
REMARK H PARENT 33 67 33 68 34 71 38 77 99 79 39 81 98 82 97 92 91 94 93 96
REMARK H PARENT 96 98 90 99 58 108 61 110 94 113 59 114 95 116
REMARK Flexibility Score: inf
ROOT
ATOM      1  C   UNL A   1      38.883  23.655  26.513  1.00  0.00     0.017 C 
ATOM      2  H   UNL A   1      38.136  23.862  27.250  1.00  0.00     0.049 H 
ATOM      3  H   UNL A   1      39.258  24.559  26.081  1.00  0.00     0.049 H 
ENDROOT
BRANCH   1   4
ATOM      4  N   UNL A   1      38.290  22.863  25.455  1.00  0.00    -0.354 N 
ATOM      5  C   UNL A   1      37.014  22.808  24.987  1.00  0.00     0.244 C 
ATOM      6  O   UNL A   1      36.840  22.281  23.884  1.00  0.00    -0.273 OA
ATOM      7  H   UNL A   1      38.919  22.260  24.995  1.00  0.00     0.163 HD
BRANCH   5   8
ATOM      8  C   UNL A   1      35.841  23.437  25.743  1.00  0.00     0.131 C 
ATOM      9  H   UNL A   1      36.247  23.930  26.601  1.00  0.00     0.066 H 
BRANCH   8  10
ATOM     10  N   UNL A   1      35.185  24.466  24.944  1.00  0.00    -0.340 N 
ATOM     11  C   UNL A   1      33.999  24.330  24.318  1.00  0.00     0.244 C 
ATOM     12  O   UNL A   1      34.043  24.493  23.094  1.00  0.00    -0.273 OA
ATOM     13  H   UNL A   1      35.645  25.331  24.857  1.00  0.00     0.164 HD
BRANCH  11  14
ATOM     14  C   UNL A   1      32.725  23.877  25.051  1.00  0.00     0.117 C 
ATOM     15  H   UNL A   1      33.018  23.112  25.739  1.00  0.00     0.064 H 
BRANCH  14  16
ATOM     16  N   UNL A   1      32.206  24.975  25.841  1.00  0.00    -0.338 N 
ATOM     17  C   UNL A   1      31.006  25.607  25.620  1.00  0.00     0.279 C 
ATOM     18  O   UNL A   1      30.406  26.010  26.622  1.00  0.00    -0.268 OA
ATOM     19  H   UNL A   1      32.756  25.292  26.594  1.00  0.00     0.164 HD
BRANCH  17  20
ATOM     20  C   UNL A   1      30.471  25.920  24.185  1.00  0.00     0.168 C 
ATOM     21  H   UNL A   1      30.841  25.116  23.584  1.00  0.00     0.107 H 
BRANCH  20  22
ATOM     22  N   UNL A   1      28.993  25.883  24.185  1.00  0.00    -0.347 N 
ATOM     23  H   UNL A   1      28.630  26.801  24.439  1.00  0.00     0.345 HD
ATOM     24  H   UNL A   1      28.669  25.191  24.861  1.00  0.00     0.345 HD
ATOM     25  H   UNL A   1      28.659  25.631  23.255  1.00  0.00     0.345 HD
ENDBRANCH  20  22
BRANCH  20  26
ATOM     26  C   UNL A   1      31.142  27.026  23.326  1.00  0.00     0.036 C 
ATOM     27  H   UNL A   1      30.821  26.867  22.317  1.00  0.00     0.038 H 
ATOM     28  H   UNL A   1      32.182  26.901  23.547  1.00  0.00     0.038 H 
BRANCH  26  29
ATOM     29  C   UNL A   1      30.909  28.488  23.626  1.00  0.00    -0.016 A 
ATOM     30  C   UNL A   1      31.681  29.226  24.508  1.00  0.00     0.005 A 
ATOM     31  C   UNL A   1      29.886  29.389  23.156  1.00  0.00     0.003 A 
ATOM     32  N   UNL A   1      31.064  30.424  24.739  1.00  0.00    -0.361 N 
ATOM     33  H   UNL A   1      32.576  28.921  24.922  1.00  0.00     0.082 H 
ATOM     34  C   UNL A   1      29.915  30.510  23.992  1.00  0.00     0.046 A 
ATOM     35  C   UNL A   1      28.856  29.319  22.195  1.00  0.00    -0.053 A 
ATOM     36  H   UNL A   1      31.394  31.121  25.349  1.00  0.00     0.166 HD
ATOM     37  C   UNL A   1      28.903  31.479  24.007  1.00  0.00    -0.038 A 
ATOM     38  C   UNL A   1      27.835  30.278  22.196  1.00  0.00    -0.062 A 
ATOM     39  H   UNL A   1      28.854  28.563  21.493  1.00  0.00     0.063 H 
ATOM     40  C   UNL A   1      27.844  31.325  23.111  1.00  0.00    -0.060 A 
ATOM     41  H   UNL A   1      28.940  32.280  24.659  1.00  0.00     0.064 H 
ATOM     42  H   UNL A   1      27.067  30.206  21.510  1.00  0.00     0.062 H 
ATOM     43  H   UNL A   1      27.060  31.995  23.129  1.00  0.00     0.062 H 
ENDBRANCH  26  29
ENDBRANCH  20  26
ENDBRANCH  17  20
ENDBRANCH  14  16
BRANCH  14  44
ATOM     44  C   UNL A   1      31.739  22.948  24.328  1.00  0.00     0.020 C 
ATOM     45  H   UNL A   1      31.282  23.521  23.548  1.00  0.00     0.040 H 
ATOM     46  H   UNL A   1      31.093  22.602  25.107  1.00  0.00     0.040 H 
BRANCH  44  47
ATOM     47  S   UNL A   1      32.367  21.421  23.569  1.00  0.00    -0.177 SA
ATOM     48  H   UNL A   1      31.828  20.345  24.202  1.00  0.00     0.102 HD
ENDBRANCH  44  47
ENDBRANCH  14  44
ENDBRANCH  11  14
ENDBRANCH   8  10
BRANCH   8  49
ATOM     49  C   UNL A   1      34.868  22.390  26.313  1.00  0.00     0.072 C 
ATOM     50  H   UNL A   1      33.934  22.481  25.797  1.00  0.00     0.059 H 
ATOM     51  H   UNL A   1      34.777  22.585  27.360  1.00  0.00     0.059 H 
BRANCH  49  52
ATOM     52  O   UNL A   1      35.326  21.047  26.179  1.00  0.00    -0.394 OA
ATOM     53  H   UNL A   1      34.649  20.517  25.729  1.00  0.00     0.210 HD
ENDBRANCH  49  52
ENDBRANCH   8  49
ENDBRANCH   5   8
ENDBRANCH   1   4
BRANCH   1  54
ATOM     54  C   UNL A   1      40.046  22.932  27.180  1.00  0.00    -0.036 C 
ATOM     55  H   UNL A   1      39.879  22.929  28.237  1.00  0.00     0.028 H 
ATOM     56  H   UNL A   1      40.938  23.456  26.907  1.00  0.00     0.028 H 
BRANCH  54  57
ATOM     57  C   UNL A   1      40.222  21.484  26.717  1.00  0.00    -0.052 C 
ATOM     58  H   UNL A   1      39.703  21.365  25.788  1.00  0.00     0.027 H 
ATOM     59  H   UNL A   1      39.831  20.866  27.497  1.00  0.00     0.027 H 
BRANCH  57  60
ATOM     60  C   UNL A   1      41.678  21.054  26.510  1.00  0.00    -0.052 C 
ATOM     61  H   UNL A   1      42.165  21.059  27.463  1.00  0.00     0.027 H 
ATOM     62  H   UNL A   1      42.099  21.750  25.815  1.00  0.00     0.027 H 
BRANCH  60  63
ATOM     63  C   UNL A   1      41.858  19.666  25.890  1.00  0.00    -0.036 C 
ATOM     64  H   UNL A   1      41.701  19.747  24.834  1.00  0.00     0.028 H 
ATOM     65  H   UNL A   1      41.149  19.022  26.367  1.00  0.00     0.028 H 
BRANCH  63  66
ATOM     66  C   UNL A   1      43.229  19.053  26.123  1.00  0.00     0.018 C 
ATOM     67  H   UNL A   1      43.109  18.122  26.637  1.00  0.00     0.049 H 
ATOM     68  H   UNL A   1      43.807  19.741  26.704  1.00  0.00     0.049 H 
BRANCH  66  69
ATOM     69  N   UNL A   1      43.931  18.813  24.875  1.00  0.00    -0.352 N 
ATOM     70  C   UNL A   1      44.584  19.708  24.068  1.00  0.00     0.251 C 
ATOM     71  H   UNL A   1      43.940  17.879  24.567  1.00  0.00     0.163 HD
ATOM     72  O   UNL A   1      44.933  19.387  22.940  1.00  0.00    -0.269 OA
BRANCH  70  73
ATOM     73  C   UNL A   1      44.848  21.072  24.569  1.00  0.00     0.039 A 
ATOM     74  C   UNL A   1      44.405  22.161  23.816  1.00  0.00    -0.049 A 
ATOM     75  C   UNL A   1      45.530  21.272  25.772  1.00  0.00    -0.049 A 
ATOM     76  C   UNL A   1      44.616  23.454  24.292  1.00  0.00    -0.053 A 
ATOM     77  H   UNL A   1      43.927  22.009  22.914  1.00  0.00     0.063 H 
ATOM     78  C   UNL A   1      45.660  22.557  26.287  1.00  0.00    -0.053 A 
ATOM     79  H   UNL A   1      45.936  20.469  26.277  1.00  0.00     0.063 H 
ATOM     80  C   UNL A   1      45.221  23.661  25.543  1.00  0.00    -0.014 A 
ATOM     81  H   UNL A   1      44.325  24.264  23.723  1.00  0.00     0.063 H 
ATOM     82  H   UNL A   1      46.081  22.698  27.219  1.00  0.00     0.063 H 
BRANCH  80  83
ATOM     83  C   UNL A   1      45.410  25.034  26.074  1.00  0.00     0.031 A 
ATOM     84  C   UNL A   1      46.766  25.680  26.039  1.00  0.00     0.074 A 
ATOM     85  C   UNL A   1      44.364  25.680  26.621  1.00  0.00     0.049 A 
ATOM     86  N   UNL A   1      47.126  26.870  26.447  1.00  0.00    -0.248 NA
ATOM     87  C   UNL A   1      47.873  24.874  25.500  1.00  0.00    -0.034 C 
ATOM     88  C   UNL A   1      43.015  25.130  26.771  1.00  0.00    -0.036 A 
ATOM     89  N   UNL A   1      44.269  26.941  27.154  1.00  0.00    -0.354 N 
ATOM     90  C   UNL A   1      48.494  26.949  26.226  1.00  0.00     0.074 A 
ATOM     91  C   UNL A   1      48.914  25.665  25.709  1.00  0.00    -0.034 C 
ATOM     92  H   UNL A   1      47.845  23.935  25.072  1.00  0.00     0.065 H 
ATOM     93  C   UNL A   1      42.220  26.059  27.322  1.00  0.00    -0.036 A 
ATOM     94  H   UNL A   1      42.724  24.179  26.496  1.00  0.00     0.065 H 
ATOM     95  C   UNL A   1      43.008  27.257  27.597  1.00  0.00     0.049 A 
ATOM     96  H   UNL A   1      45.031  27.561  27.212  1.00  0.00     0.167 HD
ATOM     97  C   UNL A   1      49.320  28.006  26.409  1.00  0.00     0.037 A 
ATOM     98  H   UNL A   1      49.894  25.402  25.526  1.00  0.00     0.065 H 
ATOM     99  H   UNL A   1      41.214  25.946  27.520  1.00  0.00     0.065 H 
ATOM    100  C   UNL A   1      42.540  28.386  28.161  1.00  0.00     0.037 A 
ATOM    101  C   UNL A   1      48.891  29.287  26.904  1.00  0.00     0.049 A 
ATOM    102  C   UNL A   1      43.476  29.551  28.347  1.00  0.00     0.074 A 
ATOM    103  C   UNL A   1      49.631  30.444  27.064  1.00  0.00    -0.036 A 
ATOM    104  N   UNL A   1      47.600  29.576  27.328  1.00  0.00    -0.354 N 
ATOM    105  N   UNL A   1      44.750  29.644  28.049  1.00  0.00    -0.248 NA
ATOM    106  C   UNL A   1      42.906  30.770  28.934  1.00  0.00    -0.034 C 
ATOM    107  C   UNL A   1      48.806  31.415  27.640  1.00  0.00    -0.036 A 
ATOM    108  H   UNL A   1      50.622  30.569  26.803  1.00  0.00     0.065 H 
ATOM    109  C   UNL A   1      47.532  30.886  27.776  1.00  0.00     0.049 A 
ATOM    110  H   UNL A   1      46.845  28.945  27.313  1.00  0.00     0.167 HD
ATOM    111  C   UNL A   1      45.126  30.940  28.382  1.00  0.00     0.074 A 
ATOM    112  C   UNL A   1      43.940  31.597  28.891  1.00  0.00    -0.034 C 
ATOM    113  H   UNL A   1      41.951  30.938  29.286  1.00  0.00     0.065 H 
ATOM    114  H   UNL A   1      49.096  32.366  27.917  1.00  0.00     0.065 H 
ATOM    115  C   UNL A   1      46.342  31.529  28.275  1.00  0.00     0.037 A 
ATOM    116  H   UNL A   1      43.906  32.587  29.184  1.00  0.00     0.065 H 
BRANCH  97 117
ATOM    117  C   UNL A   1      50.774  27.819  26.075  1.00  0.00     0.064 A 
ATOM    118  C   UNL A   1      51.263  27.998  24.771  1.00  0.00     0.173 A 
ATOM    119  C   UNL A   1      51.697  27.485  27.077  1.00  0.00     0.173 A 
ATOM    120  F   UNL A   1      50.423  28.308  23.772  1.00  0.00    -0.203 F 
ATOM    121  C   UNL A   1      52.611  27.812  24.477  1.00  0.00     0.198 A 
ATOM    122  C   UNL A   1      53.051  27.335  26.787  1.00  0.00     0.198 A 
ATOM    123  F   UNL A   1      51.288  27.308  28.343  1.00  0.00    -0.203 F 
ATOM    124  F   UNL A   1      53.042  27.928  23.213  1.00  0.00    -0.200 F 
ATOM    125  C   UNL A   1      53.504  27.488  25.486  1.00  0.00     0.200 A 
ATOM    126  F   UNL A   1      53.915  27.037  27.766  1.00  0.00    -0.200 F 
ATOM    127  F   UNL A   1      54.803  27.315  25.203  1.00  0.00    -0.200 F 
ENDBRANCH  97 117
BRANCH 100 128
ATOM    128  C   UNL A   1      41.111  28.480  28.555  1.00  0.00     0.064 A 
ATOM    129  C   UNL A   1      40.147  28.978  27.667  1.00  0.00     0.173 A 
ATOM    130  C   UNL A   1      40.676  28.063  29.822  1.00  0.00     0.173 A 
ATOM    131  F   UNL A   1      40.516  29.404  26.451  1.00  0.00    -0.203 F 
ATOM    132  C   UNL A   1      38.808  29.076  28.039  1.00  0.00     0.198 A 
ATOM    133  C   UNL A   1      39.331  28.132  30.182  1.00  0.00     0.198 A 
ATOM    134  F   UNL A   1      41.556  27.569  30.706  1.00  0.00    -0.203 F 
ATOM    135  F   UNL A   1      37.915  29.598  27.187  1.00  0.00    -0.200 F 
ATOM    136  C   UNL A   1      38.400  28.647  29.293  1.00  0.00     0.200 A 
ATOM    137  F   UNL A   1      38.940  27.699  31.388  1.00  0.00    -0.200 F 
ATOM    138  F   UNL A   1      37.111  28.733  29.647  1.00  0.00    -0.200 F 
ENDBRANCH 100 128
BRANCH 115 139
ATOM    139  C   UNL A   1      46.446  32.973  28.675  1.00  0.00     0.064 A 
ATOM    140  C   UNL A   1      46.780  33.357  29.981  1.00  0.00     0.173 A 
ATOM    141  C   UNL A   1      46.249  33.986  27.723  1.00  0.00     0.173 A 
ATOM    142  F   UNL A   1      46.965  32.428  30.932  1.00  0.00    -0.203 F 
ATOM    143  C   UNL A   1      46.884  34.701  30.328  1.00  0.00     0.198 A 
ATOM    144  C   UNL A   1      46.389  35.327  28.065  1.00  0.00     0.198 A 
ATOM    145  F   UNL A   1      45.936  33.673  26.457  1.00  0.00    -0.203 F 
ATOM    146  F   UNL A   1      47.152  35.046  31.595  1.00  0.00    -0.200 F 
ATOM    147  C   UNL A   1      46.697  35.685  29.368  1.00  0.00     0.200 A 
ATOM    148  F   UNL A   1      46.224  36.275  27.131  1.00  0.00    -0.200 F 
ATOM    149  F   UNL A   1      46.807  36.978  29.701  1.00  0.00    -0.200 F 
ENDBRANCH 115 139
ENDBRANCH  80  83
ENDBRANCH  70  73
ENDBRANCH  66  69
ENDBRANCH  63  66
ENDBRANCH  60  63
ENDBRANCH  57  60
ENDBRANCH  54  57
ENDBRANCH   1  54
TORSDOF 24
ENDMDL
MODEL 6
REMARK VINA RESULT:     -11.4      5.828     10.729
REMARK SMILES [NH3+][C@@H](Cc1c[nH]c2ccccc12)C(=O)N[C@@H](CS)C(=O)N[C@@H](CO)C(=O)NCCCCCCNC(=O)c1ccc(-c2c3nc(c(-c4c(F)c(F)c(F)c(F)c4F)c4ccc([nH]4)c(-c4c(F)c(F)c(F)c(F)c4F)c4nc(c(-c5c(F)c(F)c(F)c(F)c5F)c5ccc2[nH]5)C=C4)C=C3)cc1
REMARK SMILES IDX 28 1 27 4 25 5 26 6 22 8 21 10 19 11 20 12 16 14 15 16 13 17
REMARK SMILES IDX 14 18 2 20 1 22 3 26 4 29 5 30 12 31 6 32 7 34 11 35 8 37
REMARK SMILES IDX 10 38 9 40 17 44 18 47 23 49 24 52 29 54 30 57 31 60 32 63
REMARK SMILES IDX 33 66 34 69 35 70 36 72 37 73 38 74 99 75 39 76 98 78 40 80
REMARK SMILES IDX 41 83 42 84 92 85 43 86 97 87 91 88 93 89 44 90 96 91 90 93
REMARK SMILES IDX 89 95 45 97 77 100 57 101 76 102 58 103 61 104 75 105 94 106
REMARK SMILES IDX 59 107 60 109 74 111 95 112 62 115 46 117 47 118 55 119
REMARK SMILES IDX 48 120 49 121 53 122 56 123 50 124 51 125 54 126 52 127
REMARK SMILES IDX 78 128 79 129 87 130 80 131 81 132 85 133 88 134 82 135
REMARK SMILES IDX 83 136 86 137 84 138 63 139 64 140 72 141 65 142 66 143
REMARK SMILES IDX 70 144 73 145 67 146 68 147 71 148 69 149
REMARK H PARENT 28 2 28 3 27 7 22 9 21 13 16 15 15 19 2 21 1 23 1 24 1 25 3 27
REMARK H PARENT 3 28 5 33 6 36 11 39 8 41 10 42 9 43 17 45 17 46 18 48 23 50
REMARK H PARENT 23 51 24 53 29 55 29 56 30 58 30 59 31 61 31 62 32 64 32 65
REMARK H PARENT 33 67 33 68 34 71 38 77 99 79 39 81 98 82 97 92 91 94 93 96
REMARK H PARENT 96 98 90 99 58 108 61 110 94 113 59 114 95 116
REMARK Flexibility Score: inf
ROOT
ATOM      1  C   UNL A   1      34.413  29.295  26.969  1.00  0.00     0.017 C 
ATOM      2  H   UNL A   1      34.235  29.565  25.949  1.00  0.00     0.049 H 
ATOM      3  H   UNL A   1      35.009  28.410  27.035  1.00  0.00     0.049 H 
ENDROOT
BRANCH   1   4
ATOM      4  N   UNL A   1      33.142  29.030  27.612  1.00  0.00    -0.354 N 
ATOM      5  C   UNL A   1      32.025  28.400  27.158  1.00  0.00     0.244 C 
ATOM      6  O   UNL A   1      31.199  28.040  28.001  1.00  0.00    -0.273 OA
ATOM      7  H   UNL A   1      33.075  29.363  28.536  1.00  0.00     0.163 HD
BRANCH   5   8
ATOM      8  C   UNL A   1      31.819  28.073  25.677  1.00  0.00     0.131 C 
ATOM      9  H   UNL A   1      32.768  27.771  25.285  1.00  0.00     0.066 H 
BRANCH   8  10
ATOM     10  N   UNL A   1      30.920  26.938  25.504  1.00  0.00    -0.340 N 
ATOM     11  C   UNL A   1      31.147  25.875  24.707  1.00  0.00     0.244 C 
ATOM     12  O   UNL A   1      30.297  25.700  23.828  1.00  0.00    -0.273 OA
ATOM     13  H   UNL A   1      30.077  26.949  26.012  1.00  0.00     0.164 HD
BRANCH  11  14
ATOM     14  C   UNL A   1      32.431  25.033  24.801  1.00  0.00     0.117 C 
ATOM     15  H   UNL A   1      32.125  24.015  24.928  1.00  0.00     0.064 H 
BRANCH  14  16
ATOM     16  N   UNL A   1      33.147  25.102  23.544  1.00  0.00    -0.338 N 
ATOM     17  C   UNL A   1      33.241  24.078  22.632  1.00  0.00     0.279 C 
ATOM     18  O   UNL A   1      33.276  24.406  21.441  1.00  0.00    -0.268 OA
ATOM     19  H   UNL A   1      33.602  25.948  23.326  1.00  0.00     0.164 HD
BRANCH  17  20
ATOM     20  C   UNL A   1      33.417  22.584  23.058  1.00  0.00     0.168 C 
ATOM     21  H   UNL A   1      33.408  22.043  22.135  1.00  0.00     0.107 H 
BRANCH  20  22
ATOM     22  N   UNL A   1      34.731  22.403  23.711  1.00  0.00    -0.347 N 
ATOM     23  H   UNL A   1      35.438  22.938  23.207  1.00  0.00     0.345 HD
ATOM     24  H   UNL A   1      34.983  21.415  23.701  1.00  0.00     0.345 HD
ATOM     25  H   UNL A   1      34.680  22.731  24.675  1.00  0.00     0.345 HD
ENDBRANCH  20  22
BRANCH  20  26
ATOM     26  C   UNL A   1      32.221  21.801  23.665  1.00  0.00     0.036 C 
ATOM     27  H   UNL A   1      31.555  21.586  22.855  1.00  0.00     0.038 H 
ATOM     28  H   UNL A   1      31.876  22.455  24.439  1.00  0.00     0.038 H 
BRANCH  26  29
ATOM     29  C   UNL A   1      32.440  20.499  24.398  1.00  0.00    -0.016 A 
ATOM     30  C   UNL A   1      32.497  20.392  25.778  1.00  0.00     0.005 A 
ATOM     31  C   UNL A   1      32.678  19.169  23.895  1.00  0.00     0.003 A 
ATOM     32  N   UNL A   1      32.949  19.145  26.106  1.00  0.00    -0.361 N 
ATOM     33  H   UNL A   1      32.239  21.133  26.448  1.00  0.00     0.082 H 
ATOM     34  C   UNL A   1      33.155  18.407  24.966  1.00  0.00     0.046 A 
ATOM     35  C   UNL A   1      32.663  18.563  22.621  1.00  0.00    -0.053 A 
ATOM     36  H   UNL A   1      33.104  18.823  27.023  1.00  0.00     0.166 HD
ATOM     37  C   UNL A   1      33.736  17.142  24.807  1.00  0.00    -0.038 A 
ATOM     38  C   UNL A   1      33.241  17.300  22.442  1.00  0.00    -0.062 A 
ATOM     39  H   UNL A   1      32.228  19.051  21.822  1.00  0.00     0.063 H 
ATOM     40  C   UNL A   1      33.797  16.615  23.516  1.00  0.00    -0.060 A 
ATOM     41  H   UNL A   1      34.106  16.618  25.617  1.00  0.00     0.064 H 
ATOM     42  H   UNL A   1      33.255  16.874  21.502  1.00  0.00     0.062 H 
ATOM     43  H   UNL A   1      34.261  15.707  23.358  1.00  0.00     0.062 H 
ENDBRANCH  26  29
ENDBRANCH  20  26
ENDBRANCH  17  20
ENDBRANCH  14  16
BRANCH  14  44
ATOM     44  C   UNL A   1      33.228  25.031  26.114  1.00  0.00     0.020 C 
ATOM     45  H   UNL A   1      32.709  25.671  26.796  1.00  0.00     0.040 H 
ATOM     46  H   UNL A   1      34.208  25.343  25.820  1.00  0.00     0.040 H 
BRANCH  44  47
ATOM     47  S   UNL A   1      33.507  23.452  26.970  1.00  0.00    -0.177 SA
ATOM     48  H   UNL A   1      32.367  22.711  26.936  1.00  0.00     0.102 HD
ENDBRANCH  44  47
ENDBRANCH  14  44
ENDBRANCH  11  14
ENDBRANCH   8  10
BRANCH   8  49
ATOM     49  C   UNL A   1      31.421  29.303  24.843  1.00  0.00     0.072 C 
ATOM     50  H   UNL A   1      31.654  30.183  25.406  1.00  0.00     0.059 H 
ATOM     51  H   UNL A   1      30.375  29.214  24.636  1.00  0.00     0.059 H 
BRANCH  49  52
ATOM     52  O   UNL A   1      32.087  29.386  23.586  1.00  0.00    -0.394 OA
ATOM     53  H   UNL A   1      32.652  28.605  23.467  1.00  0.00     0.210 HD
ENDBRANCH  49  52
ENDBRANCH   8  49
ENDBRANCH   5   8
ENDBRANCH   1   4
BRANCH   1  54
ATOM     54  C   UNL A   1      35.170  30.427  27.653  1.00  0.00    -0.036 C 
ATOM     55  H   UNL A   1      35.738  30.949  26.912  1.00  0.00     0.028 H 
ATOM     56  H   UNL A   1      35.787  29.980  28.404  1.00  0.00     0.028 H 
BRANCH  54  57
ATOM     57  C   UNL A   1      34.265  31.436  28.364  1.00  0.00    -0.052 C 
ATOM     58  H   UNL A   1      34.340  31.267  29.419  1.00  0.00     0.027 H 
ATOM     59  H   UNL A   1      33.278  31.278  27.984  1.00  0.00     0.027 H 
BRANCH  57  60
ATOM     60  C   UNL A   1      34.608  32.903  28.089  1.00  0.00    -0.052 C 
ATOM     61  H   UNL A   1      35.096  32.957  27.137  1.00  0.00     0.027 H 
ATOM     62  H   UNL A   1      35.227  33.223  28.900  1.00  0.00     0.027 H 
BRANCH  60  63
ATOM     63  C   UNL A   1      33.408  33.852  28.064  1.00  0.00    -0.036 C 
ATOM     64  H   UNL A   1      32.655  33.459  28.715  1.00  0.00     0.028 H 
ATOM     65  H   UNL A   1      33.085  33.913  27.045  1.00  0.00     0.028 H 
BRANCH  63  66
ATOM     66  C   UNL A   1      33.726  35.271  28.505  1.00  0.00     0.018 C 
ATOM     67  H   UNL A   1      33.553  35.937  27.685  1.00  0.00     0.049 H 
ATOM     68  H   UNL A   1      34.750  35.302  28.815  1.00  0.00     0.049 H 
BRANCH  66  69
ATOM     69  N   UNL A   1      32.902  35.684  29.627  1.00  0.00    -0.352 N 
ATOM     70  C   UNL A   1      33.003  35.329  30.947  1.00  0.00     0.251 C 
ATOM     71  H   UNL A   1      32.170  36.304  29.409  1.00  0.00     0.163 HD
ATOM     72  O   UNL A   1      32.098  35.586  31.730  1.00  0.00    -0.269 OA
BRANCH  70  73
ATOM     73  C   UNL A   1      34.211  34.619  31.412  1.00  0.00     0.039 A 
ATOM     74  C   UNL A   1      34.105  33.271  31.759  1.00  0.00    -0.049 A 
ATOM     75  C   UNL A   1      35.439  35.281  31.508  1.00  0.00    -0.049 A 
ATOM     76  C   UNL A   1      35.244  32.577  32.167  1.00  0.00    -0.053 A 
ATOM     77  H   UNL A   1      33.192  32.793  31.714  1.00  0.00     0.063 H 
ATOM     78  C   UNL A   1      36.586  34.566  31.829  1.00  0.00    -0.053 A 
ATOM     79  H   UNL A   1      35.492  36.298  31.340  1.00  0.00     0.063 H 
ATOM     80  C   UNL A   1      36.497  33.212  32.180  1.00  0.00    -0.014 A 
ATOM     81  H   UNL A   1      35.165  31.591  32.461  1.00  0.00     0.063 H 
ATOM     82  H   UNL A   1      37.507  35.034  31.809  1.00  0.00     0.063 H 
BRANCH  80  83
ATOM     83  C   UNL A   1      37.718  32.467  32.573  1.00  0.00     0.031 A 
ATOM     84  C   UNL A   1      38.399  32.763  33.879  1.00  0.00     0.074 A 
ATOM     85  C   UNL A   1      38.232  31.549  31.732  1.00  0.00     0.049 A 
ATOM     86  N   UNL A   1      39.469  32.214  34.397  1.00  0.00    -0.248 NA
ATOM     87  C   UNL A   1      37.821  33.838  34.702  1.00  0.00    -0.034 C 
ATOM     88  C   UNL A   1      37.696  31.223  30.409  1.00  0.00    -0.036 A 
ATOM     89  N   UNL A   1      39.318  30.723  31.864  1.00  0.00    -0.354 N 
ATOM     90  C   UNL A   1      39.695  32.882  35.594  1.00  0.00     0.074 A 
ATOM     91  C   UNL A   1      38.693  33.919  35.695  1.00  0.00    -0.034 C 
ATOM     92  H   UNL A   1      36.961  34.385  34.544  1.00  0.00     0.065 H 
ATOM     93  C   UNL A   1      38.433  30.242  29.866  1.00  0.00    -0.036 A 
ATOM     94  H   UNL A   1      36.881  31.676  29.966  1.00  0.00     0.065 H 
ATOM     95  C   UNL A   1      39.513  29.894  30.785  1.00  0.00     0.049 A 
ATOM     96  H   UNL A   1      39.904  30.723  32.655  1.00  0.00     0.167 HD
ATOM     97  C   UNL A   1      40.635  32.632  36.536  1.00  0.00     0.037 A 
ATOM     98  H   UNL A   1      38.661  34.629  36.443  1.00  0.00     0.065 H 
ATOM     99  H   UNL A   1      38.264  29.804  28.948  1.00  0.00     0.065 H 
ATOM    100  C   UNL A   1      40.455  28.959  30.565  1.00  0.00     0.037 A 
ATOM    101  C   UNL A   1      41.615  31.584  36.437  1.00  0.00     0.049 A 
ATOM    102  C   UNL A   1      41.484  28.694  31.630  1.00  0.00     0.074 A 
ATOM    103  C   UNL A   1      42.568  31.202  37.362  1.00  0.00    -0.036 A 
ATOM    104  N   UNL A   1      41.771  30.752  35.336  1.00  0.00    -0.354 N 
ATOM    105  N   UNL A   1      41.633  29.271  32.799  1.00  0.00    -0.248 NA
ATOM    106  C   UNL A   1      42.468  27.639  31.353  1.00  0.00    -0.034 C 
ATOM    107  C   UNL A   1      43.340  30.181  36.801  1.00  0.00    -0.036 A 
ATOM    108  H   UNL A   1      42.689  31.603  38.307  1.00  0.00     0.065 H 
ATOM    109  C   UNL A   1      42.825  29.877  35.550  1.00  0.00     0.049 A 
ATOM    110  H   UNL A   1      41.216  30.778  34.524  1.00  0.00     0.167 HD
ATOM    111  C   UNL A   1      42.704  28.629  33.408  1.00  0.00     0.074 A 
ATOM    112  C   UNL A   1      43.157  27.610  32.484  1.00  0.00    -0.034 C 
ATOM    113  H   UNL A   1      42.588  27.070  30.501  1.00  0.00     0.065 H 
ATOM    114  H   UNL A   1      44.156  29.728  37.242  1.00  0.00     0.065 H 
ATOM    115  C   UNL A   1      43.260  28.863  34.622  1.00  0.00     0.037 A 
ATOM    116  H   UNL A   1      43.921  26.945  32.683  1.00  0.00     0.065 H 
BRANCH  97 117
ATOM    117  C   UNL A   1      40.649  33.512  37.755  1.00  0.00     0.064 A 
ATOM    118  C   UNL A   1      39.765  33.306  38.826  1.00  0.00     0.173 A 
ATOM    119  C   UNL A   1      41.578  34.557  37.867  1.00  0.00     0.173 A 
ATOM    120  F   UNL A   1      38.849  32.328  38.768  1.00  0.00    -0.203 F 
ATOM    121  C   UNL A   1      39.785  34.136  39.944  1.00  0.00     0.198 A 
ATOM    122  C   UNL A   1      41.619  35.364  39.002  1.00  0.00     0.198 A 
ATOM    123  F   UNL A   1      42.451  34.797  36.876  1.00  0.00    -0.203 F 
ATOM    124  F   UNL A   1      38.891  33.957  40.926  1.00  0.00    -0.200 F 
ATOM    125  C   UNL A   1      40.717  35.159  40.034  1.00  0.00     0.200 A 
ATOM    126  F   UNL A   1      42.530  36.341  39.094  1.00  0.00    -0.200 F 
ATOM    127  F   UNL A   1      40.740  35.953  41.113  1.00  0.00    -0.200 F 
ENDBRANCH  97 117
BRANCH 100 128
ATOM    128  C   UNL A   1      40.444  28.182  29.298  1.00  0.00     0.064 A 
ATOM    129  C   UNL A   1      39.658  27.029  29.163  1.00  0.00     0.173 A 
ATOM    130  C   UNL A   1      41.209  28.582  28.192  1.00  0.00     0.173 A 
ATOM    131  F   UNL A   1      38.922  26.598  30.197  1.00  0.00    -0.203 F 
ATOM    132  C   UNL A   1      39.655  26.294  27.980  1.00  0.00     0.198 A 
ATOM    133  C   UNL A   1      41.181  27.864  26.998  1.00  0.00     0.198 A 
ATOM    134  F   UNL A   1      41.971  29.684  28.265  1.00  0.00    -0.203 F 
ATOM    135  F   UNL A   1      38.930  25.171  27.893  1.00  0.00    -0.200 F 
ATOM    136  C   UNL A   1      40.411  26.716  26.896  1.00  0.00     0.200 A 
ATOM    137  F   UNL A   1      41.899  28.286  25.949  1.00  0.00    -0.200 F 
ATOM    138  F   UNL A   1      40.401  26.013  25.756  1.00  0.00    -0.200 F 
ENDBRANCH 100 128
BRANCH 115 139
ATOM    139  C   UNL A   1      44.394  27.973  35.044  1.00  0.00     0.064 A 
ATOM    140  C   UNL A   1      45.733  28.328  34.829  1.00  0.00     0.173 A 
ATOM    141  C   UNL A   1      44.134  26.767  35.713  1.00  0.00     0.173 A 
ATOM    142  F   UNL A   1      46.036  29.465  34.182  1.00  0.00    -0.203 F 
ATOM    143  C   UNL A   1      46.770  27.494  35.239  1.00  0.00     0.198 A 
ATOM    144  C   UNL A   1      45.174  25.953  36.154  1.00  0.00     0.198 A 
ATOM    145  F   UNL A   1      42.871  26.384  35.953  1.00  0.00    -0.203 F 
ATOM    146  F   UNL A   1      48.041  27.828  34.976  1.00  0.00    -0.200 F 
ATOM    147  C   UNL A   1      46.490  26.312  35.909  1.00  0.00     0.200 A 
ATOM    148  F   UNL A   1      44.900  24.820  36.816  1.00  0.00    -0.200 F 
ATOM    149  F   UNL A   1      47.489  25.516  36.313  1.00  0.00    -0.200 F 
ENDBRANCH 115 139
ENDBRANCH  80  83
ENDBRANCH  70  73
ENDBRANCH  66  69
ENDBRANCH  63  66
ENDBRANCH  60  63
ENDBRANCH  57  60
ENDBRANCH  54  57
ENDBRANCH   1  54
TORSDOF 24
ENDMDL
MODEL 7
REMARK VINA RESULT:     -11.4      1.037      6.990
REMARK SMILES [NH3+][C@@H](Cc1c[nH]c2ccccc12)C(=O)N[C@@H](CS)C(=O)N[C@@H](CO)C(=O)NCCCCCCNC(=O)c1ccc(-c2c3nc(c(-c4c(F)c(F)c(F)c(F)c4F)c4ccc([nH]4)c(-c4c(F)c(F)c(F)c(F)c4F)c4nc(c(-c5c(F)c(F)c(F)c(F)c5F)c5ccc2[nH]5)C=C4)C=C3)cc1
REMARK SMILES IDX 28 1 27 4 25 5 26 6 22 8 21 10 19 11 20 12 16 14 15 16 13 17
REMARK SMILES IDX 14 18 2 20 1 22 3 26 4 29 5 30 12 31 6 32 7 34 11 35 8 37
REMARK SMILES IDX 10 38 9 40 17 44 18 47 23 49 24 52 29 54 30 57 31 60 32 63
REMARK SMILES IDX 33 66 34 69 35 70 36 72 37 73 38 74 99 75 39 76 98 78 40 80
REMARK SMILES IDX 41 83 42 84 92 85 43 86 97 87 91 88 93 89 44 90 96 91 90 93
REMARK SMILES IDX 89 95 45 97 77 100 57 101 76 102 58 103 61 104 75 105 94 106
REMARK SMILES IDX 59 107 60 109 74 111 95 112 62 115 46 117 47 118 55 119
REMARK SMILES IDX 48 120 49 121 53 122 56 123 50 124 51 125 54 126 52 127
REMARK SMILES IDX 78 128 79 129 87 130 80 131 81 132 85 133 88 134 82 135
REMARK SMILES IDX 83 136 86 137 84 138 63 139 64 140 72 141 65 142 66 143
REMARK SMILES IDX 70 144 73 145 67 146 68 147 71 148 69 149
REMARK H PARENT 28 2 28 3 27 7 22 9 21 13 16 15 15 19 2 21 1 23 1 24 1 25 3 27
REMARK H PARENT 3 28 5 33 6 36 11 39 8 41 10 42 9 43 17 45 17 46 18 48 23 50
REMARK H PARENT 23 51 24 53 29 55 29 56 30 58 30 59 31 61 31 62 32 64 32 65
REMARK H PARENT 33 67 33 68 34 71 38 77 99 79 39 81 98 82 97 92 91 94 93 96
REMARK H PARENT 96 98 90 99 58 108 61 110 94 113 59 114 95 116
REMARK Flexibility Score: inf
ROOT
ATOM      1  C   UNL A   1      36.122  20.915  25.369  1.00  0.00     0.017 C 
ATOM      2  H   UNL A   1      35.505  20.589  24.558  1.00  0.00     0.049 H 
ATOM      3  H   UNL A   1      36.681  20.100  25.778  1.00  0.00     0.049 H 
ENDROOT
BRANCH   1   4
ATOM      4  N   UNL A   1      35.275  21.449  26.416  1.00  0.00    -0.354 N 
ATOM      5  C   UNL A   1      33.920  21.495  26.532  1.00  0.00     0.244 C 
ATOM      6  O   UNL A   1      33.459  21.724  27.654  1.00  0.00    -0.273 OA
ATOM      7  H   UNL A   1      35.762  21.848  27.172  1.00  0.00     0.163 HD
BRANCH   5   8
ATOM      8  C   UNL A   1      32.989  21.199  25.354  1.00  0.00     0.131 C 
ATOM      9  H   UNL A   1      32.041  21.638  25.582  1.00  0.00     0.066 H 
BRANCH   8  10
ATOM     10  N   UNL A   1      33.460  21.840  24.131  1.00  0.00    -0.340 N 
ATOM     11  C   UNL A   1      32.704  22.580  23.297  1.00  0.00     0.244 C 
ATOM     12  O   UNL A   1      32.647  22.155  22.139  1.00  0.00    -0.273 OA
ATOM     13  H   UNL A   1      34.408  21.723  23.897  1.00  0.00     0.164 HD
BRANCH  11  14
ATOM     14  C   UNL A   1      31.873  23.781  23.782  1.00  0.00     0.117 C 
ATOM     15  H   UNL A   1      32.552  24.456  24.259  1.00  0.00     0.064 H 
BRANCH  14  16
ATOM     16  N   UNL A   1      31.319  24.478  22.640  1.00  0.00    -0.338 N 
ATOM     17  C   UNL A   1      31.798  25.661  22.130  1.00  0.00     0.279 C 
ATOM     18  O   UNL A   1      31.715  25.804  20.905  1.00  0.00    -0.268 OA
ATOM     19  H   UNL A   1      30.539  24.074  22.194  1.00  0.00     0.164 HD
BRANCH  17  20
ATOM     20  C   UNL A   1      32.313  26.824  23.040  1.00  0.00     0.168 C 
ATOM     21  H   UNL A   1      32.992  26.349  23.716  1.00  0.00     0.107 H 
BRANCH  20  22
ATOM     22  N   UNL A   1      33.053  27.808  22.222  1.00  0.00    -0.347 N 
ATOM     23  H   UNL A   1      33.135  28.684  22.736  1.00  0.00     0.345 HD
ATOM     24  H   UNL A   1      32.550  27.972  21.349  1.00  0.00     0.345 HD
ATOM     25  H   UNL A   1      33.983  27.446  22.014  1.00  0.00     0.345 HD
ENDBRANCH  20  22
BRANCH  20  26
ATOM     26  C   UNL A   1      31.405  27.391  24.166  1.00  0.00     0.036 C 
ATOM     27  H   UNL A   1      31.916  27.211  25.089  1.00  0.00     0.038 H 
ATOM     28  H   UNL A   1      30.475  26.888  23.999  1.00  0.00     0.038 H 
BRANCH  26  29
ATOM     29  C   UNL A   1      31.002  28.847  24.174  1.00  0.00    -0.016 A 
ATOM     30  C   UNL A   1      31.573  29.799  25.002  1.00  0.00     0.005 A 
ATOM     31  C   UNL A   1      29.977  29.539  23.432  1.00  0.00     0.003 A 
ATOM     32  N   UNL A   1      30.824  30.942  24.942  1.00  0.00    -0.361 N 
ATOM     33  H   UNL A   1      32.424  29.668  25.569  1.00  0.00     0.082 H 
ATOM     34  C   UNL A   1      29.787  30.776  24.056  1.00  0.00     0.046 A 
ATOM     35  C   UNL A   1      29.103  29.200  22.379  1.00  0.00    -0.053 A 
ATOM     36  H   UNL A   1      31.001  31.761  25.457  1.00  0.00     0.166 HD
ATOM     37  C   UNL A   1      28.701  31.615  23.778  1.00  0.00    -0.038 A 
ATOM     38  C   UNL A   1      28.009  30.025  22.087  1.00  0.00    -0.062 A 
ATOM     39  H   UNL A   1      29.267  28.345  21.825  1.00  0.00     0.063 H 
ATOM     40  C   UNL A   1      27.796  31.200  22.799  1.00  0.00    -0.060 A 
ATOM     41  H   UNL A   1      28.574  32.510  24.278  1.00  0.00     0.064 H 
ATOM     42  H   UNL A   1      27.355  29.758  21.335  1.00  0.00     0.062 H 
ATOM     43  H   UNL A   1      26.960  31.772  22.602  1.00  0.00     0.062 H 
ENDBRANCH  26  29
ENDBRANCH  20  26
ENDBRANCH  17  20
ENDBRANCH  14  16
BRANCH  14  44
ATOM     44  C   UNL A   1      31.019  23.633  25.050  1.00  0.00     0.020 C 
ATOM     45  H   UNL A   1      31.007  22.593  25.301  1.00  0.00     0.040 H 
ATOM     46  H   UNL A   1      30.080  24.070  24.781  1.00  0.00     0.040 H 
BRANCH  44  47
ATOM     47  S   UNL A   1      31.510  24.537  26.549  1.00  0.00    -0.177 SA
ATOM     48  H   UNL A   1      30.429  24.689  27.361  1.00  0.00     0.102 HD
ENDBRANCH  44  47
ENDBRANCH  14  44
ENDBRANCH  11  14
ENDBRANCH   8  10
BRANCH   8  49
ATOM     49  C   UNL A   1      32.698  19.697  25.185  1.00  0.00     0.072 C 
ATOM     50  H   UNL A   1      33.306  19.323  24.387  1.00  0.00     0.059 H 
ATOM     51  H   UNL A   1      31.652  19.603  24.983  1.00  0.00     0.059 H 
BRANCH  49  52
ATOM     52  O   UNL A   1      32.967  18.926  26.353  1.00  0.00    -0.394 OA
ATOM     53  H   UNL A   1      33.699  18.314  26.176  1.00  0.00     0.210 HD
ENDBRANCH  49  52
ENDBRANCH   8  49
ENDBRANCH   5   8
ENDBRANCH   1   4
BRANCH   1  54
ATOM     54  C   UNL A   1      37.109  21.954  24.852  1.00  0.00    -0.036 C 
ATOM     55  H   UNL A   1      36.565  22.687  24.292  1.00  0.00     0.028 H 
ATOM     56  H   UNL A   1      37.827  21.432  24.255  1.00  0.00     0.028 H 
BRANCH  54  57
ATOM     57  C   UNL A   1      37.887  22.672  25.957  1.00  0.00    -0.052 C 
ATOM     58  H   UNL A   1      37.395  22.482  26.889  1.00  0.00     0.027 H 
ATOM     59  H   UNL A   1      37.900  23.709  25.693  1.00  0.00     0.027 H 
BRANCH  57  60
ATOM     60  C   UNL A   1      39.350  22.239  26.090  1.00  0.00    -0.052 C 
ATOM     61  H   UNL A   1      39.823  22.881  26.804  1.00  0.00     0.027 H 
ATOM     62  H   UNL A   1      39.774  22.309  25.111  1.00  0.00     0.027 H 
BRANCH  60  63
ATOM     63  C   UNL A   1      39.554  20.790  26.543  1.00  0.00    -0.036 C 
ATOM     64  H   UNL A   1      38.652  20.454  27.009  1.00  0.00     0.028 H 
ATOM     65  H   UNL A   1      40.391  20.793  27.211  1.00  0.00     0.028 H 
BRANCH  63  66
ATOM     66  C   UNL A   1      39.897  19.828  25.418  1.00  0.00     0.018 C 
ATOM     67  H   UNL A   1      40.263  20.388  24.582  1.00  0.00     0.049 H 
ATOM     68  H   UNL A   1      39.011  19.288  25.159  1.00  0.00     0.049 H 
BRANCH  66  69
ATOM     69  N   UNL A   1      40.910  18.869  25.820  1.00  0.00    -0.352 N 
ATOM     70  C   UNL A   1      42.187  19.097  26.261  1.00  0.00     0.251 C 
ATOM     71  H   UNL A   1      40.642  17.923  25.768  1.00  0.00     0.163 HD
ATOM     72  O   UNL A   1      42.988  18.176  26.348  1.00  0.00    -0.269 OA
BRANCH  70  73
ATOM     73  C   UNL A   1      42.592  20.472  26.618  1.00  0.00     0.039 A 
ATOM     74  C   UNL A   1      43.060  21.316  25.610  1.00  0.00    -0.049 A 
ATOM     75  C   UNL A   1      42.512  20.921  27.940  1.00  0.00    -0.049 A 
ATOM     76  C   UNL A   1      43.412  22.628  25.925  1.00  0.00    -0.053 A 
ATOM     77  H   UNL A   1      43.143  20.972  24.641  1.00  0.00     0.063 H 
ATOM     78  C   UNL A   1      42.780  22.253  28.234  1.00  0.00    -0.053 A 
ATOM     79  H   UNL A   1      42.255  20.265  28.694  1.00  0.00     0.063 H 
ATOM     80  C   UNL A   1      43.250  23.114  27.233  1.00  0.00    -0.014 A 
ATOM     81  H   UNL A   1      43.794  23.246  25.192  1.00  0.00     0.063 H 
ATOM     82  H   UNL A   1      42.631  22.608  29.192  1.00  0.00     0.063 H 
BRANCH  80  83
ATOM     83  C   UNL A   1      43.585  24.521  27.564  1.00  0.00     0.031 A 
ATOM     84  C   UNL A   1      45.014  24.983  27.551  1.00  0.00     0.074 A 
ATOM     85  C   UNL A   1      42.599  25.370  27.913  1.00  0.00     0.049 A 
ATOM     86  N   UNL A   1      45.501  26.172  27.805  1.00  0.00    -0.248 NA
ATOM     87  C   UNL A   1      46.038  23.972  27.241  1.00  0.00    -0.034 C 
ATOM     88  C   UNL A   1      41.183  25.019  28.024  1.00  0.00    -0.036 A 
ATOM     89  N   UNL A   1      42.638  26.702  28.237  1.00  0.00    -0.354 N 
ATOM     90  C   UNL A   1      46.880  26.046  27.696  1.00  0.00     0.074 A 
ATOM     91  C   UNL A   1      47.158  24.655  27.418  1.00  0.00    -0.034 C 
ATOM     92  H   UNL A   1      45.913  22.987  26.959  1.00  0.00     0.065 H 
ATOM     93  C   UNL A   1      40.483  26.114  28.356  1.00  0.00    -0.036 A 
ATOM     94  H   UNL A   1      40.786  24.078  27.872  1.00  0.00     0.065 H 
ATOM     95  C   UNL A   1      41.403  27.236  28.515  1.00  0.00     0.049 A 
ATOM     96  H   UNL A   1      43.471  27.226  28.268  1.00  0.00     0.167 HD
ATOM     97  C   UNL A   1      47.826  27.011  27.789  1.00  0.00     0.037 A 
ATOM     98  H   UNL A   1      48.105  24.248  27.365  1.00  0.00     0.065 H 
ATOM     99  H   UNL A   1      39.460  26.158  28.479  1.00  0.00     0.065 H 
ATOM    100  C   UNL A   1      41.054  28.490  28.858  1.00  0.00     0.037 A 
ATOM    101  C   UNL A   1      47.539  28.398  28.044  1.00  0.00     0.049 A 
ATOM    102  C   UNL A   1      42.122  29.547  28.946  1.00  0.00     0.074 A 
ATOM    103  C   UNL A   1      48.414  29.466  28.092  1.00  0.00    -0.036 A 
ATOM    104  N   UNL A   1      46.273  28.906  28.304  1.00  0.00    -0.354 N 
ATOM    105  N   UNL A   1      43.415  29.436  28.752  1.00  0.00    -0.248 NA
ATOM    106  C   UNL A   1      41.682  30.905  29.289  1.00  0.00    -0.034 C 
ATOM    107  C   UNL A   1      47.690  30.611  28.439  1.00  0.00    -0.036 A 
ATOM    108  H   UNL A   1      49.429  29.426  27.903  1.00  0.00     0.065 H 
ATOM    109  C   UNL A   1      46.350  30.270  28.541  1.00  0.00     0.049 A 
ATOM    110  H   UNL A   1      45.443  28.377  28.318  1.00  0.00     0.167 HD
ATOM    111  C   UNL A   1      43.937  30.712  28.917  1.00  0.00     0.074 A 
ATOM    112  C   UNL A   1      42.819  31.583  29.213  1.00  0.00    -0.034 C 
ATOM    113  H   UNL A   1      40.737  31.243  29.526  1.00  0.00     0.065 H 
ATOM    114  H   UNL A   1      48.085  31.552  28.593  1.00  0.00     0.065 H 
ATOM    115  C   UNL A   1      45.226  31.124  28.829  1.00  0.00     0.037 A 
ATOM    116  H   UNL A   1      42.897  32.603  29.349  1.00  0.00     0.065 H 
BRANCH  97 117
ATOM    117  C   UNL A   1      49.261  26.597  27.617  1.00  0.00     0.064 A 
ATOM    118  C   UNL A   1      50.089  26.325  28.718  1.00  0.00     0.173 A 
ATOM    119  C   UNL A   1      49.808  26.444  26.335  1.00  0.00     0.173 A 
ATOM    120  F   UNL A   1      49.622  26.466  29.967  1.00  0.00    -0.203 F 
ATOM    121  C   UNL A   1      51.419  25.951  28.541  1.00  0.00     0.198 A 
ATOM    122  C   UNL A   1      51.128  26.036  26.160  1.00  0.00     0.198 A 
ATOM    123  F   UNL A   1      49.061  26.685  25.246  1.00  0.00    -0.203 F 
ATOM    124  F   UNL A   1      52.206  25.756  29.608  1.00  0.00    -0.200 F 
ATOM    125  C   UNL A   1      51.935  25.800  27.263  1.00  0.00     0.200 A 
ATOM    126  F   UNL A   1      51.620  25.875  24.925  1.00  0.00    -0.200 F 
ATOM    127  F   UNL A   1      53.213  25.435  27.093  1.00  0.00    -0.200 F 
ENDBRANCH  97 117
BRANCH 100 128
ATOM    128  C   UNL A   1      39.626  28.819  29.105  1.00  0.00     0.064 A 
ATOM    129  C   UNL A   1      39.061  28.670  30.379  1.00  0.00     0.173 A 
ATOM    130  C   UNL A   1      38.801  29.297  28.077  1.00  0.00     0.173 A 
ATOM    131  F   UNL A   1      39.805  28.201  31.391  1.00  0.00    -0.203 F 
ATOM    132  C   UNL A   1      37.720  28.968  30.610  1.00  0.00     0.198 A 
ATOM    133  C   UNL A   1      37.467  29.625  28.317  1.00  0.00     0.198 A 
ATOM    134  F   UNL A   1      39.295  29.467  26.842  1.00  0.00    -0.203 F 
ATOM    135  F   UNL A   1      37.193  28.775  31.828  1.00  0.00    -0.200 F 
ATOM    136  C   UNL A   1      36.926  29.451  29.581  1.00  0.00     0.200 A 
ATOM    137  F   UNL A   1      36.710  30.108  27.323  1.00  0.00    -0.200 F 
ATOM    138  F   UNL A   1      35.638  29.745  29.806  1.00  0.00    -0.200 F 
ENDBRANCH 100 128
BRANCH 115 139
ATOM    139  C   UNL A   1      45.494  32.590  29.013  1.00  0.00     0.064 A 
ATOM    140  C   UNL A   1      45.448  33.492  27.940  1.00  0.00     0.173 A 
ATOM    141  C   UNL A   1      45.760  33.105  30.292  1.00  0.00     0.173 A 
ATOM    142  F   UNL A   1      45.212  33.050  26.695  1.00  0.00    -0.203 F 
ATOM    143  C   UNL A   1      45.687  34.850  28.135  1.00  0.00     0.198 A 
ATOM    144  C   UNL A   1      45.963  34.468  30.488  1.00  0.00     0.198 A 
ATOM    145  F   UNL A   1      45.806  32.288  31.354  1.00  0.00    -0.203 F 
ATOM    146  F   UNL A   1      45.690  35.685  27.087  1.00  0.00    -0.200 F 
ATOM    147  C   UNL A   1      45.935  35.338  29.410  1.00  0.00     0.200 A 
ATOM    148  F   UNL A   1      46.186  34.939  31.724  1.00  0.00    -0.200 F 
ATOM    149  F   UNL A   1      46.156  36.646  29.597  1.00  0.00    -0.200 F 
ENDBRANCH 115 139
ENDBRANCH  80  83
ENDBRANCH  70  73
ENDBRANCH  66  69
ENDBRANCH  63  66
ENDBRANCH  60  63
ENDBRANCH  57  60
ENDBRANCH  54  57
ENDBRANCH   1  54
TORSDOF 24
ENDMDL
MODEL 8
REMARK VINA RESULT:     -11.4      1.543      2.673
REMARK SMILES [NH3+][C@@H](Cc1c[nH]c2ccccc12)C(=O)N[C@@H](CS)C(=O)N[C@@H](CO)C(=O)NCCCCCCNC(=O)c1ccc(-c2c3nc(c(-c4c(F)c(F)c(F)c(F)c4F)c4ccc([nH]4)c(-c4c(F)c(F)c(F)c(F)c4F)c4nc(c(-c5c(F)c(F)c(F)c(F)c5F)c5ccc2[nH]5)C=C4)C=C3)cc1
REMARK SMILES IDX 28 1 27 4 25 5 26 6 22 8 21 10 19 11 20 12 16 14 15 16 13 17
REMARK SMILES IDX 14 18 2 20 1 22 3 26 4 29 5 30 12 31 6 32 7 34 11 35 8 37
REMARK SMILES IDX 10 38 9 40 17 44 18 47 23 49 24 52 29 54 30 57 31 60 32 63
REMARK SMILES IDX 33 66 34 69 35 70 36 72 37 73 38 74 99 75 39 76 98 78 40 80
REMARK SMILES IDX 41 83 42 84 92 85 43 86 97 87 91 88 93 89 44 90 96 91 90 93
REMARK SMILES IDX 89 95 45 97 77 100 57 101 76 102 58 103 61 104 75 105 94 106
REMARK SMILES IDX 59 107 60 109 74 111 95 112 62 115 46 117 47 118 55 119
REMARK SMILES IDX 48 120 49 121 53 122 56 123 50 124 51 125 54 126 52 127
REMARK SMILES IDX 78 128 79 129 87 130 80 131 81 132 85 133 88 134 82 135
REMARK SMILES IDX 83 136 86 137 84 138 63 139 64 140 72 141 65 142 66 143
REMARK SMILES IDX 70 144 73 145 67 146 68 147 71 148 69 149
REMARK H PARENT 28 2 28 3 27 7 22 9 21 13 16 15 15 19 2 21 1 23 1 24 1 25 3 27
REMARK H PARENT 3 28 5 33 6 36 11 39 8 41 10 42 9 43 17 45 17 46 18 48 23 50
REMARK H PARENT 23 51 24 53 29 55 29 56 30 58 30 59 31 61 31 62 32 64 32 65
REMARK H PARENT 33 67 33 68 34 71 38 77 99 79 39 81 98 82 97 92 91 94 93 96
REMARK H PARENT 96 98 90 99 58 108 61 110 94 113 59 114 95 116
REMARK Flexibility Score: inf
ROOT
ATOM      1  C   UNL A   1      33.574  20.876  25.150  1.00  0.00     0.017 C 
ATOM      2  H   UNL A   1      33.677  21.466  24.264  1.00  0.00     0.049 H 
ATOM      3  H   UNL A   1      33.538  19.833  24.916  1.00  0.00     0.049 H 
ENDROOT
BRANCH   1   4
ATOM      4  N   UNL A   1      32.334  21.233  25.808  1.00  0.00    -0.354 N 
ATOM      5  C   UNL A   1      31.520  22.311  25.655  1.00  0.00     0.244 C 
ATOM      6  O   UNL A   1      30.376  22.223  26.112  1.00  0.00    -0.273 OA
ATOM      7  H   UNL A   1      32.027  20.583  26.481  1.00  0.00     0.163 HD
BRANCH   5   8
ATOM      8  C   UNL A   1      31.956  23.560  24.885  1.00  0.00     0.131 C 
ATOM      9  H   UNL A   1      31.251  24.333  25.110  1.00  0.00     0.066 H 
BRANCH   8  10
ATOM     10  N   UNL A   1      33.256  24.038  25.340  1.00  0.00    -0.340 N 
ATOM     11  C   UNL A   1      34.009  24.966  24.717  1.00  0.00     0.244 C 
ATOM     12  O   UNL A   1      35.130  24.575  24.377  1.00  0.00    -0.273 OA
ATOM     13  H   UNL A   1      33.612  23.652  26.172  1.00  0.00     0.164 HD
BRANCH  11  14
ATOM     14  C   UNL A   1      33.464  26.355  24.342  1.00  0.00     0.117 C 
ATOM     15  H   UNL A   1      32.412  26.338  24.533  1.00  0.00     0.064 H 
BRANCH  14  16
ATOM     16  N   UNL A   1      34.035  27.352  25.222  1.00  0.00    -0.338 N 
ATOM     17  C   UNL A   1      33.375  27.953  26.267  1.00  0.00     0.279 C 
ATOM     18  O   UNL A   1      34.057  28.236  27.258  1.00  0.00    -0.268 OA
ATOM     19  H   UNL A   1      34.970  27.621  25.061  1.00  0.00     0.164 HD
BRANCH  17  20
ATOM     20  C   UNL A   1      31.872  28.375  26.182  1.00  0.00     0.168 C 
ATOM     21  H   UNL A   1      31.424  27.632  25.556  1.00  0.00     0.107 H 
BRANCH  20  22
ATOM     22  N   UNL A   1      31.258  28.310  27.525  1.00  0.00    -0.347 N 
ATOM     23  H   UNL A   1      31.859  28.786  28.197  1.00  0.00     0.345 HD
ATOM     24  H   UNL A   1      31.147  27.334  27.802  1.00  0.00     0.345 HD
ATOM     25  H   UNL A   1      30.345  28.763  27.504  1.00  0.00     0.345 HD
ENDBRANCH  20  22
BRANCH  20  26
ATOM     26  C   UNL A   1      31.447  29.563  25.275  1.00  0.00     0.036 C 
ATOM     27  H   UNL A   1      32.338  29.920  24.802  1.00  0.00     0.038 H 
ATOM     28  H   UNL A   1      30.944  30.216  25.959  1.00  0.00     0.038 H 
BRANCH  26  29
ATOM     29  C   UNL A   1      30.424  29.373  24.180  1.00  0.00    -0.016 A 
ATOM     30  C   UNL A   1      30.241  28.184  23.495  1.00  0.00     0.005 A 
ATOM     31  C   UNL A   1      29.501  30.309  23.588  1.00  0.00     0.003 A 
ATOM     32  N   UNL A   1      29.430  28.414  22.419  1.00  0.00    -0.361 N 
ATOM     33  H   UNL A   1      30.650  27.273  23.754  1.00  0.00     0.082 H 
ATOM     34  C   UNL A   1      29.037  29.730  22.402  1.00  0.00     0.046 A 
ATOM     35  C   UNL A   1      29.108  31.636  23.861  1.00  0.00    -0.053 A 
ATOM     36  H   UNL A   1      29.166  27.738  21.755  1.00  0.00     0.166 HD
ATOM     37  C   UNL A   1      28.327  30.444  21.428  1.00  0.00    -0.038 A 
ATOM     38  C   UNL A   1      28.399  32.366  22.899  1.00  0.00    -0.062 A 
ATOM     39  H   UNL A   1      29.343  32.068  24.769  1.00  0.00     0.063 H 
ATOM     40  C   UNL A   1      28.042  31.786  21.687  1.00  0.00    -0.060 A 
ATOM     41  H   UNL A   1      28.024  29.993  20.550  1.00  0.00     0.064 H 
ATOM     42  H   UNL A   1      28.140  33.347  23.092  1.00  0.00     0.062 H 
ATOM     43  H   UNL A   1      27.562  32.352  20.971  1.00  0.00     0.062 H 
ENDBRANCH  26  29
ENDBRANCH  20  26
ENDBRANCH  17  20
ENDBRANCH  14  16
BRANCH  14  44
ATOM     44  C   UNL A   1      33.260  26.700  22.859  1.00  0.00     0.020 C 
ATOM     45  H   UNL A   1      32.205  26.787  22.700  1.00  0.00     0.040 H 
ATOM     46  H   UNL A   1      33.757  25.907  22.340  1.00  0.00     0.040 H 
BRANCH  44  47
ATOM     47  S   UNL A   1      34.026  28.207  22.194  1.00  0.00    -0.177 SA
ATOM     48  H   UNL A   1      33.165  29.251  22.328  1.00  0.00     0.102 HD
ENDBRANCH  44  47
ENDBRANCH  14  44
ENDBRANCH  11  14
ENDBRANCH   8  10
BRANCH   8  49
ATOM     49  C   UNL A   1      31.870  23.380  23.358  1.00  0.00     0.072 C 
ATOM     50  H   UNL A   1      31.924  22.334  23.138  1.00  0.00     0.059 H 
ATOM     51  H   UNL A   1      32.682  23.931  22.933  1.00  0.00     0.059 H 
BRANCH  49  52
ATOM     52  O   UNL A   1      30.672  23.898  22.786  1.00  0.00    -0.394 OA
ATOM     53  H   UNL A   1      29.927  23.725  23.383  1.00  0.00     0.210 HD
ENDBRANCH  49  52
ENDBRANCH   8  49
ENDBRANCH   5   8
ENDBRANCH   1   4
BRANCH   1  54
ATOM     54  C   UNL A   1      34.782  21.118  26.047  1.00  0.00    -0.036 C 
ATOM     55  H   UNL A   1      34.829  20.329  26.769  1.00  0.00     0.028 H 
ATOM     56  H   UNL A   1      34.650  22.079  26.496  1.00  0.00     0.028 H 
BRANCH  54  57
ATOM     57  C   UNL A   1      36.114  21.159  25.293  1.00  0.00    -0.052 C 
ATOM     58  H   UNL A   1      36.825  21.679  25.900  1.00  0.00     0.027 H 
ATOM     59  H   UNL A   1      35.920  21.648  24.362  1.00  0.00     0.027 H 
BRANCH  57  60
ATOM     60  C   UNL A   1      36.692  19.783  24.949  1.00  0.00    -0.052 C 
ATOM     61  H   UNL A   1      36.165  19.403  24.098  1.00  0.00     0.027 H 
ATOM     62  H   UNL A   1      36.573  19.180  25.824  1.00  0.00     0.027 H 
BRANCH  60  63
ATOM     63  C   UNL A   1      38.188  19.775  24.623  1.00  0.00    -0.036 C 
ATOM     64  H   UNL A   1      38.369  20.505  23.861  1.00  0.00     0.028 H 
ATOM     65  H   UNL A   1      38.430  18.780  24.312  1.00  0.00     0.028 H 
BRANCH  63  66
ATOM     66  C   UNL A   1      39.086  20.091  25.809  1.00  0.00     0.018 C 
ATOM     67  H   UNL A   1      38.490  20.118  26.697  1.00  0.00     0.049 H 
ATOM     68  H   UNL A   1      39.552  21.037  25.630  1.00  0.00     0.049 H 
BRANCH  66  69
ATOM     69  N   UNL A   1      40.130  19.095  25.973  1.00  0.00    -0.352 N 
ATOM     70  C   UNL A   1      41.480  19.279  26.119  1.00  0.00     0.251 C 
ATOM     71  H   UNL A   1      39.825  18.159  25.982  1.00  0.00     0.163 HD
ATOM     72  O   UNL A   1      42.249  18.332  26.024  1.00  0.00    -0.269 OA
BRANCH  70  73
ATOM     73  C   UNL A   1      41.999  20.636  26.379  1.00  0.00     0.039 A 
ATOM     74  C   UNL A   1      42.183  21.502  25.300  1.00  0.00    -0.049 A 
ATOM     75  C   UNL A   1      42.306  21.049  27.679  1.00  0.00    -0.049 A 
ATOM     76  C   UNL A   1      42.639  22.799  25.532  1.00  0.00    -0.053 A 
ATOM     77  H   UNL A   1      41.982  21.185  24.339  1.00  0.00     0.063 H 
ATOM     78  C   UNL A   1      42.676  22.368  27.916  1.00  0.00    -0.053 A 
ATOM     79  H   UNL A   1      42.258  20.376  28.460  1.00  0.00     0.063 H 
ATOM     80  C   UNL A   1      42.864  23.250  26.844  1.00  0.00    -0.014 A 
ATOM     81  H   UNL A   1      42.812  23.432  24.736  1.00  0.00     0.063 H 
ATOM     82  H   UNL A   1      42.812  22.697  28.885  1.00  0.00     0.063 H 
BRANCH  80  83
ATOM     83  C   UNL A   1      43.310  24.642  27.099  1.00  0.00     0.031 A 
ATOM     84  C   UNL A   1      42.340  25.665  27.620  1.00  0.00     0.074 A 
ATOM     85  C   UNL A   1      44.582  24.988  26.826  1.00  0.00     0.049 A 
ATOM     86  N   UNL A   1      42.544  26.925  27.910  1.00  0.00    -0.248 NA
ATOM     87  C   UNL A   1      40.949  25.225  27.813  1.00  0.00    -0.034 C 
ATOM     88  C   UNL A   1      45.596  24.099  26.258  1.00  0.00    -0.036 A 
ATOM     89  N   UNL A   1      45.239  26.180  26.990  1.00  0.00    -0.354 N 
ATOM     90  C   UNL A   1      41.311  27.426  28.307  1.00  0.00     0.074 A 
ATOM     91  C   UNL A   1      40.351  26.355  28.158  1.00  0.00    -0.034 C 
ATOM     92  H   UNL A   1      40.545  24.281  27.706  1.00  0.00     0.065 H 
ATOM     93  C   UNL A   1      46.756  24.764  26.153  1.00  0.00    -0.036 A 
ATOM     94  H   UNL A   1      45.442  23.116  25.981  1.00  0.00     0.065 H 
ATOM     95  C   UNL A   1      46.560  26.136  26.614  1.00  0.00     0.049 A 
ATOM     96  H   UNL A   1      44.808  26.991  27.344  1.00  0.00     0.167 HD
ATOM     97  C   UNL A   1      41.014  28.659  28.780  1.00  0.00     0.037 A 
ATOM     98  H   UNL A   1      39.335  26.457  28.303  1.00  0.00     0.065 H 
ATOM     99  H   UNL A   1      47.643  24.371  25.804  1.00  0.00     0.065 H 
ATOM    100  C   UNL A   1      47.505  27.094  26.639  1.00  0.00     0.037 A 
ATOM    101  C   UNL A   1      41.979  29.713  28.945  1.00  0.00     0.049 A 
ATOM    102  C   UNL A   1      47.152  28.454  27.178  1.00  0.00     0.074 A 
ATOM    103  C   UNL A   1      41.797  30.975  29.478  1.00  0.00    -0.036 A 
ATOM    104  N   UNL A   1      43.313  29.626  28.569  1.00  0.00    -0.354 N 
ATOM    105  N   UNL A   1      46.004  28.890  27.636  1.00  0.00    -0.248 NA
ATOM    106  C   UNL A   1      48.230  29.451  27.216  1.00  0.00    -0.034 C 
ATOM    107  C   UNL A   1      43.004  31.674  29.370  1.00  0.00    -0.036 A 
ATOM    108  H   UNL A   1      40.921  31.340  29.886  1.00  0.00     0.065 H 
ATOM    109  C   UNL A   1      43.958  30.825  28.832  1.00  0.00     0.049 A 
ATOM    110  H   UNL A   1      43.738  28.832  28.173  1.00  0.00     0.167 HD
ATOM    111  C   UNL A   1      46.227  30.199  28.045  1.00  0.00     0.074 A 
ATOM    112  C   UNL A   1      47.625  30.479  27.793  1.00  0.00    -0.034 C 
ATOM    113  H   UNL A   1      49.203  29.371  26.881  1.00  0.00     0.065 H 
ATOM    114  H   UNL A   1      43.159  32.657  29.644  1.00  0.00     0.065 H 
ATOM    115  C   UNL A   1      45.353  31.086  28.581  1.00  0.00     0.037 A 
ATOM    116  H   UNL A   1      48.092  31.368  28.034  1.00  0.00     0.065 H 
BRANCH  97 117
ATOM    117  C   UNL A   1      39.583  28.935  29.151  1.00  0.00     0.064 A 
ATOM    118  C   UNL A   1      39.105  28.734  30.456  1.00  0.00     0.173 A 
ATOM    119  C   UNL A   1      38.685  29.435  28.197  1.00  0.00     0.173 A 
ATOM    120  F   UNL A   1      39.917  28.247  31.406  1.00  0.00    -0.203 F 
ATOM    121  C   UNL A   1      37.774  28.986  30.780  1.00  0.00     0.198 A 
ATOM    122  C   UNL A   1      37.363  29.721  28.532  1.00  0.00     0.198 A 
ATOM    123  F   UNL A   1      39.088  29.653  26.935  1.00  0.00    -0.203 F 
ATOM    124  F   UNL A   1      37.327  28.728  32.017  1.00  0.00    -0.200 F 
ATOM    125  C   UNL A   1      36.907  29.486  29.820  1.00  0.00     0.200 A 
ATOM    126  F   UNL A   1      36.531  30.218  27.608  1.00  0.00    -0.200 F 
ATOM    127  F   UNL A   1      35.628  29.735  30.135  1.00  0.00    -0.200 F 
ENDBRANCH  97 117
BRANCH 100 128
ATOM    128  C   UNL A   1      48.882  26.786  26.173  1.00  0.00     0.064 A 
ATOM    129  C   UNL A   1      49.252  26.975  24.834  1.00  0.00     0.173 A 
ATOM    130  C   UNL A   1      49.860  26.307  27.058  1.00  0.00     0.173 A 
ATOM    131  F   UNL A   1      48.348  27.415  23.947  1.00  0.00    -0.203 F 
ATOM    132  C   UNL A   1      50.539  26.676  24.393  1.00  0.00     0.198 A 
ATOM    133  C   UNL A   1      51.157  26.039  26.622  1.00  0.00     0.198 A 
ATOM    134  F   UNL A   1      49.562  26.118  28.351  1.00  0.00    -0.203 F 
ATOM    135  F   UNL A   1      50.853  26.824  23.099  1.00  0.00    -0.200 F 
ATOM    136  C   UNL A   1      51.492  26.215  25.289  1.00  0.00     0.200 A 
ATOM    137  F   UNL A   1      52.079  25.611  27.495  1.00  0.00    -0.200 F 
ATOM    138  F   UNL A   1      52.733  25.936  24.866  1.00  0.00    -0.200 F 
ENDBRANCH 100 128
BRANCH 115 139
ATOM    139  C   UNL A   1      45.891  32.431  28.974  1.00  0.00     0.064 A 
ATOM    140  C   UNL A   1      45.852  33.528  28.102  1.00  0.00     0.173 A 
ATOM    141  C   UNL A   1      46.415  32.635  30.261  1.00  0.00     0.173 A 
ATOM    142  F   UNL A   1      45.373  33.384  26.856  1.00  0.00    -0.203 F 
ATOM    143  C   UNL A   1      46.345  34.771  28.491  1.00  0.00     0.198 A 
ATOM    144  C   UNL A   1      46.874  33.887  30.658  1.00  0.00     0.198 A 
ATOM    145  F   UNL A   1      46.468  31.622  31.138  1.00  0.00    -0.203 F 
ATOM    146  F   UNL A   1      46.346  35.792  27.622  1.00  0.00    -0.200 F 
ATOM    147  C   UNL A   1      46.847  34.952  29.771  1.00  0.00     0.200 A 
ATOM    148  F   UNL A   1      47.343  34.063  31.902  1.00  0.00    -0.200 F 
ATOM    149  F   UNL A   1      47.312  36.151  30.147  1.00  0.00    -0.200 F 
ENDBRANCH 115 139
ENDBRANCH  80  83
ENDBRANCH  70  73
ENDBRANCH  66  69
ENDBRANCH  63  66
ENDBRANCH  60  63
ENDBRANCH  57  60
ENDBRANCH  54  57
ENDBRANCH   1  54
TORSDOF 24
ENDMDL
MODEL 9
REMARK VINA RESULT:     -11.3      6.067     10.403
REMARK SMILES [NH3+][C@@H](Cc1c[nH]c2ccccc12)C(=O)N[C@@H](CS)C(=O)N[C@@H](CO)C(=O)NCCCCCCNC(=O)c1ccc(-c2c3nc(c(-c4c(F)c(F)c(F)c(F)c4F)c4ccc([nH]4)c(-c4c(F)c(F)c(F)c(F)c4F)c4nc(c(-c5c(F)c(F)c(F)c(F)c5F)c5ccc2[nH]5)C=C4)C=C3)cc1
REMARK SMILES IDX 28 1 27 4 25 5 26 6 22 8 21 10 19 11 20 12 16 14 15 16 13 17
REMARK SMILES IDX 14 18 2 20 1 22 3 26 4 29 5 30 12 31 6 32 7 34 11 35 8 37
REMARK SMILES IDX 10 38 9 40 17 44 18 47 23 49 24 52 29 54 30 57 31 60 32 63
REMARK SMILES IDX 33 66 34 69 35 70 36 72 37 73 38 74 99 75 39 76 98 78 40 80
REMARK SMILES IDX 41 83 42 84 92 85 43 86 97 87 91 88 93 89 44 90 96 91 90 93
REMARK SMILES IDX 89 95 45 97 77 100 57 101 76 102 58 103 61 104 75 105 94 106
REMARK SMILES IDX 59 107 60 109 74 111 95 112 62 115 46 117 47 118 55 119
REMARK SMILES IDX 48 120 49 121 53 122 56 123 50 124 51 125 54 126 52 127
REMARK SMILES IDX 78 128 79 129 87 130 80 131 81 132 85 133 88 134 82 135
REMARK SMILES IDX 83 136 86 137 84 138 63 139 64 140 72 141 65 142 66 143
REMARK SMILES IDX 70 144 73 145 67 146 68 147 71 148 69 149
REMARK H PARENT 28 2 28 3 27 7 22 9 21 13 16 15 15 19 2 21 1 23 1 24 1 25 3 27
REMARK H PARENT 3 28 5 33 6 36 11 39 8 41 10 42 9 43 17 45 17 46 18 48 23 50
REMARK H PARENT 23 51 24 53 29 55 29 56 30 58 30 59 31 61 31 62 32 64 32 65
REMARK H PARENT 33 67 33 68 34 71 38 77 99 79 39 81 98 82 97 92 91 94 93 96
REMARK H PARENT 96 98 90 99 58 108 61 110 94 113 59 114 95 116
REMARK Flexibility Score: inf
ROOT
ATOM      1  C   UNL A   1      34.412  29.925  27.509  1.00  0.00     0.017 C 
ATOM      2  H   UNL A   1      35.282  29.524  27.032  1.00  0.00     0.049 H 
ATOM      3  H   UNL A   1      33.954  29.199  28.147  1.00  0.00     0.049 H 
ENDROOT
BRANCH   1   4
ATOM      4  N   UNL A   1      33.451  30.298  26.491  1.00  0.00    -0.354 N 
ATOM      5  C   UNL A   1      32.481  29.575  25.870  1.00  0.00     0.244 C 
ATOM      6  O   UNL A   1      31.605  30.205  25.270  1.00  0.00    -0.273 OA
ATOM      7  H   UNL A   1      33.510  31.236  26.198  1.00  0.00     0.163 HD
BRANCH   5   8
ATOM      8  C   UNL A   1      32.414  28.049  25.964  1.00  0.00     0.131 C 
ATOM      9  H   UNL A   1      31.568  27.733  25.390  1.00  0.00     0.066 H 
BRANCH   8  10
ATOM     10  N   UNL A   1      33.584  27.427  25.355  1.00  0.00    -0.340 N 
ATOM     11  C   UNL A   1      33.956  26.141  25.513  1.00  0.00     0.244 C 
ATOM     12  O   UNL A   1      35.081  25.987  25.999  1.00  0.00    -0.273 OA
ATOM     13  H   UNL A   1      34.148  27.993  24.781  1.00  0.00     0.164 HD
BRANCH  11  14
ATOM     14  C   UNL A   1      33.003  24.966  25.235  1.00  0.00     0.117 C 
ATOM     15  H   UNL A   1      32.009  25.360  25.261  1.00  0.00     0.064 H 
BRANCH  14  16
ATOM     16  N   UNL A   1      33.224  24.473  23.891  1.00  0.00    -0.338 N 
ATOM     17  C   UNL A   1      32.487  24.831  22.788  1.00  0.00     0.279 C 
ATOM     18  O   UNL A   1      33.099  24.893  21.716  1.00  0.00    -0.268 OA
ATOM     19  H   UNL A   1      33.959  23.830  23.758  1.00  0.00     0.164 HD
BRANCH  17  20
ATOM     20  C   UNL A   1      30.938  25.035  22.840  1.00  0.00     0.168 C 
ATOM     21  H   UNL A   1      30.687  25.401  21.866  1.00  0.00     0.107 H 
BRANCH  20  22
ATOM     22  N   UNL A   1      30.270  23.734  23.055  1.00  0.00    -0.347 N 
ATOM     23  H   UNL A   1      30.750  23.013  22.518  1.00  0.00     0.345 HD
ATOM     24  H   UNL A   1      29.299  23.795  22.749  1.00  0.00     0.345 HD
ATOM     25  H   UNL A   1      30.299  23.497  24.047  1.00  0.00     0.345 HD
ENDBRANCH  20  22
BRANCH  20  26
ATOM     26  C   UNL A   1      30.338  26.261  23.582  1.00  0.00     0.036 C 
ATOM     27  H   UNL A   1      30.886  26.362  24.497  1.00  0.00     0.038 H 
ATOM     28  H   UNL A   1      29.298  26.016  23.644  1.00  0.00     0.038 H 
BRANCH  26  29
ATOM     29  C   UNL A   1      30.323  27.626  22.936  1.00  0.00    -0.016 A 
ATOM     30  C   UNL A   1      31.439  28.225  22.375  1.00  0.00     0.005 A 
ATOM     31  C   UNL A   1      29.256  28.586  22.801  1.00  0.00     0.003 A 
ATOM     32  N   UNL A   1      31.149  29.534  22.107  1.00  0.00    -0.361 N 
ATOM     33  H   UNL A   1      32.340  27.759  22.188  1.00  0.00     0.082 H 
ATOM     34  C   UNL A   1      29.846  29.804  22.445  1.00  0.00     0.046 A 
ATOM     35  C   UNL A   1      27.871  28.587  23.066  1.00  0.00    -0.053 A 
ATOM     36  H   UNL A   1      31.781  30.187  21.729  1.00  0.00     0.166 HD
ATOM     37  C   UNL A   1      29.160  31.025  22.475  1.00  0.00    -0.038 A 
ATOM     38  C   UNL A   1      27.168  29.798  23.103  1.00  0.00    -0.062 A 
ATOM     39  H   UNL A   1      27.376  27.697  23.233  1.00  0.00     0.063 H 
ATOM     40  C   UNL A   1      27.812  31.002  22.841  1.00  0.00    -0.060 A 
ATOM     41  H   UNL A   1      29.633  31.910  22.235  1.00  0.00     0.064 H 
ATOM     42  H   UNL A   1      26.160  29.796  23.327  1.00  0.00     0.062 H 
ATOM     43  H   UNL A   1      27.291  31.888  22.919  1.00  0.00     0.062 H 
ENDBRANCH  26  29
ENDBRANCH  20  26
ENDBRANCH  17  20
ENDBRANCH  14  16
BRANCH  14  44
ATOM     44  C   UNL A   1      32.710  23.962  26.359  1.00  0.00     0.020 C 
ATOM     45  H   UNL A   1      31.847  23.402  26.063  1.00  0.00     0.040 H 
ATOM     46  H   UNL A   1      32.605  24.574  27.230  1.00  0.00     0.040 H 
BRANCH  44  47
ATOM     47  S   UNL A   1      33.993  22.760  26.820  1.00  0.00    -0.177 SA
ATOM     48  H   UNL A   1      33.425  21.538  27.004  1.00  0.00     0.102 HD
ENDBRANCH  44  47
ENDBRANCH  14  44
ENDBRANCH  11  14
ENDBRANCH   8  10
BRANCH   8  49
ATOM     49  C   UNL A   1      32.130  27.551  27.393  1.00  0.00     0.072 C 
ATOM     50  H   UNL A   1      33.036  27.615  27.959  1.00  0.00     0.059 H 
ATOM     51  H   UNL A   1      31.769  26.548  27.308  1.00  0.00     0.059 H 
BRANCH  49  52
ATOM     52  O   UNL A   1      31.123  28.298  28.071  1.00  0.00    -0.394 OA
ATOM     53  H   UNL A   1      30.331  28.355  27.513  1.00  0.00     0.210 HD
ENDBRANCH  49  52
ENDBRANCH   8  49
ENDBRANCH   5   8
ENDBRANCH   1   4
BRANCH   1  54
ATOM     54  C   UNL A   1      34.823  31.116  28.365  1.00  0.00    -0.036 C 
ATOM     55  H   UNL A   1      35.867  31.027  28.586  1.00  0.00     0.028 H 
ATOM     56  H   UNL A   1      34.215  31.093  29.245  1.00  0.00     0.028 H 
BRANCH  54  57
ATOM     57  C   UNL A   1      34.586  32.471  27.695  1.00  0.00    -0.052 C 
ATOM     58  H   UNL A   1      33.642  32.434  27.192  1.00  0.00     0.027 H 
ATOM     59  H   UNL A   1      35.409  32.629  27.031  1.00  0.00     0.027 H 
BRANCH  57  60
ATOM     60  C   UNL A   1      34.569  33.662  28.658  1.00  0.00    -0.052 C 
ATOM     61  H   UNL A   1      35.290  34.376  28.316  1.00  0.00     0.027 H 
ATOM     62  H   UNL A   1      34.792  33.268  29.627  1.00  0.00     0.027 H 
BRANCH  60  63
ATOM     63  C   UNL A   1      33.218  34.371  28.783  1.00  0.00    -0.036 C 
ATOM     64  H   UNL A   1      32.613  33.820  29.473  1.00  0.00     0.028 H 
ATOM     65  H   UNL A   1      32.798  34.407  27.799  1.00  0.00     0.028 H 
BRANCH  63  66
ATOM     66  C   UNL A   1      33.311  35.808  29.270  1.00  0.00     0.018 C 
ATOM     67  H   UNL A   1      32.935  36.457  28.507  1.00  0.00     0.049 H 
ATOM     68  H   UNL A   1      34.337  36.021  29.485  1.00  0.00     0.049 H 
BRANCH  66  69
ATOM     69  N   UNL A   1      32.542  36.015  30.484  1.00  0.00    -0.352 N 
ATOM     70  C   UNL A   1      32.727  35.466  31.726  1.00  0.00     0.251 C 
ATOM     71  H   UNL A   1      31.783  36.637  30.404  1.00  0.00     0.163 HD
ATOM     72  O   UNL A   1      31.863  35.569  32.585  1.00  0.00    -0.269 OA
BRANCH  70  73
ATOM     73  C   UNL A   1      33.977  34.733  32.011  1.00  0.00     0.039 A 
ATOM     74  C   UNL A   1      35.186  35.429  31.973  1.00  0.00    -0.049 A 
ATOM     75  C   UNL A   1      33.954  33.368  32.312  1.00  0.00    -0.049 A 
ATOM     76  C   UNL A   1      36.372  34.760  32.275  1.00  0.00    -0.053 A 
ATOM     77  H   UNL A   1      35.202  36.430  31.724  1.00  0.00     0.063 H 
ATOM     78  C   UNL A   1      35.125  32.725  32.697  1.00  0.00    -0.053 A 
ATOM     79  H   UNL A   1      33.070  32.839  32.247  1.00  0.00     0.063 H 
ATOM     80  C   UNL A   1      36.347  33.410  32.665  1.00  0.00    -0.014 A 
ATOM     81  H   UNL A   1      37.272  35.259  32.212  1.00  0.00     0.063 H 
ATOM     82  H   UNL A   1      35.093  31.741  33.009  1.00  0.00     0.063 H 
BRANCH  80  83
ATOM     83  C   UNL A   1      37.601  32.704  33.027  1.00  0.00     0.031 A 
ATOM     84  C   UNL A   1      38.295  33.009  34.324  1.00  0.00     0.074 A 
ATOM     85  C   UNL A   1      38.130  31.815  32.166  1.00  0.00     0.049 A 
ATOM     86  N   UNL A   1      39.392  32.493  34.816  1.00  0.00    -0.248 NA
ATOM     87  C   UNL A   1      37.695  34.054  35.170  1.00  0.00    -0.034 C 
ATOM     88  C   UNL A   1      37.582  31.484  30.850  1.00  0.00    -0.036 A 
ATOM     89  N   UNL A   1      39.247  31.026  32.268  1.00  0.00    -0.354 N 
ATOM     90  C   UNL A   1      39.617  33.155  36.016  1.00  0.00     0.074 A 
ATOM     91  C   UNL A   1      38.581  34.155  36.148  1.00  0.00    -0.034 C 
ATOM     92  H   UNL A   1      36.813  34.573  35.034  1.00  0.00     0.065 H 
ATOM     93  C   UNL A   1      38.342  30.536  30.282  1.00  0.00    -0.036 A 
ATOM     94  H   UNL A   1      36.744  31.913  30.427  1.00  0.00     0.065 H 
ATOM     95  C   UNL A   1      39.451  30.216  31.177  1.00  0.00     0.049 A 
ATOM     96  H   UNL A   1      39.847  31.037  33.049  1.00  0.00     0.167 HD
ATOM     97  C   UNL A   1      40.583  32.928  36.938  1.00  0.00     0.037 A 
ATOM     98  H   UNL A   1      38.539  34.855  36.905  1.00  0.00     0.065 H 
ATOM     99  H   UNL A   1      38.172  30.102  29.362  1.00  0.00     0.065 H 
ATOM    100  C   UNL A   1      40.421  29.317  30.928  1.00  0.00     0.037 A 
ATOM    101  C   UNL A   1      41.597  31.915  36.809  1.00  0.00     0.049 A 
ATOM    102  C   UNL A   1      41.478  29.076  31.972  1.00  0.00     0.074 A 
ATOM    103  C   UNL A   1      42.580  31.557  37.713  1.00  0.00    -0.036 A 
ATOM    104  N   UNL A   1      41.762  31.102  35.696  1.00  0.00    -0.354 N 
ATOM    105  N   UNL A   1      41.629  29.645  33.144  1.00  0.00    -0.248 NA
ATOM    106  C   UNL A   1      42.492  28.060  31.664  1.00  0.00    -0.034 C 
ATOM    107  C   UNL A   1      43.376  30.570  37.125  1.00  0.00    -0.036 A 
ATOM    108  H   UNL A   1      42.704  31.952  38.659  1.00  0.00     0.065 H 
ATOM    109  C   UNL A   1      42.849  30.262  35.880  1.00  0.00     0.049 A 
ATOM    110  H   UNL A   1      41.191  31.118  34.894  1.00  0.00     0.167 HD
ATOM    111  C   UNL A   1      42.733  29.035  33.726  1.00  0.00     0.074 A 
ATOM    112  C   UNL A   1      43.203  28.043  32.783  1.00  0.00    -0.034 C 
ATOM    113  H   UNL A   1      42.617  27.505  30.804  1.00  0.00     0.065 H 
ATOM    114  H   UNL A   1      44.216  30.141  37.546  1.00  0.00     0.065 H 
ATOM    115  C   UNL A   1      43.302  29.275  34.933  1.00  0.00     0.037 A 
ATOM    116  H   UNL A   1      43.994  27.403  32.959  1.00  0.00     0.065 H 
BRANCH  97 117
ATOM    117  C   UNL A   1      40.589  33.794  38.167  1.00  0.00     0.064 A 
ATOM    118  C   UNL A   1      39.786  33.502  39.282  1.00  0.00     0.173 A 
ATOM    119  C   UNL A   1      41.429  34.915  38.243  1.00  0.00     0.173 A 
ATOM    120  F   UNL A   1      38.956  32.449  39.259  1.00  0.00    -0.203 F 
ATOM    121  C   UNL A   1      39.797  34.320  40.408  1.00  0.00     0.198 A 
ATOM    122  C   UNL A   1      41.464  35.711  39.385  1.00  0.00     0.198 A 
ATOM    123  F   UNL A   1      42.222  35.238  37.210  1.00  0.00    -0.203 F 
ATOM    124  F   UNL A   1      38.977  34.055  41.435  1.00  0.00    -0.200 F 
ATOM    125  C   UNL A   1      40.641  35.419  40.462  1.00  0.00     0.200 A 
ATOM    126  F   UNL A   1      42.292  36.763  39.442  1.00  0.00    -0.200 F 
ATOM    127  F   UNL A   1      40.656  36.202  41.550  1.00  0.00    -0.200 F 
ENDBRANCH  97 117
BRANCH 100 128
ATOM    128  C   UNL A   1      40.413  28.555  29.653  1.00  0.00     0.064 A 
ATOM    129  C   UNL A   1      39.681  27.366  29.525  1.00  0.00     0.173 A 
ATOM    130  C   UNL A   1      41.128  29.004  28.533  1.00  0.00     0.173 A 
ATOM    131  F   UNL A   1      38.994  26.888  30.573  1.00  0.00    -0.203 F 
ATOM    132  C   UNL A   1      39.682  26.645  28.333  1.00  0.00     0.198 A 
ATOM    133  C   UNL A   1      41.102  28.298  27.331  1.00  0.00     0.198 A 
ATOM    134  F   UNL A   1      41.837  30.140  28.599  1.00  0.00    -0.203 F 
ATOM    135  F   UNL A   1      39.009  25.488  28.252  1.00  0.00    -0.200 F 
ATOM    136  C   UNL A   1      40.387  27.114  27.235  1.00  0.00     0.200 A 
ATOM    137  F   UNL A   1      41.771  28.765  26.268  1.00  0.00    -0.200 F 
ATOM    138  F   UNL A   1      40.380  26.425  26.087  1.00  0.00    -0.200 F 
ENDBRANCH 100 128
BRANCH 115 139
ATOM    139  C   UNL A   1      44.474  28.421  35.324  1.00  0.00     0.064 A 
ATOM    140  C   UNL A   1      44.311  27.214  36.020  1.00  0.00     0.173 A 
ATOM    141  C   UNL A   1      45.776  28.796  34.956  1.00  0.00     0.173 A 
ATOM    142  F   UNL A   1      43.089  26.816  36.407  1.00  0.00    -0.203 F 
ATOM    143  C   UNL A   1      45.410  26.431  36.361  1.00  0.00     0.198 A 
ATOM    144  C   UNL A   1      46.868  27.992  35.267  1.00  0.00     0.198 A 
ATOM    145  F   UNL A   1      45.987  29.935  34.281  1.00  0.00    -0.203 F 
ATOM    146  F   UNL A   1      45.237  25.309  37.074  1.00  0.00    -0.200 F 
ATOM    147  C   UNL A   1      46.687  26.815  35.977  1.00  0.00     0.200 A 
ATOM    148  F   UNL A   1      48.099  28.358  34.880  1.00  0.00    -0.200 F 
ATOM    149  F   UNL A   1      47.742  26.055  36.297  1.00  0.00    -0.200 F 
ENDBRANCH 115 139
ENDBRANCH  80  83
ENDBRANCH  70  73
ENDBRANCH  66  69
ENDBRANCH  63  66
ENDBRANCH  60  63
ENDBRANCH  57  60
ENDBRANCH  54  57
ENDBRANCH   1  54
TORSDOF 24
ENDMDL
MODEL 10
REMARK VINA RESULT:     -11.2      1.290      7.298
REMARK SMILES [NH3+][C@@H](Cc1c[nH]c2ccccc12)C(=O)N[C@@H](CS)C(=O)N[C@@H](CO)C(=O)NCCCCCCNC(=O)c1ccc(-c2c3nc(c(-c4c(F)c(F)c(F)c(F)c4F)c4ccc([nH]4)c(-c4c(F)c(F)c(F)c(F)c4F)c4nc(c(-c5c(F)c(F)c(F)c(F)c5F)c5ccc2[nH]5)C=C4)C=C3)cc1
REMARK SMILES IDX 28 1 27 4 25 5 26 6 22 8 21 10 19 11 20 12 16 14 15 16 13 17
REMARK SMILES IDX 14 18 2 20 1 22 3 26 4 29 5 30 12 31 6 32 7 34 11 35 8 37
REMARK SMILES IDX 10 38 9 40 17 44 18 47 23 49 24 52 29 54 30 57 31 60 32 63
REMARK SMILES IDX 33 66 34 69 35 70 36 72 37 73 38 74 99 75 39 76 98 78 40 80
REMARK SMILES IDX 41 83 42 84 92 85 43 86 97 87 91 88 93 89 44 90 96 91 90 93
REMARK SMILES IDX 89 95 45 97 77 100 57 101 76 102 58 103 61 104 75 105 94 106
REMARK SMILES IDX 59 107 60 109 74 111 95 112 62 115 46 117 47 118 55 119
REMARK SMILES IDX 48 120 49 121 53 122 56 123 50 124 51 125 54 126 52 127
REMARK SMILES IDX 78 128 79 129 87 130 80 131 81 132 85 133 88 134 82 135
REMARK SMILES IDX 83 136 86 137 84 138 63 139 64 140 72 141 65 142 66 143
REMARK SMILES IDX 70 144 73 145 67 146 68 147 71 148 69 149
REMARK H PARENT 28 2 28 3 27 7 22 9 21 13 16 15 15 19 2 21 1 23 1 24 1 25 3 27
REMARK H PARENT 3 28 5 33 6 36 11 39 8 41 10 42 9 43 17 45 17 46 18 48 23 50
REMARK H PARENT 23 51 24 53 29 55 29 56 30 58 30 59 31 61 31 62 32 64 32 65
REMARK H PARENT 33 67 33 68 34 71 38 77 99 79 39 81 98 82 97 92 91 94 93 96
REMARK H PARENT 96 98 90 99 58 108 61 110 94 113 59 114 95 116
REMARK Flexibility Score: inf
ROOT
ATOM      1  C   UNL A   1      36.104  21.443  25.567  1.00  0.00     0.017 C 
ATOM      2  H   UNL A   1      35.509  21.110  24.742  1.00  0.00     0.049 H 
ATOM      3  H   UNL A   1      36.512  20.614  26.105  1.00  0.00     0.049 H 
ENDROOT
BRANCH   1   4
ATOM      4  N   UNL A   1      35.264  22.199  26.474  1.00  0.00    -0.354 N 
ATOM      5  C   UNL A   1      33.915  22.361  26.517  1.00  0.00     0.244 C 
ATOM      6  O   UNL A   1      33.433  22.802  27.565  1.00  0.00    -0.273 OA
ATOM      7  H   UNL A   1      35.755  22.678  27.180  1.00  0.00     0.163 HD
BRANCH   5   8
ATOM      8  C   UNL A   1      33.006  21.948  25.356  1.00  0.00     0.131 C 
ATOM      9  H   UNL A   1      32.079  22.469  25.480  1.00  0.00     0.066 H 
BRANCH   8  10
ATOM     10  N   UNL A   1      33.555  22.375  24.074  1.00  0.00    -0.340 N 
ATOM     11  C   UNL A   1      32.843  22.895  23.055  1.00  0.00     0.244 C 
ATOM     12  O   UNL A   1      32.911  22.255  22.000  1.00  0.00    -0.273 OA
ATOM     13  H   UNL A   1      34.524  22.276  23.943  1.00  0.00     0.164 HD
BRANCH  11  14
ATOM     14  C   UNL A   1      31.916  24.110  23.230  1.00  0.00     0.117 C 
ATOM     15  H   UNL A   1      32.394  24.766  23.928  1.00  0.00     0.064 H 
BRANCH  14  16
ATOM     16  N   UNL A   1      31.820  24.829  21.977  1.00  0.00    -0.338 N 
ATOM     17  C   UNL A   1      32.794  25.648  21.460  1.00  0.00     0.279 C 
ATOM     18  O   UNL A   1      32.901  25.665  20.229  1.00  0.00    -0.268 OA
ATOM     19  H   UNL A   1      30.991  24.723  21.455  1.00  0.00     0.164 HD
BRANCH  17  20
ATOM     20  C   UNL A   1      33.650  26.606  22.352  1.00  0.00     0.168 C 
ATOM     21  H   UNL A   1      34.590  26.104  22.452  1.00  0.00     0.107 H 
BRANCH  20  22
ATOM     22  N   UNL A   1      33.859  27.889  21.649  1.00  0.00    -0.347 N 
ATOM     23  H   UNL A   1      34.092  28.614  22.327  1.00  0.00     0.345 HD
ATOM     24  H   UNL A   1      33.006  28.149  21.153  1.00  0.00     0.345 HD
ATOM     25  H   UNL A   1      34.623  27.790  20.981  1.00  0.00     0.345 HD
ENDBRANCH  20  22
BRANCH  20  26
ATOM     26  C   UNL A   1      33.395  26.680  23.882  1.00  0.00     0.036 C 
ATOM     27  H   UNL A   1      34.353  26.786  24.347  1.00  0.00     0.038 H 
ATOM     28  H   UNL A   1      32.838  25.786  24.075  1.00  0.00     0.038 H 
BRANCH  26  29
ATOM     29  C   UNL A   1      32.512  27.757  24.468  1.00  0.00    -0.016 A 
ATOM     30  C   UNL A   1      31.303  28.146  23.917  1.00  0.00     0.005 A 
ATOM     31  C   UNL A   1      32.711  28.611  25.614  1.00  0.00     0.003 A 
ATOM     32  N   UNL A   1      30.885  29.292  24.534  1.00  0.00    -0.361 N 
ATOM     33  H   UNL A   1      30.800  27.652  23.164  1.00  0.00     0.082 H 
ATOM     34  C   UNL A   1      31.777  29.648  25.516  1.00  0.00     0.046 A 
ATOM     35  C   UNL A   1      33.663  28.687  26.651  1.00  0.00    -0.053 A 
ATOM     36  H   UNL A   1      30.066  29.789  24.309  1.00  0.00     0.166 HD
ATOM     37  C   UNL A   1      31.834  30.805  26.303  1.00  0.00    -0.038 A 
ATOM     38  C   UNL A   1      33.736  29.837  27.447  1.00  0.00    -0.062 A 
ATOM     39  H   UNL A   1      34.305  27.898  26.823  1.00  0.00     0.063 H 
ATOM     40  C   UNL A   1      32.853  30.893  27.253  1.00  0.00    -0.060 A 
ATOM     41  H   UNL A   1      31.146  31.566  26.185  1.00  0.00     0.064 H 
ATOM     42  H   UNL A   1      34.454  29.901  28.186  1.00  0.00     0.062 H 
ATOM     43  H   UNL A   1      32.951  31.752  27.817  1.00  0.00     0.062 H 
ENDBRANCH  26  29
ENDBRANCH  20  26
ENDBRANCH  17  20
ENDBRANCH  14  16
BRANCH  14  44
ATOM     44  C   UNL A   1      30.664  23.973  24.109  1.00  0.00     0.020 C 
ATOM     45  H   UNL A   1      30.499  22.926  24.258  1.00  0.00     0.040 H 
ATOM     46  H   UNL A   1      29.909  24.502  23.566  1.00  0.00     0.040 H 
BRANCH  44  47
ATOM     47  S   UNL A   1      30.653  24.754  25.751  1.00  0.00    -0.177 SA
ATOM     48  H   UNL A   1      29.761  25.780  25.758  1.00  0.00     0.102 HD
ENDBRANCH  44  47
ENDBRANCH  14  44
ENDBRANCH  11  14
ENDBRANCH   8  10
BRANCH   8  49
ATOM     49  C   UNL A   1      32.629  20.456  25.395  1.00  0.00     0.072 C 
ATOM     50  H   UNL A   1      32.972  19.998  24.492  1.00  0.00     0.059 H 
ATOM     51  H   UNL A   1      31.566  20.407  25.502  1.00  0.00     0.059 H 
BRANCH  49  52
ATOM     52  O   UNL A   1      33.190  19.751  26.499  1.00  0.00    -0.394 OA
ATOM     53  H   UNL A   1      32.523  19.153  26.874  1.00  0.00     0.210 HD
ENDBRANCH  49  52
ENDBRANCH   8  49
ENDBRANCH   5   8
ENDBRANCH   1   4
BRANCH   1  54
ATOM     54  C   UNL A   1      37.261  22.279  25.034  1.00  0.00    -0.036 C 
ATOM     55  H   UNL A   1      36.856  23.105  24.486  1.00  0.00     0.028 H 
ATOM     56  H   UNL A   1      37.856  21.633  24.423  1.00  0.00     0.028 H 
BRANCH  54  57
ATOM     57  C   UNL A   1      38.180  22.830  26.127  1.00  0.00    -0.052 C 
ATOM     58  H   UNL A   1      37.731  22.623  27.076  1.00  0.00     0.027 H 
ATOM     59  H   UNL A   1      38.288  23.876  25.933  1.00  0.00     0.027 H 
BRANCH  57  60
ATOM     60  C   UNL A   1      39.594  22.238  26.127  1.00  0.00    -0.052 C 
ATOM     61  H   UNL A   1      40.205  22.839  26.769  1.00  0.00     0.027 H 
ATOM     62  H   UNL A   1      39.920  22.241  25.108  1.00  0.00     0.027 H 
BRANCH  60  63
ATOM     63  C   UNL A   1      39.685  20.786  26.603  1.00  0.00    -0.036 C 
ATOM     64  H   UNL A   1      38.780  20.546  27.122  1.00  0.00     0.028 H 
ATOM     65  H   UNL A   1      40.552  20.722  27.228  1.00  0.00     0.028 H 
BRANCH  63  66
ATOM     66  C   UNL A   1      39.878  19.775  25.485  1.00  0.00     0.018 C 
ATOM     67  H   UNL A   1      40.131  20.296  24.586  1.00  0.00     0.049 H 
ATOM     68  H   UNL A   1      38.965  19.230  25.368  1.00  0.00     0.049 H 
BRANCH  66  69
ATOM     69  N   UNL A   1      40.934  18.827  25.793  1.00  0.00    -0.352 N 
ATOM     70  C   UNL A   1      42.241  19.071  26.125  1.00  0.00     0.251 C 
ATOM     71  H   UNL A   1      40.675  17.878  25.758  1.00  0.00     0.163 HD
ATOM     72  O   UNL A   1      43.058  18.161  26.137  1.00  0.00    -0.269 OA
BRANCH  70  73
ATOM     73  C   UNL A   1      42.656  20.449  26.454  1.00  0.00     0.039 A 
ATOM     74  C   UNL A   1      43.068  21.291  25.420  1.00  0.00    -0.049 A 
ATOM     75  C   UNL A   1      42.641  20.904  27.777  1.00  0.00    -0.049 A 
ATOM     76  C   UNL A   1      43.430  22.606  25.711  1.00  0.00    -0.053 A 
ATOM     77  H   UNL A   1      43.105  20.943  24.450  1.00  0.00     0.063 H 
ATOM     78  C   UNL A   1      42.918  22.239  28.051  1.00  0.00    -0.053 A 
ATOM     79  H   UNL A   1      42.426  20.251  28.546  1.00  0.00     0.063 H 
ATOM     80  C   UNL A   1      43.332  23.097  27.023  1.00  0.00    -0.014 A 
ATOM     81  H   UNL A   1      43.771  23.222  24.957  1.00  0.00     0.063 H 
ATOM     82  H   UNL A   1      42.816  22.598  29.014  1.00  0.00     0.063 H 
BRANCH  80  83
ATOM     83  C   UNL A   1      43.676  24.507  27.331  1.00  0.00     0.031 A 
ATOM     84  C   UNL A   1      45.100  24.977  27.240  1.00  0.00     0.074 A 
ATOM     85  C   UNL A   1      42.706  25.352  27.728  1.00  0.00     0.049 A 
ATOM     86  N   UNL A   1      45.594  26.169  27.462  1.00  0.00    -0.248 NA
ATOM     87  C   UNL A   1      46.111  23.970  26.879  1.00  0.00    -0.034 C 
ATOM     88  C   UNL A   1      41.299  24.994  27.916  1.00  0.00    -0.036 A 
ATOM     89  N   UNL A   1      42.755  26.686  28.045  1.00  0.00    -0.354 N 
ATOM     90  C   UNL A   1      46.966  26.051  27.280  1.00  0.00     0.074 A 
ATOM     91  C   UNL A   1      47.236  24.659  26.994  1.00  0.00    -0.034 C 
ATOM     92  H   UNL A   1      45.978  22.984  26.608  1.00  0.00     0.065 H 
ATOM     93  C   UNL A   1      40.612  26.087  28.281  1.00  0.00    -0.036 A 
ATOM     94  H   UNL A   1      40.900  24.051  27.789  1.00  0.00     0.065 H 
ATOM     95  C   UNL A   1      41.534  27.215  28.386  1.00  0.00     0.049 A 
ATOM     96  H   UNL A   1      43.585  27.214  28.029  1.00  0.00     0.167 HD
ATOM     97  C   UNL A   1      47.909  27.021  27.320  1.00  0.00     0.037 A 
ATOM     98  H   UNL A   1      48.180  24.257  26.892  1.00  0.00     0.065 H 
ATOM     99  H   UNL A   1      39.597  26.126  28.458  1.00  0.00     0.065 H 
ATOM    100  C   UNL A   1      41.197  28.468  28.742  1.00  0.00     0.037 A 
ATOM    101  C   UNL A   1      47.629  28.407  27.584  1.00  0.00     0.049 A 
ATOM    102  C   UNL A   1      42.262  29.531  28.770  1.00  0.00     0.074 A 
ATOM    103  C   UNL A   1      48.500  29.480  27.581  1.00  0.00    -0.036 A 
ATOM    104  N   UNL A   1      46.376  28.910  27.909  1.00  0.00    -0.354 N 
ATOM    105  N   UNL A   1      43.543  29.426  28.507  1.00  0.00    -0.248 NA
ATOM    106  C   UNL A   1      41.833  30.889  29.131  1.00  0.00    -0.034 C 
ATOM    107  C   UNL A   1      47.789  30.622  27.962  1.00  0.00    -0.036 A 
ATOM    108  H   UNL A   1      49.503  29.445  27.339  1.00  0.00     0.065 H 
ATOM    109  C   UNL A   1      46.458  30.275  28.136  1.00  0.00     0.049 A 
ATOM    110  H   UNL A   1      45.551  28.377  27.969  1.00  0.00     0.167 HD
ATOM    111  C   UNL A   1      44.066  30.706  28.639  1.00  0.00     0.074 A 
ATOM    112  C   UNL A   1      42.960  31.572  28.992  1.00  0.00    -0.034 C 
ATOM    113  H   UNL A   1      40.900  31.222  29.416  1.00  0.00     0.065 H 
ATOM    114  H   UNL A   1      48.186  31.566  28.091  1.00  0.00     0.065 H 
ATOM    115  C   UNL A   1      45.346  31.124  28.481  1.00  0.00     0.037 A 
ATOM    116  H   UNL A   1      43.041  32.593  29.119  1.00  0.00     0.065 H 
BRANCH  97 117
ATOM    117  C   UNL A   1      49.335  26.614  27.073  1.00  0.00     0.064 A 
ATOM    118  C   UNL A   1      50.214  26.318  28.128  1.00  0.00     0.173 A 
ATOM    119  C   UNL A   1      49.824  26.491  25.764  1.00  0.00     0.173 A 
ATOM    120  F   UNL A   1      49.803  26.429  29.400  1.00  0.00    -0.203 F 
ATOM    121  C   UNL A   1      51.534  25.951  27.882  1.00  0.00     0.198 A 
ATOM    122  C   UNL A   1      51.135  26.090  25.520  1.00  0.00     0.198 A 
ATOM    123  F   UNL A   1      49.027  26.755  24.716  1.00  0.00    -0.203 F 
ATOM    124  F   UNL A   1      52.370  25.734  28.907  1.00  0.00    -0.200 F 
ATOM    125  C   UNL A   1      51.991  25.830  26.578  1.00  0.00     0.200 A 
ATOM    126  F   UNL A   1      51.570  25.958  24.260  1.00  0.00    -0.200 F 
ATOM    127  F   UNL A   1      53.261  25.472  26.342  1.00  0.00    -0.200 F 
ENDBRANCH  97 117
BRANCH 100 128
ATOM    128  C   UNL A   1      39.782  28.790  29.065  1.00  0.00     0.064 A 
ATOM    129  C   UNL A   1      38.903  29.255  28.076  1.00  0.00     0.173 A 
ATOM    130  C   UNL A   1      39.277  28.631  30.364  1.00  0.00     0.173 A 
ATOM    131  F   UNL A   1      39.343  29.438  26.823  1.00  0.00    -0.203 F 
ATOM    132  C   UNL A   1      37.580  29.567  28.379  1.00  0.00     0.198 A 
ATOM    133  C   UNL A   1      37.945  28.914  30.658  1.00  0.00     0.198 A 
ATOM    134  F   UNL A   1      40.074  28.181  31.344  1.00  0.00    -0.203 F 
ATOM    135  F   UNL A   1      36.773  30.051  27.425  1.00  0.00    -0.200 F 
ATOM    136  C   UNL A   1      37.100  29.390  29.668  1.00  0.00     0.200 A 
ATOM    137  F   UNL A   1      37.482  28.724  31.901  1.00  0.00    -0.200 F 
ATOM    138  F   UNL A   1      35.825  29.683  29.957  1.00  0.00    -0.200 F 
ENDBRANCH 100 128
BRANCH 115 139
ATOM    139  C   UNL A   1      45.616  32.593  28.645  1.00  0.00     0.064 A 
ATOM    140  C   UNL A   1      46.007  33.141  29.875  1.00  0.00     0.173 A 
ATOM    141  C   UNL A   1      45.523  33.456  27.542  1.00  0.00     0.173 A 
ATOM    142  F   UNL A   1      46.097  32.361  30.964  1.00  0.00    -0.203 F 
ATOM    143  C   UNL A   1      46.265  34.503  30.002  1.00  0.00     0.198 A 
ATOM    144  C   UNL A   1      45.817  34.811  27.665  1.00  0.00     0.198 A 
ATOM    145  F   UNL A   1      45.163  32.982  26.340  1.00  0.00    -0.203 F 
ATOM    146  F   UNL A   1      46.585  35.014  31.200  1.00  0.00    -0.200 F 
ATOM    147  C   UNL A   1      46.179  35.335  28.896  1.00  0.00     0.200 A 
ATOM    148  F   UNL A   1      45.749  35.609  26.590  1.00  0.00    -0.200 F 
ATOM    149  F   UNL A   1      46.437  36.644  29.018  1.00  0.00    -0.200 F 
ENDBRANCH 115 139
ENDBRANCH  80  83
ENDBRANCH  70  73
ENDBRANCH  66  69
ENDBRANCH  63  66
ENDBRANCH  60  63
ENDBRANCH  57  60
ENDBRANCH  54  57
ENDBRANCH   1  54
TORSDOF 24
ENDMDL
