MODEL 1
REMARK VINA RESULT:     -13.2      0.000      0.000
REMARK SMILES O=C(NCCCCCCNC(=O)c1cc(/C=C/c2cc(O)cc(O)c2)ccc1O)c1ccc(-c2c3nc(c(-c4c(F)c(F)c(F)c(F)c4F)c4ccc([nH]4)c(-c4c(F)c(F)c(F)c(F)c4F)c4nc(c(-c5c(F)c(F)c(F)c(F)c5F)c5ccc2[nH]5)C=C4)C=C3)cc1
REMARK SMILES IDX 7 1 6 4 5 7 4 10 3 13 1 14 2 15 30 17 31 18 92 19 32 20
REMARK SMILES IDX 91 22 33 24 34 27 35 28 85 29 36 30 90 31 84 32 86 33 37 34
REMARK SMILES IDX 89 35 83 37 82 39 38 41 70 44 50 45 69 46 51 47 54 48 68 49
REMARK SMILES IDX 87 50 52 51 53 53 67 55 88 56 55 59 39 61 40 62 48 63 41 64
REMARK SMILES IDX 42 65 46 66 49 67 43 68 44 69 47 70 45 71 71 72 72 73 80 74
REMARK SMILES IDX 73 75 74 76 78 77 81 78 75 79 76 80 79 81 77 82 56 83 57 84
REMARK SMILES IDX 65 85 58 86 59 87 63 88 66 89 60 90 61 91 64 92 62 93 8 94
REMARK SMILES IDX 9 97 10 100 11 101 12 103 13 104 14 105 28 106 15 107 27 109
REMARK SMILES IDX 26 110 29 113 16 115 17 116 18 119 19 120 25 121 20 122
REMARK SMILES IDX 23 124 22 126 21 128 24 130
REMARK H PARENT 7 2 7 3 6 5 6 6 5 8 5 9 4 11 4 12 3 16 31 21 92 23 32 25 91 26
REMARK H PARENT 90 36 84 38 86 40 89 42 83 43 51 52 54 54 87 57 52 58 88 60
REMARK H PARENT 8 95 8 96 9 98 9 99 10 102 14 108 27 111 26 112 29 114 16 117
REMARK H PARENT 17 118 19 123 25 125 22 127 21 129 24 131
REMARK Flexibility Score: inf
ROOT
ATOM      1  C   UNL A   1      32.372  29.885  26.904  1.00  0.00    -0.052 C 
ATOM      2  H   UNL A   1      32.646  30.453  27.769  1.00  0.00     0.027 H 
ATOM      3  H   UNL A   1      33.207  29.587  26.306  1.00  0.00     0.027 H 
ENDROOT
BRANCH   1   4
ATOM      4  C   UNL A   1      31.506  30.775  26.008  1.00  0.00    -0.052 C 
ATOM      5  H   UNL A   1      31.975  30.837  25.049  1.00  0.00     0.027 H 
ATOM      6  H   UNL A   1      30.538  30.319  25.980  1.00  0.00     0.027 H 
BRANCH   4   7
ATOM      7  C   UNL A   1      31.291  32.198  26.522  1.00  0.00    -0.036 C 
ATOM      8  H   UNL A   1      31.060  32.825  25.685  1.00  0.00     0.028 H 
ATOM      9  H   UNL A   1      30.495  32.147  27.237  1.00  0.00     0.028 H 
BRANCH   7  10
ATOM     10  C   UNL A   1      32.488  32.793  27.246  1.00  0.00     0.018 C 
ATOM     11  H   UNL A   1      32.662  32.234  28.141  1.00  0.00     0.049 H 
ATOM     12  H   UNL A   1      33.327  32.746  26.586  1.00  0.00     0.049 H 
BRANCH  10  13
ATOM     13  N   UNL A   1      32.279  34.187  27.601  1.00  0.00    -0.352 N 
ATOM     14  O   UNL A   1      32.519  36.049  28.862  1.00  0.00    -0.269 OA
ATOM     15  C   UNL A   1      32.926  34.932  28.553  1.00  0.00     0.251 C 
ATOM     16  H   UNL A   1      31.582  34.659  27.090  1.00  0.00     0.163 HD
BRANCH  15  17
ATOM     17  C   UNL A   1      34.122  34.372  29.215  1.00  0.00     0.039 A 
ATOM     18  C   UNL A   1      33.987  33.605  30.377  1.00  0.00    -0.049 A 
ATOM     19  C   UNL A   1      35.383  34.599  28.660  1.00  0.00    -0.049 A 
ATOM     20  C   UNL A   1      35.119  33.154  31.041  1.00  0.00    -0.053 A 
ATOM     21  H   UNL A   1      33.048  33.376  30.739  1.00  0.00     0.063 H 
ATOM     22  C   UNL A   1      36.516  34.068  29.280  1.00  0.00    -0.053 A 
ATOM     23  H   UNL A   1      35.478  35.157  27.797  1.00  0.00     0.063 H 
ATOM     24  C   UNL A   1      36.391  33.342  30.475  1.00  0.00    -0.014 A 
ATOM     25  H   UNL A   1      35.026  32.679  31.952  1.00  0.00     0.063 H 
ATOM     26  H   UNL A   1      37.448  34.209  28.859  1.00  0.00     0.063 H 
BRANCH  24  27
ATOM     27  C   UNL A   1      37.552  32.638  31.069  1.00  0.00     0.031 A 
ATOM     28  C   UNL A   1      38.225  31.498  30.366  1.00  0.00     0.074 A 
ATOM     29  C   UNL A   1      37.978  33.047  32.281  1.00  0.00     0.049 A 
ATOM     30  N   UNL A   1      39.227  30.760  30.776  1.00  0.00    -0.248 NA
ATOM     31  C   UNL A   1      37.712  31.128  29.039  1.00  0.00    -0.034 C 
ATOM     32  C   UNL A   1      37.377  34.135  33.059  1.00  0.00    -0.036 A 
ATOM     33  N   UNL A   1      39.005  32.605  33.074  1.00  0.00    -0.354 N 
ATOM     34  C   UNL A   1      39.451  29.830  29.770  1.00  0.00     0.074 A 
ATOM     35  C   UNL A   1      38.474  30.085  28.734  1.00  0.00    -0.034 C 
ATOM     36  H   UNL A   1      36.956  31.565  28.489  1.00  0.00     0.065 H 
ATOM     37  C   UNL A   1      38.057  34.290  34.202  1.00  0.00    -0.036 A 
ATOM     38  H   UNL A   1      36.557  34.693  32.772  1.00  0.00     0.065 H 
ATOM     39  C   UNL A   1      39.092  33.267  34.274  1.00  0.00     0.049 A 
ATOM     40  H   UNL A   1      39.621  31.884  32.808  1.00  0.00     0.167 HD
ATOM     41  C   UNL A   1      40.390  28.855  29.730  1.00  0.00     0.037 A 
ATOM     42  H   UNL A   1      38.383  29.529  27.869  1.00  0.00     0.065 H 
ATOM     43  H   UNL A   1      37.879  35.015  34.915  1.00  0.00     0.065 H 
ATOM     44  C   UNL A   1      39.885  33.047  35.339  1.00  0.00     0.037 A 
ATOM     45  C   UNL A   1      41.367  28.627  30.766  1.00  0.00     0.049 A 
ATOM     46  C   UNL A   1      40.886  31.929  35.270  1.00  0.00     0.074 A 
ATOM     47  C   UNL A   1      42.412  27.718  30.779  1.00  0.00    -0.036 A 
ATOM     48  N   UNL A   1      41.410  29.300  31.978  1.00  0.00    -0.354 N 
ATOM     49  N   UNL A   1      41.142  31.109  34.281  1.00  0.00    -0.248 NA
ATOM     50  C   UNL A   1      41.701  31.699  36.469  1.00  0.00    -0.034 C 
ATOM     51  C   UNL A   1      43.040  27.791  32.025  1.00  0.00    -0.036 A 
ATOM     52  H   UNL A   1      42.679  27.093  30.002  1.00  0.00     0.065 H 
ATOM     53  C   UNL A   1      42.429  28.789  32.766  1.00  0.00     0.049 A 
ATOM     54  H   UNL A   1      40.806  30.031  32.240  1.00  0.00     0.167 HD
ATOM     55  C   UNL A   1      42.153  30.275  34.732  1.00  0.00     0.074 A 
ATOM     56  C   UNL A   1      42.488  30.710  36.072  1.00  0.00    -0.034 C 
ATOM     57  H   UNL A   1      41.670  32.181  37.382  1.00  0.00     0.065 H 
ATOM     58  H   UNL A   1      43.827  27.201  32.339  1.00  0.00     0.065 H 
ATOM     59  C   UNL A   1      42.745  29.233  34.099  1.00  0.00     0.037 A 
ATOM     60  H   UNL A   1      43.244  30.303  36.644  1.00  0.00     0.065 H 
BRANCH  41  61
ATOM     61  C   UNL A   1      40.416  27.932  28.547  1.00  0.00     0.064 A 
ATOM     62  C   UNL A   1      41.158  28.226  27.395  1.00  0.00     0.173 A 
ATOM     63  C   UNL A   1      39.779  26.681  28.616  1.00  0.00     0.173 A 
ATOM     64  F   UNL A   1      41.780  29.408  27.275  1.00  0.00    -0.203 F 
ATOM     65  C   UNL A   1      41.261  27.303  26.356  1.00  0.00     0.198 A 
ATOM     66  C   UNL A   1      39.907  25.752  27.588  1.00  0.00     0.198 A 
ATOM     67  F   UNL A   1      39.063  26.347  29.700  1.00  0.00    -0.203 F 
ATOM     68  F   UNL A   1      41.963  27.611  25.256  1.00  0.00    -0.200 F 
ATOM     69  C   UNL A   1      40.647  26.064  26.458  1.00  0.00     0.200 A 
ATOM     70  F   UNL A   1      39.325  24.550  27.697  1.00  0.00    -0.200 F 
ATOM     71  F   UNL A   1      40.770  25.168  25.468  1.00  0.00    -0.200 F 
ENDBRANCH  41  61
BRANCH  44  72
ATOM     72  C   UNL A   1      39.725  33.862  36.571  1.00  0.00     0.064 A 
ATOM     73  C   UNL A   1      38.899  33.439  37.620  1.00  0.00     0.173 A 
ATOM     74  C   UNL A   1      40.376  35.098  36.713  1.00  0.00     0.173 A 
ATOM     75  F   UNL A   1      38.242  32.273  37.527  1.00  0.00    -0.203 F 
ATOM     76  C   UNL A   1      38.701  34.235  38.746  1.00  0.00     0.198 A 
ATOM     77  C   UNL A   1      40.210  35.874  37.855  1.00  0.00     0.198 A 
ATOM     78  F   UNL A   1      41.185  35.547  35.741  1.00  0.00    -0.203 F 
ATOM     79  F   UNL A   1      37.854  33.837  39.704  1.00  0.00    -0.200 F 
ATOM     80  C   UNL A   1      39.360  35.450  38.864  1.00  0.00     0.200 A 
ATOM     81  F   UNL A   1      40.866  37.037  37.974  1.00  0.00    -0.200 F 
ATOM     82  F   UNL A   1      39.168  36.217  39.946  1.00  0.00    -0.200 F 
ENDBRANCH  44  72
BRANCH  59  83
ATOM     83  C   UNL A   1      43.817  28.500  34.849  1.00  0.00     0.064 A 
ATOM     84  C   UNL A   1      43.526  27.364  35.619  1.00  0.00     0.173 A 
ATOM     85  C   UNL A   1      45.155  28.917  34.771  1.00  0.00     0.173 A 
ATOM     86  F   UNL A   1      42.259  26.939  35.742  1.00  0.00    -0.203 F 
ATOM     87  C   UNL A   1      44.531  26.686  36.303  1.00  0.00     0.198 A 
ATOM     88  C   UNL A   1      46.162  28.215  35.428  1.00  0.00     0.198 A 
ATOM     89  F   UNL A   1      45.487  29.995  34.045  1.00  0.00    -0.203 F 
ATOM     90  F   UNL A   1      44.222  25.634  37.073  1.00  0.00    -0.200 F 
ATOM     91  C   UNL A   1      45.849  27.107  36.199  1.00  0.00     0.200 A 
ATOM     92  F   UNL A   1      47.436  28.614  35.314  1.00  0.00    -0.200 F 
ATOM     93  F   UNL A   1      46.817  26.446  36.848  1.00  0.00    -0.200 F 
ENDBRANCH  59  83
ENDBRANCH  24  27
ENDBRANCH  15  17
ENDBRANCH  10  13
ENDBRANCH   7  10
ENDBRANCH   4   7
ENDBRANCH   1   4
BRANCH   1  94
ATOM     94  C   UNL A   1      31.708  28.589  27.380  1.00  0.00    -0.036 C 
ATOM     95  H   UNL A   1      30.694  28.591  27.038  1.00  0.00     0.028 H 
ATOM     96  H   UNL A   1      31.795  28.580  28.445  1.00  0.00     0.028 H 
BRANCH  94  97
ATOM     97  C   UNL A   1      32.373  27.310  26.884  1.00  0.00     0.018 C 
ATOM     98  H   UNL A   1      33.298  27.176  27.403  1.00  0.00     0.049 H 
ATOM     99  H   UNL A   1      32.530  27.406  25.829  1.00  0.00     0.049 H 
BRANCH  97 100
ATOM    100  N   UNL A   1      31.541  26.144  27.105  1.00  0.00    -0.352 N 
ATOM    101  C   UNL A   1      30.910  25.359  26.174  1.00  0.00     0.255 C 
ATOM    102  H   UNL A   1      31.411  25.882  28.045  1.00  0.00     0.163 HD
ATOM    103  O   UNL A   1      30.161  24.455  26.533  1.00  0.00    -0.269 OA
BRANCH 101 104
ATOM    104  C   UNL A   1      31.056  25.660  24.737  1.00  0.00     0.082 A 
ATOM    105  C   UNL A   1      30.535  26.884  24.294  1.00  0.00    -0.038 A 
ATOM    106  C   UNL A   1      31.664  24.787  23.833  1.00  0.00     0.128 A 
ATOM    107  C   UNL A   1      30.653  27.270  22.954  1.00  0.00    -0.025 A 
ATOM    108  H   UNL A   1      30.059  27.508  24.964  1.00  0.00     0.064 H 
ATOM    109  C   UNL A   1      31.799  25.159  22.499  1.00  0.00    -0.019 A 
ATOM    110  C   UNL A   1      31.303  26.395  22.068  1.00  0.00    -0.051 A 
ATOM    111  H   UNL A   1      32.265  24.526  21.829  1.00  0.00     0.066 H 
ATOM    112  H   UNL A   1      31.418  26.669  21.080  1.00  0.00     0.063 H 
BRANCH 106 113
ATOM    113  O   UNL A   1      32.139  23.574  24.248  1.00  0.00    -0.507 OA
ATOM    114  H   UNL A   1      32.331  23.432  25.153  1.00  0.00     0.293 HD
ENDBRANCH 106 113
BRANCH 107 115
ATOM    115  C   UNL A   1      30.123  28.541  22.427  1.00  0.00    -0.054 C 
ATOM    116  C   UNL A   1      29.400  29.437  23.118  1.00  0.00    -0.054 C 
ATOM    117  H   UNL A   1      30.327  28.761  21.440  1.00  0.00     0.063 H 
ATOM    118  H   UNL A   1      29.206  29.250  24.114  1.00  0.00     0.063 H 
BRANCH 116 119
ATOM    119  C   UNL A   1      28.872  30.674  22.524  1.00  0.00    -0.018 A 
ATOM    120  C   UNL A   1      28.972  31.905  23.186  1.00  0.00    -0.013 A 
ATOM    121  C   UNL A   1      28.323  30.628  21.235  1.00  0.00    -0.013 A 
ATOM    122  C   UNL A   1      28.506  33.063  22.568  1.00  0.00     0.119 A 
ATOM    123  H   UNL A   1      29.389  31.954  24.128  1.00  0.00     0.067 H 
ATOM    124  C   UNL A   1      27.861  31.798  20.637  1.00  0.00     0.119 A 
ATOM    125  H   UNL A   1      28.262  29.730  20.730  1.00  0.00     0.067 H 
ATOM    126  C   UNL A   1      27.945  33.017  21.298  1.00  0.00     0.022 A 
ATOM    127  H   UNL A   1      27.597  33.880  20.849  1.00  0.00     0.070 H 
BRANCH 122 128
ATOM    128  O   UNL A   1      28.592  34.278  23.183  1.00  0.00    -0.508 OA
ATOM    129  H   UNL A   1      29.431  34.659  23.353  1.00  0.00     0.293 HD
ENDBRANCH 122 128
BRANCH 124 130
ATOM    130  O   UNL A   1      27.317  31.787  19.386  1.00  0.00    -0.508 OA
ATOM    131  H   UNL A   1      26.527  32.262  19.215  1.00  0.00     0.293 HD
ENDBRANCH 124 130
ENDBRANCH 116 119
ENDBRANCH 107 115
ENDBRANCH 101 104
ENDBRANCH  97 100
ENDBRANCH  94  97
ENDBRANCH   1  94
TORSDOF 18
ENDMDL
MODEL 2
REMARK VINA RESULT:     -13.2      0.385      1.953
REMARK SMILES O=C(NCCCCCCNC(=O)c1cc(/C=C/c2cc(O)cc(O)c2)ccc1O)c1ccc(-c2c3nc(c(-c4c(F)c(F)c(F)c(F)c4F)c4ccc([nH]4)c(-c4c(F)c(F)c(F)c(F)c4F)c4nc(c(-c5c(F)c(F)c(F)c(F)c5F)c5ccc2[nH]5)C=C4)C=C3)cc1
REMARK SMILES IDX 7 1 6 4 5 7 4 10 3 13 1 14 2 15 30 17 31 18 92 19 32 20
REMARK SMILES IDX 91 22 33 24 34 27 35 28 85 29 36 30 90 31 84 32 86 33 37 34
REMARK SMILES IDX 89 35 83 37 82 39 38 41 70 44 50 45 69 46 51 47 54 48 68 49
REMARK SMILES IDX 87 50 52 51 53 53 67 55 88 56 55 59 39 61 40 62 48 63 41 64
REMARK SMILES IDX 42 65 46 66 49 67 43 68 44 69 47 70 45 71 71 72 72 73 80 74
REMARK SMILES IDX 73 75 74 76 78 77 81 78 75 79 76 80 79 81 77 82 56 83 57 84
REMARK SMILES IDX 65 85 58 86 59 87 63 88 66 89 60 90 61 91 64 92 62 93 8 94
REMARK SMILES IDX 9 97 10 100 11 101 12 103 13 104 14 105 28 106 15 107 27 109
REMARK SMILES IDX 26 110 29 113 16 115 17 116 18 119 19 120 25 121 20 122
REMARK SMILES IDX 23 124 22 126 21 128 24 130
REMARK H PARENT 7 2 7 3 6 5 6 6 5 8 5 9 4 11 4 12 3 16 31 21 92 23 32 25 91 26
REMARK H PARENT 90 36 84 38 86 40 89 42 83 43 51 52 54 54 87 57 52 58 88 60
REMARK H PARENT 8 95 8 96 9 98 9 99 10 102 14 108 27 111 26 112 29 114 16 117
REMARK H PARENT 17 118 19 123 25 125 22 127 21 129 24 131
REMARK Flexibility Score: inf
ROOT
ATOM      1  C   UNL A   1      32.492  29.841  27.045  1.00  0.00    -0.052 C 
ATOM      2  H   UNL A   1      32.701  30.436  27.909  1.00  0.00     0.027 H 
ATOM      3  H   UNL A   1      33.365  29.563  26.493  1.00  0.00     0.027 H 
ENDROOT
BRANCH   1   4
ATOM      4  C   UNL A   1      31.635  30.678  26.089  1.00  0.00    -0.052 C 
ATOM      5  H   UNL A   1      32.114  30.681  25.132  1.00  0.00     0.027 H 
ATOM      6  H   UNL A   1      30.667  30.223  26.080  1.00  0.00     0.027 H 
BRANCH   4   7
ATOM      7  C   UNL A   1      31.420  32.129  26.516  1.00  0.00    -0.036 C 
ATOM      8  H   UNL A   1      31.269  32.718  25.635  1.00  0.00     0.028 H 
ATOM      9  H   UNL A   1      30.571  32.132  27.169  1.00  0.00     0.028 H 
BRANCH   7  10
ATOM     10  C   UNL A   1      32.574  32.733  27.301  1.00  0.00     0.018 C 
ATOM     11  H   UNL A   1      32.687  32.192  28.217  1.00  0.00     0.049 H 
ATOM     12  H   UNL A   1      33.452  32.666  26.695  1.00  0.00     0.049 H 
BRANCH  10  13
ATOM     13  N   UNL A   1      32.354  34.135  27.611  1.00  0.00    -0.352 N 
ATOM     14  O   UNL A   1      32.556  36.030  28.829  1.00  0.00    -0.269 OA
ATOM     15  C   UNL A   1      32.972  34.906  28.561  1.00  0.00     0.251 C 
ATOM     16  H   UNL A   1      31.672  34.593  27.067  1.00  0.00     0.163 HD
BRANCH  15  17
ATOM     17  C   UNL A   1      34.148  34.366  29.273  1.00  0.00     0.039 A 
ATOM     18  C   UNL A   1      33.983  33.663  30.471  1.00  0.00    -0.049 A 
ATOM     19  C   UNL A   1      35.422  34.547  28.729  1.00  0.00    -0.049 A 
ATOM     20  C   UNL A   1      35.097  33.233  31.179  1.00  0.00    -0.053 A 
ATOM     21  H   UNL A   1      33.035  33.466  30.828  1.00  0.00     0.063 H 
ATOM     22  C   UNL A   1      36.536  34.033  29.397  1.00  0.00    -0.053 A 
ATOM     23  H   UNL A   1      35.540  35.056  27.841  1.00  0.00     0.063 H 
ATOM     24  C   UNL A   1      36.380  33.373  30.626  1.00  0.00    -0.014 A 
ATOM     25  H   UNL A   1      34.981  32.808  32.112  1.00  0.00     0.063 H 
ATOM     26  H   UNL A   1      37.477  34.139  28.986  1.00  0.00     0.063 H 
BRANCH  24  27
ATOM     27  C   UNL A   1      37.521  32.686  31.277  1.00  0.00     0.031 A 
ATOM     28  C   UNL A   1      38.213  31.524  30.630  1.00  0.00     0.074 A 
ATOM     29  C   UNL A   1      37.910  33.131  32.489  1.00  0.00     0.049 A 
ATOM     30  N   UNL A   1      39.200  30.798  31.092  1.00  0.00    -0.248 NA
ATOM     31  C   UNL A   1      37.741  31.115  29.299  1.00  0.00    -0.034 C 
ATOM     32  C   UNL A   1      37.287  34.241  33.215  1.00  0.00    -0.036 A 
ATOM     33  N   UNL A   1      38.911  32.711  33.326  1.00  0.00    -0.354 N 
ATOM     34  C   UNL A   1      39.454  29.838  30.123  1.00  0.00     0.074 A 
ATOM     35  C   UNL A   1      38.510  30.063  29.049  1.00  0.00    -0.034 C 
ATOM     36  H   UNL A   1      37.003  31.537  28.713  1.00  0.00     0.065 H 
ATOM     37  C   UNL A   1      37.931  34.430  34.374  1.00  0.00    -0.036 A 
ATOM     38  H   UNL A   1      36.478  34.792  32.885  1.00  0.00     0.065 H 
ATOM     39  C   UNL A   1      38.961  33.409  34.509  1.00  0.00     0.049 A 
ATOM     40  H   UNL A   1      39.533  31.982  33.102  1.00  0.00     0.167 HD
ATOM     41  C   UNL A   1      40.391  28.861  30.141  1.00  0.00     0.037 A 
ATOM     42  H   UNL A   1      38.445  29.481  28.198  1.00  0.00     0.065 H 
ATOM     43  H   UNL A   1      37.732  35.176  35.058  1.00  0.00     0.065 H 
ATOM     44  C   UNL A   1      39.720  33.219  35.603  1.00  0.00     0.037 A 
ATOM     45  C   UNL A   1      41.335  28.663  31.213  1.00  0.00     0.049 A 
ATOM     46  C   UNL A   1      40.720  32.098  35.600  1.00  0.00     0.074 A 
ATOM     47  C   UNL A   1      42.377  27.754  31.286  1.00  0.00    -0.036 A 
ATOM     48  N   UNL A   1      41.342  29.372  32.405  1.00  0.00    -0.354 N 
ATOM     49  N   UNL A   1      41.006  31.250  34.643  1.00  0.00    -0.248 NA
ATOM     50  C   UNL A   1      41.498  31.904  36.830  1.00  0.00    -0.034 C 
ATOM     51  C   UNL A   1      42.966  27.863  32.548  1.00  0.00    -0.036 A 
ATOM     52  H   UNL A   1      42.666  27.106  30.536  1.00  0.00     0.065 H 
ATOM     53  C   UNL A   1      42.335  28.883  33.240  1.00  0.00     0.049 A 
ATOM     54  H   UNL A   1      40.731  30.112  32.626  1.00  0.00     0.167 HD
ATOM     55  C   UNL A   1      42.001  30.428  35.151  1.00  0.00     0.074 A 
ATOM     56  C   UNL A   1      42.294  30.903  36.486  1.00  0.00    -0.034 C 
ATOM     57  H   UNL A   1      41.439  32.412  37.726  1.00  0.00     0.065 H 
ATOM     58  H   UNL A   1      43.741  27.282  32.904  1.00  0.00     0.065 H 
ATOM     59  C   UNL A   1      42.609  29.367  34.568  1.00  0.00     0.037 A 
ATOM     60  H   UNL A   1      43.032  30.512  37.094  1.00  0.00     0.065 H 
BRANCH  41  61
ATOM     61  C   UNL A   1      40.452  27.903  28.987  1.00  0.00     0.064 A 
ATOM     62  C   UNL A   1      39.689  26.728  28.959  1.00  0.00     0.173 A 
ATOM     63  C   UNL A   1      41.199  28.228  27.842  1.00  0.00     0.173 A 
ATOM     64  F   UNL A   1      38.963  26.368  30.028  1.00  0.00    -0.203 F 
ATOM     65  C   UNL A   1      39.673  25.912  27.829  1.00  0.00     0.198 A 
ATOM     66  C   UNL A   1      41.159  27.425  26.706  1.00  0.00     0.198 A 
ATOM     67  F   UNL A   1      41.940  29.346  27.814  1.00  0.00    -0.203 F 
ATOM     68  F   UNL A   1      38.948  24.784  27.829  1.00  0.00    -0.200 F 
ATOM     69  C   UNL A   1      40.397  26.267  26.701  1.00  0.00     0.200 A 
ATOM     70  F   UNL A   1      41.847  27.779  25.612  1.00  0.00    -0.200 F 
ATOM     71  F   UNL A   1      40.358  25.495  25.606  1.00  0.00    -0.200 F 
ENDBRANCH  41  61
BRANCH  44  72
ATOM     72  C   UNL A   1      39.524  34.071  36.805  1.00  0.00     0.064 A 
ATOM     73  C   UNL A   1      40.129  35.331  36.909  1.00  0.00     0.173 A 
ATOM     74  C   UNL A   1      38.748  33.630  37.889  1.00  0.00     0.173 A 
ATOM     75  F   UNL A   1      40.894  35.791  35.908  1.00  0.00    -0.203 F 
ATOM     76  C   UNL A   1      39.995  36.099  38.064  1.00  0.00     0.198 A 
ATOM     77  C   UNL A   1      38.582  34.416  39.025  1.00  0.00     0.198 A 
ATOM     78  F   UNL A   1      38.141  32.435  37.839  1.00  0.00    -0.203 F 
ATOM     79  F   UNL A   1      40.639  37.270  38.163  1.00  0.00    -0.200 F 
ATOM     80  C   UNL A   1      39.219  35.643  39.118  1.00  0.00     0.200 A 
ATOM     81  F   UNL A   1      37.814  33.979  40.032  1.00  0.00    -0.200 F 
ATOM     82  F   UNL A   1      39.093  36.381  40.229  1.00  0.00    -0.200 F 
ENDBRANCH  44  72
BRANCH  59  83
ATOM     83  C   UNL A   1      43.656  28.656  35.373  1.00  0.00     0.064 A 
ATOM     84  C   UNL A   1      45.016  28.985  35.259  1.00  0.00     0.173 A 
ATOM     85  C   UNL A   1      43.296  27.659  36.292  1.00  0.00     0.173 A 
ATOM     86  F   UNL A   1      45.413  29.917  34.378  1.00  0.00    -0.203 F 
ATOM     87  C   UNL A   1      45.978  28.325  36.018  1.00  0.00     0.198 A 
ATOM     88  C   UNL A   1      44.257  27.026  37.075  1.00  0.00     0.198 A 
ATOM     89  F   UNL A   1      42.009  27.309  36.442  1.00  0.00    -0.203 F 
ATOM     90  F   UNL A   1      47.274  28.621  35.855  1.00  0.00    -0.200 F 
ATOM     91  C   UNL A   1      45.597  27.353  36.932  1.00  0.00     0.200 A 
ATOM     92  F   UNL A   1      43.886  26.098  37.967  1.00  0.00    -0.200 F 
ATOM     93  F   UNL A   1      46.523  26.728  37.670  1.00  0.00    -0.200 F 
ENDBRANCH  59  83
ENDBRANCH  24  27
ENDBRANCH  15  17
ENDBRANCH  10  13
ENDBRANCH   7  10
ENDBRANCH   4   7
ENDBRANCH   1   4
BRANCH   1  94
ATOM     94  C   UNL A   1      31.856  28.529  27.517  1.00  0.00    -0.036 C 
ATOM     95  H   UNL A   1      30.811  28.566  27.288  1.00  0.00     0.028 H 
ATOM     96  H   UNL A   1      32.057  28.458  28.565  1.00  0.00     0.028 H 
BRANCH  94  97
ATOM     97  C   UNL A   1      32.436  27.271  26.881  1.00  0.00     0.018 C 
ATOM     98  H   UNL A   1      33.397  27.078  27.310  1.00  0.00     0.049 H 
ATOM     99  H   UNL A   1      32.509  27.437  25.826  1.00  0.00     0.049 H 
BRANCH  97 100
ATOM    100  N   UNL A   1      31.589  26.114  27.094  1.00  0.00    -0.352 N 
ATOM    101  C   UNL A   1      30.943  25.350  26.157  1.00  0.00     0.255 C 
ATOM    102  H   UNL A   1      31.461  25.843  28.031  1.00  0.00     0.163 HD
ATOM    103  O   UNL A   1      30.182  24.452  26.509  1.00  0.00    -0.269 OA
BRANCH 101 104
ATOM    104  C   UNL A   1      31.085  25.666  24.722  1.00  0.00     0.082 A 
ATOM    105  C   UNL A   1      30.589  26.907  24.299  1.00  0.00    -0.038 A 
ATOM    106  C   UNL A   1      31.666  24.790  23.803  1.00  0.00     0.128 A 
ATOM    107  C   UNL A   1      30.707  27.307  22.963  1.00  0.00    -0.025 A 
ATOM    108  H   UNL A   1      30.133  27.534  24.981  1.00  0.00     0.064 H 
ATOM    109  C   UNL A   1      31.800  25.176  22.473  1.00  0.00    -0.019 A 
ATOM    110  C   UNL A   1      31.329  26.429  22.061  1.00  0.00    -0.051 A 
ATOM    111  H   UNL A   1      32.245  24.541  21.791  1.00  0.00     0.066 H 
ATOM    112  H   UNL A   1      31.443  26.713  21.076  1.00  0.00     0.063 H 
BRANCH 106 113
ATOM    113  O   UNL A   1      32.115  23.562  24.198  1.00  0.00    -0.507 OA
ATOM    114  H   UNL A   1      31.517  22.843  24.259  1.00  0.00     0.293 HD
ENDBRANCH 106 113
BRANCH 107 115
ATOM    115  C   UNL A   1      30.203  28.597  22.457  1.00  0.00    -0.054 C 
ATOM    116  C   UNL A   1      29.291  29.377  23.061  1.00  0.00    -0.054 C 
ATOM    117  H   UNL A   1      30.585  28.930  21.558  1.00  0.00     0.063 H 
ATOM    118  H   UNL A   1      28.914  29.075  23.973  1.00  0.00     0.063 H 
BRANCH 116 119
ATOM    119  C   UNL A   1      28.806  30.639  22.486  1.00  0.00    -0.018 A 
ATOM    120  C   UNL A   1      28.939  31.855  23.171  1.00  0.00    -0.013 A 
ATOM    121  C   UNL A   1      28.265  30.633  21.193  1.00  0.00    -0.013 A 
ATOM    122  C   UNL A   1      28.512  33.037  22.572  1.00  0.00     0.119 A 
ATOM    123  H   UNL A   1      29.350  31.873  24.117  1.00  0.00     0.067 H 
ATOM    124  C   UNL A   1      27.843  31.828  20.614  1.00  0.00     0.119 A 
ATOM    125  H   UNL A   1      28.180  29.747  20.672  1.00  0.00     0.067 H 
ATOM    126  C   UNL A   1      27.959  33.032  21.297  1.00  0.00     0.022 A 
ATOM    127  H   UNL A   1      27.640  33.913  20.863  1.00  0.00     0.070 H 
BRANCH 122 128
ATOM    128  O   UNL A   1      28.631  34.238  23.210  1.00  0.00    -0.508 OA
ATOM    129  H   UNL A   1      28.642  35.033  22.715  1.00  0.00     0.293 HD
ENDBRANCH 122 128
BRANCH 124 130
ATOM    130  O   UNL A   1      27.307  31.857  19.360  1.00  0.00    -0.508 OA
ATOM    131  H   UNL A   1      27.794  31.516  18.635  1.00  0.00     0.293 HD
ENDBRANCH 124 130
ENDBRANCH 116 119
ENDBRANCH 107 115
ENDBRANCH 101 104
ENDBRANCH  97 100
ENDBRANCH  94  97
ENDBRANCH   1  94
TORSDOF 18
ENDMDL
MODEL 3
REMARK VINA RESULT:     -12.9      1.984      4.709
REMARK SMILES O=C(NCCCCCCNC(=O)c1cc(/C=C/c2cc(O)cc(O)c2)ccc1O)c1ccc(-c2c3nc(c(-c4c(F)c(F)c(F)c(F)c4F)c4ccc([nH]4)c(-c4c(F)c(F)c(F)c(F)c4F)c4nc(c(-c5c(F)c(F)c(F)c(F)c5F)c5ccc2[nH]5)C=C4)C=C3)cc1
REMARK SMILES IDX 7 1 6 4 5 7 4 10 3 13 1 14 2 15 30 17 31 18 92 19 32 20
REMARK SMILES IDX 91 22 33 24 34 27 35 28 85 29 36 30 90 31 84 32 86 33 37 34
REMARK SMILES IDX 89 35 83 37 82 39 38 41 70 44 50 45 69 46 51 47 54 48 68 49
REMARK SMILES IDX 87 50 52 51 53 53 67 55 88 56 55 59 39 61 40 62 48 63 41 64
REMARK SMILES IDX 42 65 46 66 49 67 43 68 44 69 47 70 45 71 71 72 72 73 80 74
REMARK SMILES IDX 73 75 74 76 78 77 81 78 75 79 76 80 79 81 77 82 56 83 57 84
REMARK SMILES IDX 65 85 58 86 59 87 63 88 66 89 60 90 61 91 64 92 62 93 8 94
REMARK SMILES IDX 9 97 10 100 11 101 12 103 13 104 14 105 28 106 15 107 27 109
REMARK SMILES IDX 26 110 29 113 16 115 17 116 18 119 19 120 25 121 20 122
REMARK SMILES IDX 23 124 22 126 21 128 24 130
REMARK H PARENT 7 2 7 3 6 5 6 6 5 8 5 9 4 11 4 12 3 16 31 21 92 23 32 25 91 26
REMARK H PARENT 90 36 84 38 86 40 89 42 83 43 51 52 54 54 87 57 52 58 88 60
REMARK H PARENT 8 95 8 96 9 98 9 99 10 102 14 108 27 111 26 112 29 114 16 117
REMARK H PARENT 17 118 19 123 25 125 22 127 21 129 24 131
REMARK Flexibility Score: inf
ROOT
ATOM      1  C   UNL A   1      31.893  29.542  26.881  1.00  0.00    -0.052 C 
ATOM      2  H   UNL A   1      31.335  28.743  26.439  1.00  0.00     0.027 H 
ATOM      3  H   UNL A   1      31.579  29.786  27.875  1.00  0.00     0.027 H 
ENDROOT
BRANCH   1   4
ATOM      4  C   UNL A   1      31.660  30.802  26.042  1.00  0.00    -0.052 C 
ATOM      5  H   UNL A   1      32.518  30.950  25.420  1.00  0.00     0.027 H 
ATOM      6  H   UNL A   1      30.759  30.631  25.490  1.00  0.00     0.027 H 
BRANCH   4   7
ATOM      7  C   UNL A   1      31.431  32.082  26.845  1.00  0.00    -0.036 C 
ATOM      8  H   UNL A   1      30.841  32.748  26.252  1.00  0.00     0.028 H 
ATOM      9  H   UNL A   1      30.944  31.789  27.753  1.00  0.00     0.028 H 
BRANCH   7  10
ATOM     10  C   UNL A   1      32.705  32.806  27.251  1.00  0.00     0.018 C 
ATOM     11  H   UNL A   1      33.142  32.296  28.084  1.00  0.00     0.049 H 
ATOM     12  H   UNL A   1      33.361  32.812  26.407  1.00  0.00     0.049 H 
BRANCH  10  13
ATOM     13  N   UNL A   1      32.455  34.187  27.629  1.00  0.00    -0.352 N 
ATOM     14  O   UNL A   1      32.599  36.018  28.949  1.00  0.00    -0.269 OA
ATOM     15  C   UNL A   1      33.040  34.916  28.633  1.00  0.00     0.251 C 
ATOM     16  H   UNL A   1      31.779  34.662  27.094  1.00  0.00     0.163 HD
BRANCH  15  17
ATOM     17  C   UNL A   1      34.208  34.356  29.344  1.00  0.00     0.039 A 
ATOM     18  C   UNL A   1      34.028  33.613  30.515  1.00  0.00    -0.049 A 
ATOM     19  C   UNL A   1      35.488  34.559  28.825  1.00  0.00    -0.049 A 
ATOM     20  C   UNL A   1      35.133  33.163  31.223  1.00  0.00    -0.053 A 
ATOM     21  H   UNL A   1      33.075  33.401  30.851  1.00  0.00     0.063 H 
ATOM     22  C   UNL A   1      36.595  34.028  29.491  1.00  0.00    -0.053 A 
ATOM     23  H   UNL A   1      35.617  35.099  27.955  1.00  0.00     0.063 H 
ATOM     24  C   UNL A   1      36.424  33.326  30.695  1.00  0.00    -0.014 A 
ATOM     25  H   UNL A   1      35.006  32.706  32.140  1.00  0.00     0.063 H 
ATOM     26  H   UNL A   1      37.541  34.151  29.097  1.00  0.00     0.063 H 
BRANCH  24  27
ATOM     27  C   UNL A   1      37.558  32.621  31.338  1.00  0.00     0.031 A 
ATOM     28  C   UNL A   1      38.245  31.466  30.676  1.00  0.00     0.074 A 
ATOM     29  C   UNL A   1      37.946  33.045  32.558  1.00  0.00     0.049 A 
ATOM     30  N   UNL A   1      39.226  30.726  31.130  1.00  0.00    -0.248 NA
ATOM     31  C   UNL A   1      37.774  31.081  29.337  1.00  0.00    -0.034 C 
ATOM     32  C   UNL A   1      37.327  34.148  33.300  1.00  0.00    -0.036 A 
ATOM     33  N   UNL A   1      38.941  32.606  33.392  1.00  0.00    -0.354 N 
ATOM     34  C   UNL A   1      39.476  29.779  30.146  1.00  0.00     0.074 A 
ATOM     35  C   UNL A   1      38.538  30.027  29.072  1.00  0.00    -0.034 C 
ATOM     36  H   UNL A   1      37.042  31.517  28.755  1.00  0.00     0.065 H 
ATOM     37  C   UNL A   1      37.969  34.315  34.463  1.00  0.00    -0.036 A 
ATOM     38  H   UNL A   1      36.523  34.709  32.976  1.00  0.00     0.065 H 
ATOM     39  C   UNL A   1      38.992  33.285  34.585  1.00  0.00     0.049 A 
ATOM     40  H   UNL A   1      39.559  31.876  33.158  1.00  0.00     0.167 HD
ATOM     41  C   UNL A   1      40.408  28.796  30.152  1.00  0.00     0.037 A 
ATOM     42  H   UNL A   1      38.472  29.460  28.213  1.00  0.00     0.065 H 
ATOM     43  H   UNL A   1      37.773  35.052  35.159  1.00  0.00     0.065 H 
ATOM     44  C   UNL A   1      39.746  33.073  35.679  1.00  0.00     0.037 A 
ATOM     45  C   UNL A   1      41.346  28.576  31.224  1.00  0.00     0.049 A 
ATOM     46  C   UNL A   1      40.739  31.946  35.662  1.00  0.00     0.074 A 
ATOM     47  C   UNL A   1      42.382  27.658  31.286  1.00  0.00    -0.036 A 
ATOM     48  N   UNL A   1      41.353  29.266  32.428  1.00  0.00    -0.354 N 
ATOM     49  N   UNL A   1      41.022  31.111  34.693  1.00  0.00    -0.248 NA
ATOM     50  C   UNL A   1      41.511  31.727  36.891  1.00  0.00    -0.034 C 
ATOM     51  C   UNL A   1      42.968  27.745  32.552  1.00  0.00    -0.036 A 
ATOM     52  H   UNL A   1      42.670  27.021  30.528  1.00  0.00     0.065 H 
ATOM     53  C   UNL A   1      42.341  28.758  33.257  1.00  0.00     0.049 A 
ATOM     54  H   UNL A   1      40.747  30.006  32.658  1.00  0.00     0.167 HD
ATOM     55  C   UNL A   1      42.010  30.275  35.191  1.00  0.00     0.074 A 
ATOM     56  C   UNL A   1      42.302  30.727  36.535  1.00  0.00    -0.034 C 
ATOM     57  H   UNL A   1      41.452  32.222  37.796  1.00  0.00     0.065 H 
ATOM     58  H   UNL A   1      43.738  27.153  32.902  1.00  0.00     0.065 H 
ATOM     59  C   UNL A   1      42.614  29.219  34.594  1.00  0.00     0.037 A 
ATOM     60  H   UNL A   1      43.035  30.322  37.139  1.00  0.00     0.065 H 
BRANCH  41  61
ATOM     61  C   UNL A   1      40.466  27.856  28.983  1.00  0.00     0.064 A 
ATOM     62  C   UNL A   1      39.673  26.702  28.921  1.00  0.00     0.173 A 
ATOM     63  C   UNL A   1      41.244  28.180  27.860  1.00  0.00     0.173 A 
ATOM     64  F   UNL A   1      38.916  26.345  29.969  1.00  0.00    -0.203 F 
ATOM     65  C   UNL A   1      39.657  25.906  27.777  1.00  0.00     0.198 A 
ATOM     66  C   UNL A   1      41.206  27.396  26.710  1.00  0.00     0.198 A 
ATOM     67  F   UNL A   1      42.015  29.278  27.865  1.00  0.00    -0.203 F 
ATOM     68  F   UNL A   1      38.903  24.798  27.744  1.00  0.00    -0.200 F 
ATOM     69  C   UNL A   1      40.413  26.260  26.669  1.00  0.00     0.200 A 
ATOM     70  F   UNL A   1      41.925  27.750  25.635  1.00  0.00    -0.200 F 
ATOM     71  F   UNL A   1      40.376  25.507  25.561  1.00  0.00    -0.200 F 
ENDBRANCH  41  61
BRANCH  44  72
ATOM     72  C   UNL A   1      39.551  33.908  36.894  1.00  0.00     0.064 A 
ATOM     73  C   UNL A   1      38.760  33.464  37.961  1.00  0.00     0.173 A 
ATOM     74  C   UNL A   1      40.131  35.182  36.999  1.00  0.00     0.173 A 
ATOM     75  F   UNL A   1      38.171  32.260  37.903  1.00  0.00    -0.203 F 
ATOM     76  C   UNL A   1      38.528  34.274  39.070  1.00  0.00     0.198 A 
ATOM     77  C   UNL A   1      39.931  35.975  38.125  1.00  0.00     0.198 A 
ATOM     78  F   UNL A   1      40.903  35.654  36.009  1.00  0.00    -0.203 F 
ATOM     79  F   UNL A   1      37.714  33.851  40.046  1.00  0.00    -0.200 F 
ATOM     80  C   UNL A   1      39.117  35.527  39.152  1.00  0.00     0.200 A 
ATOM     81  F   UNL A   1      40.519  37.176  38.209  1.00  0.00    -0.200 F 
ATOM     82  F   UNL A   1      38.891  36.308  40.218  1.00  0.00    -0.200 F 
ENDBRANCH  44  72
BRANCH  59  83
ATOM     83  C   UNL A   1      43.653  28.488  35.391  1.00  0.00     0.064 A 
ATOM     84  C   UNL A   1      45.008  28.853  35.335  1.00  0.00     0.173 A 
ATOM     85  C   UNL A   1      43.290  27.436  36.245  1.00  0.00     0.173 A 
ATOM     86  F   UNL A   1      45.408  29.839  34.517  1.00  0.00    -0.203 F 
ATOM     87  C   UNL A   1      45.963  28.174  36.087  1.00  0.00     0.198 A 
ATOM     88  C   UNL A   1      44.243  26.783  37.022  1.00  0.00     0.198 A 
ATOM     89  F   UNL A   1      42.008  27.052  36.338  1.00  0.00    -0.203 F 
ATOM     90  F   UNL A   1      47.256  28.506  35.978  1.00  0.00    -0.200 F 
ATOM     91  C   UNL A   1      45.578  27.147  36.936  1.00  0.00     0.200 A 
ATOM     92  F   UNL A   1      43.868  25.802  37.853  1.00  0.00    -0.200 F 
ATOM     93  F   UNL A   1      46.497  26.503  37.667  1.00  0.00    -0.200 F 
ENDBRANCH  59  83
ENDBRANCH  24  27
ENDBRANCH  15  17
ENDBRANCH  10  13
ENDBRANCH   7  10
ENDBRANCH   4   7
ENDBRANCH   1   4
BRANCH   1  94
ATOM     94  C   UNL A   1      33.353  29.092  26.998  1.00  0.00    -0.036 C 
ATOM     95  H   UNL A   1      33.559  28.900  28.030  1.00  0.00     0.028 H 
ATOM     96  H   UNL A   1      33.945  29.884  26.589  1.00  0.00     0.028 H 
BRANCH  94  97
ATOM     97  C   UNL A   1      33.703  27.840  26.202  1.00  0.00     0.018 C 
ATOM     98  H   UNL A   1      32.869  27.171  26.224  1.00  0.00     0.049 H 
ATOM     99  H   UNL A   1      34.568  27.395  26.649  1.00  0.00     0.049 H 
BRANCH  97 100
ATOM    100  N   UNL A   1      34.021  28.144  24.821  1.00  0.00    -0.352 N 
ATOM    101  C   UNL A   1      33.367  27.734  23.688  1.00  0.00     0.255 C 
ATOM    102  H   UNL A   1      34.806  28.719  24.678  1.00  0.00     0.163 HD
ATOM    103  O   UNL A   1      33.821  28.005  22.579  1.00  0.00    -0.269 OA
BRANCH 101 104
ATOM    104  C   UNL A   1      32.166  26.882  23.797  1.00  0.00     0.082 A 
ATOM    105  C   UNL A   1      32.383  25.509  23.978  1.00  0.00    -0.038 A 
ATOM    106  C   UNL A   1      30.866  27.384  23.715  1.00  0.00     0.128 A 
ATOM    107  C   UNL A   1      31.306  24.628  24.122  1.00  0.00    -0.025 A 
ATOM    108  H   UNL A   1      33.348  25.144  24.005  1.00  0.00     0.064 H 
ATOM    109  C   UNL A   1      29.784  26.523  23.867  1.00  0.00    -0.019 A 
ATOM    110  C   UNL A   1      30.006  25.156  24.076  1.00  0.00    -0.051 A 
ATOM    111  H   UNL A   1      28.820  26.891  23.825  1.00  0.00     0.066 H 
ATOM    112  H   UNL A   1      29.199  24.527  24.200  1.00  0.00     0.063 H 
BRANCH 106 113
ATOM    113  O   UNL A   1      30.645  28.715  23.498  1.00  0.00    -0.507 OA
ATOM    114  H   UNL A   1      31.371  29.298  23.388  1.00  0.00     0.293 HD
ENDBRANCH 106 113
BRANCH 107 115
ATOM    115  C   UNL A   1      31.469  23.174  24.311  1.00  0.00    -0.054 C 
ATOM    116  C   UNL A   1      32.299  22.379  23.616  1.00  0.00    -0.054 C 
ATOM    117  H   UNL A   1      30.893  22.729  25.043  1.00  0.00     0.063 H 
ATOM    118  H   UNL A   1      32.902  22.808  22.897  1.00  0.00     0.063 H 
BRANCH 116 119
ATOM    119  C   UNL A   1      32.391  20.929  23.832  1.00  0.00    -0.018 A 
ATOM    120  C   UNL A   1      32.639  20.392  25.103  1.00  0.00    -0.013 A 
ATOM    121  C   UNL A   1      32.153  20.065  22.754  1.00  0.00    -0.013 A 
ATOM    122  C   UNL A   1      32.669  19.010  25.276  1.00  0.00     0.119 A 
ATOM    123  H   UNL A   1      32.800  21.018  25.907  1.00  0.00     0.067 H 
ATOM    124  C   UNL A   1      32.190  18.686  22.951  1.00  0.00     0.119 A 
ATOM    125  H   UNL A   1      31.951  20.449  21.818  1.00  0.00     0.067 H 
ATOM    126  C   UNL A   1      32.450  18.152  24.206  1.00  0.00     0.022 A 
ATOM    127  H   UNL A   1      32.480  17.129  24.343  1.00  0.00     0.070 H 
BRANCH 122 128
ATOM    128  O   UNL A   1      32.903  18.455  26.501  1.00  0.00    -0.508 OA
ATOM    129  H   UNL A   1      32.743  18.952  27.279  1.00  0.00     0.293 HD
ENDBRANCH 122 128
BRANCH 124 130
ATOM    130  O   UNL A   1      31.967  17.818  21.922  1.00  0.00    -0.508 OA
ATOM    131  H   UNL A   1      31.563  16.989  22.088  1.00  0.00     0.293 HD
ENDBRANCH 124 130
ENDBRANCH 116 119
ENDBRANCH 107 115
ENDBRANCH 101 104
ENDBRANCH  97 100
ENDBRANCH  94  97
ENDBRANCH   1  94
TORSDOF 18
ENDMDL
MODEL 4
REMARK VINA RESULT:     -12.9      6.177     11.959
REMARK SMILES O=C(NCCCCCCNC(=O)c1cc(/C=C/c2cc(O)cc(O)c2)ccc1O)c1ccc(-c2c3nc(c(-c4c(F)c(F)c(F)c(F)c4F)c4ccc([nH]4)c(-c4c(F)c(F)c(F)c(F)c4F)c4nc(c(-c5c(F)c(F)c(F)c(F)c5F)c5ccc2[nH]5)C=C4)C=C3)cc1
REMARK SMILES IDX 7 1 6 4 5 7 4 10 3 13 1 14 2 15 30 17 31 18 92 19 32 20
REMARK SMILES IDX 91 22 33 24 34 27 35 28 85 29 36 30 90 31 84 32 86 33 37 34
REMARK SMILES IDX 89 35 83 37 82 39 38 41 70 44 50 45 69 46 51 47 54 48 68 49
REMARK SMILES IDX 87 50 52 51 53 53 67 55 88 56 55 59 39 61 40 62 48 63 41 64
REMARK SMILES IDX 42 65 46 66 49 67 43 68 44 69 47 70 45 71 71 72 72 73 80 74
REMARK SMILES IDX 73 75 74 76 78 77 81 78 75 79 76 80 79 81 77 82 56 83 57 84
REMARK SMILES IDX 65 85 58 86 59 87 63 88 66 89 60 90 61 91 64 92 62 93 8 94
REMARK SMILES IDX 9 97 10 100 11 101 12 103 13 104 14 105 28 106 15 107 27 109
REMARK SMILES IDX 26 110 29 113 16 115 17 116 18 119 19 120 25 121 20 122
REMARK SMILES IDX 23 124 22 126 21 128 24 130
REMARK H PARENT 7 2 7 3 6 5 6 6 5 8 5 9 4 11 4 12 3 16 31 21 92 23 32 25 91 26
REMARK H PARENT 90 36 84 38 86 40 89 42 83 43 51 52 54 54 87 57 52 58 88 60
REMARK H PARENT 8 95 8 96 9 98 9 99 10 102 14 108 27 111 26 112 29 114 16 117
REMARK H PARENT 17 118 19 123 25 125 22 127 21 129 24 131
REMARK Flexibility Score: inf
ROOT
ATOM      1  C   UNL A   1      37.037  22.097  24.314  1.00  0.00    -0.052 C 
ATOM      2  H   UNL A   1      36.265  22.266  23.593  1.00  0.00     0.027 H 
ATOM      3  H   UNL A   1      38.015  22.020  23.884  1.00  0.00     0.027 H 
ENDROOT
BRANCH   1   4
ATOM      4  C   UNL A   1      36.766  20.751  24.992  1.00  0.00    -0.052 C 
ATOM      5  H   UNL A   1      36.508  20.940  26.013  1.00  0.00     0.027 H 
ATOM      6  H   UNL A   1      35.978  20.289  24.433  1.00  0.00     0.027 H 
BRANCH   4   7
ATOM      7  C   UNL A   1      37.935  19.768  24.973  1.00  0.00    -0.036 C 
ATOM      8  H   UNL A   1      37.604  18.845  25.402  1.00  0.00     0.028 H 
ATOM      9  H   UNL A   1      38.234  19.669  23.949  1.00  0.00     0.028 H 
BRANCH   7  10
ATOM     10  C   UNL A   1      39.163  20.236  25.738  1.00  0.00     0.018 C 
ATOM     11  H   UNL A   1      39.597  21.065  25.220  1.00  0.00     0.049 H 
ATOM     12  H   UNL A   1      38.849  20.511  26.723  1.00  0.00     0.049 H 
BRANCH  10  13
ATOM     13  N   UNL A   1      40.163  19.190  25.867  1.00  0.00    -0.352 N 
ATOM     14  O   UNL A   1      42.259  18.349  25.984  1.00  0.00    -0.269 OA
ATOM     15  C   UNL A   1      41.512  19.319  26.076  1.00  0.00     0.251 C 
ATOM     16  H   UNL A   1      39.829  18.266  25.795  1.00  0.00     0.163 HD
BRANCH  15  17
ATOM     17  C   UNL A   1      42.065  20.649  26.406  1.00  0.00     0.039 A 
ATOM     18  C   UNL A   1      42.397  21.545  25.386  1.00  0.00    -0.049 A 
ATOM     19  C   UNL A   1      42.234  21.007  27.745  1.00  0.00    -0.049 A 
ATOM     20  C   UNL A   1      42.995  22.758  25.699  1.00  0.00    -0.053 A 
ATOM     21  H   UNL A   1      42.198  21.305  24.402  1.00  0.00     0.063 H 
ATOM     22  C   UNL A   1      42.752  22.265  28.062  1.00  0.00    -0.053 A 
ATOM     23  H   UNL A   1      41.979  20.348  28.496  1.00  0.00     0.063 H 
ATOM     24  C   UNL A   1      43.136  23.148  27.040  1.00  0.00    -0.014 A 
ATOM     25  H   UNL A   1      43.335  23.374  24.944  1.00  0.00     0.063 H 
ATOM     26  H   UNL A   1      42.853  22.547  29.050  1.00  0.00     0.063 H 
BRANCH  24  27
ATOM     27  C   UNL A   1      43.541  24.541  27.344  1.00  0.00     0.031 A 
ATOM     28  C   UNL A   1      42.561  25.553  27.856  1.00  0.00     0.074 A 
ATOM     29  C   UNL A   1      44.828  24.879  27.127  1.00  0.00     0.049 A 
ATOM     30  N   UNL A   1      42.757  26.819  28.131  1.00  0.00    -0.248 NA
ATOM     31  C   UNL A   1      41.182  25.097  28.085  1.00  0.00    -0.034 C 
ATOM     32  C   UNL A   1      45.859  23.973  26.609  1.00  0.00    -0.036 A 
ATOM     33  N   UNL A   1      45.494  26.064  27.308  1.00  0.00    -0.354 N 
ATOM     34  C   UNL A   1      41.529  27.314  28.545  1.00  0.00     0.074 A 
ATOM     35  C   UNL A   1      40.586  26.218  28.475  1.00  0.00    -0.034 C 
ATOM     36  H   UNL A   1      40.782  24.153  27.972  1.00  0.00     0.065 H 
ATOM     37  C   UNL A   1      47.026  24.626  26.536  1.00  0.00    -0.036 A 
ATOM     38  H   UNL A   1      45.708  22.987  26.343  1.00  0.00     0.065 H 
ATOM     39  C   UNL A   1      46.813  26.012  26.927  1.00  0.00     0.049 A 
ATOM     40  H   UNL A   1      45.068  26.872  27.675  1.00  0.00     0.167 HD
ATOM     41  C   UNL A   1      41.228  28.573  28.942  1.00  0.00     0.037 A 
ATOM     42  H   UNL A   1      39.582  26.297  28.700  1.00  0.00     0.065 H 
ATOM     43  H   UNL A   1      47.928  24.214  26.251  1.00  0.00     0.065 H 
ATOM     44  C   UNL A   1      47.740  26.985  26.855  1.00  0.00     0.037 A 
ATOM     45  C   UNL A   1      42.186  29.648  29.022  1.00  0.00     0.049 A 
ATOM     46  C   UNL A   1      47.355  28.377  27.266  1.00  0.00     0.074 A 
ATOM     47  C   UNL A   1      41.996  30.936  29.493  1.00  0.00    -0.036 A 
ATOM     48  N   UNL A   1      43.507  29.567  28.606  1.00  0.00    -0.354 N 
ATOM     49  N   UNL A   1      46.212  28.814  27.734  1.00  0.00    -0.248 NA
ATOM     50  C   UNL A   1      48.387  29.414  27.132  1.00  0.00    -0.034 C 
ATOM     51  C   UNL A   1      43.179  31.654  29.295  1.00  0.00    -0.036 A 
ATOM     52  H   UNL A   1      41.129  31.303  29.916  1.00  0.00     0.065 H 
ATOM     53  C   UNL A   1      44.127  30.797  28.760  1.00  0.00     0.049 A 
ATOM     54  H   UNL A   1      43.939  28.756  28.254  1.00  0.00     0.167 HD
ATOM     55  C   UNL A   1      46.388  30.171  27.959  1.00  0.00     0.074 A 
ATOM     56  C   UNL A   1      47.759  30.478  27.611  1.00  0.00    -0.034 C 
ATOM     57  H   UNL A   1      49.348  29.335  26.762  1.00  0.00     0.065 H 
ATOM     58  H   UNL A   1      43.322  32.653  29.511  1.00  0.00     0.065 H 
ATOM     59  C   UNL A   1      45.492  31.084  28.404  1.00  0.00     0.037 A 
ATOM     60  H   UNL A   1      48.194  31.407  27.722  1.00  0.00     0.065 H 
BRANCH  41  61
ATOM     61  C   UNL A   1      39.808  28.890  29.309  1.00  0.00     0.064 A 
ATOM     62  C   UNL A   1      38.872  29.309  28.353  1.00  0.00     0.173 A 
ATOM     63  C   UNL A   1      39.351  28.658  30.617  1.00  0.00     0.173 A 
ATOM     64  F   UNL A   1      39.257  29.550  27.091  1.00  0.00    -0.203 F 
ATOM     65  C   UNL A   1      37.532  29.486  28.693  1.00  0.00     0.198 A 
ATOM     66  C   UNL A   1      38.007  28.810  30.946  1.00  0.00     0.198 A 
ATOM     67  F   UNL A   1      40.204  28.248  31.568  1.00  0.00    -0.203 F 
ATOM     68  F   UNL A   1      36.657  29.902  27.767  1.00  0.00    -0.200 F 
ATOM     69  C   UNL A   1      37.099  29.225  29.985  1.00  0.00     0.200 A 
ATOM     70  F   UNL A   1      37.589  28.542  32.191  1.00  0.00    -0.200 F 
ATOM     71  F   UNL A   1      35.805  29.370  30.302  1.00  0.00    -0.200 F 
ENDBRANCH  41  61
BRANCH  44  72
ATOM     72  C   UNL A   1      49.095  26.687  26.323  1.00  0.00     0.064 A 
ATOM     73  C   UNL A   1      49.421  26.933  24.983  1.00  0.00     0.173 A 
ATOM     74  C   UNL A   1      50.087  26.121  27.141  1.00  0.00     0.173 A 
ATOM     75  F   UNL A   1      48.503  27.457  24.157  1.00  0.00    -0.203 F 
ATOM     76  C   UNL A   1      50.672  26.593  24.472  1.00  0.00     0.198 A 
ATOM     77  C   UNL A   1      51.350  25.820  26.640  1.00  0.00     0.198 A 
ATOM     78  F   UNL A   1      49.831  25.871  28.433  1.00  0.00    -0.203 F 
ATOM     79  F   UNL A   1      50.934  26.778  23.172  1.00  0.00    -0.200 F 
ATOM     80  C   UNL A   1      51.636  26.041  25.302  1.00  0.00     0.200 A 
ATOM     81  F   UNL A   1      52.284  25.305  27.451  1.00  0.00    -0.200 F 
ATOM     82  F   UNL A   1      52.838  25.712  24.810  1.00  0.00    -0.200 F 
ENDBRANCH  44  72
BRANCH  59  83
ATOM     83  C   UNL A   1      45.973  32.498  28.543  1.00  0.00     0.064 A 
ATOM     84  C   UNL A   1      45.824  33.428  27.502  1.00  0.00     0.173 A 
ATOM     85  C   UNL A   1      46.556  32.939  29.740  1.00  0.00     0.173 A 
ATOM     86  F   UNL A   1      45.291  33.049  26.330  1.00  0.00    -0.203 F 
ATOM     87  C   UNL A   1      46.265  34.740  27.646  1.00  0.00     0.198 A 
ATOM     88  C   UNL A   1      46.964  34.262  29.893  1.00  0.00     0.198 A 
ATOM     89  F   UNL A   1      46.718  32.091  30.767  1.00  0.00    -0.203 F 
ATOM     90  F   UNL A   1      46.159  35.596  26.621  1.00  0.00    -0.200 F 
ATOM     91  C   UNL A   1      46.825  35.158  28.845  1.00  0.00     0.200 A 
ATOM     92  F   UNL A   1      47.491  34.667  31.056  1.00  0.00    -0.200 F 
ATOM     93  F   UNL A   1      47.238  36.424  28.986  1.00  0.00    -0.200 F 
ENDBRANCH  59  83
ENDBRANCH  24  27
ENDBRANCH  15  17
ENDBRANCH  10  13
ENDBRANCH   7  10
ENDBRANCH   4   7
ENDBRANCH   1   4
BRANCH   1  94
ATOM     94  C   UNL A   1      37.083  23.307  25.252  1.00  0.00    -0.036 C 
ATOM     95  H   UNL A   1      37.849  23.969  24.904  1.00  0.00     0.028 H 
ATOM     96  H   UNL A   1      37.271  22.921  26.231  1.00  0.00     0.028 H 
BRANCH  94  97
ATOM     97  C   UNL A   1      35.782  24.096  25.345  1.00  0.00     0.018 C 
ATOM     98  H   UNL A   1      35.935  24.944  25.979  1.00  0.00     0.049 H 
ATOM     99  H   UNL A   1      35.029  23.446  25.741  1.00  0.00     0.049 H 
BRANCH  97 100
ATOM    100  N   UNL A   1      35.333  24.559  24.046  1.00  0.00    -0.352 N 
ATOM    101  C   UNL A   1      34.119  24.354  23.444  1.00  0.00     0.255 C 
ATOM    102  H   UNL A   1      35.984  25.088  23.531  1.00  0.00     0.163 HD
ATOM    103  O   UNL A   1      33.928  24.738  22.293  1.00  0.00    -0.269 OA
BRANCH 101 104
ATOM    104  C   UNL A   1      33.069  23.588  24.142  1.00  0.00     0.082 A 
ATOM    105  C   UNL A   1      33.314  22.221  24.339  1.00  0.00    -0.038 A 
ATOM    106  C   UNL A   1      31.875  24.159  24.585  1.00  0.00     0.128 A 
ATOM    107  C   UNL A   1      32.389  21.420  25.019  1.00  0.00    -0.025 A 
ATOM    108  H   UNL A   1      34.186  21.802  23.980  1.00  0.00     0.064 H 
ATOM    109  C   UNL A   1      30.949  23.379  25.272  1.00  0.00    -0.019 A 
ATOM    110  C   UNL A   1      31.211  22.021  25.491  1.00  0.00    -0.051 A 
ATOM    111  H   UNL A   1      30.072  23.800  25.618  1.00  0.00     0.066 H 
ATOM    112  H   UNL A   1      30.526  21.452  26.011  1.00  0.00     0.063 H 
BRANCH 106 113
ATOM    113  O   UNL A   1      31.610  25.481  24.361  1.00  0.00    -0.507 OA
ATOM    114  H   UNL A   1      31.893  25.887  23.566  1.00  0.00     0.293 HD
ENDBRANCH 106 113
BRANCH 107 115
ATOM    115  C   UNL A   1      32.587  19.978  25.254  1.00  0.00    -0.054 C 
ATOM    116  C   UNL A   1      33.387  19.167  24.542  1.00  0.00    -0.054 C 
ATOM    117  H   UNL A   1      32.064  19.554  26.037  1.00  0.00     0.063 H 
ATOM    118  H   UNL A   1      33.938  19.575  23.771  1.00  0.00     0.063 H 
BRANCH 116 119
ATOM    119  C   UNL A   1      33.515  17.728  24.809  1.00  0.00    -0.018 A 
ATOM    120  C   UNL A   1      34.768  17.101  24.857  1.00  0.00    -0.013 A 
ATOM    121  C   UNL A   1      32.362  16.983  25.091  1.00  0.00    -0.013 A 
ATOM    122  C   UNL A   1      34.852  15.745  25.163  1.00  0.00     0.119 A 
ATOM    123  H   UNL A   1      35.626  17.643  24.667  1.00  0.00     0.067 H 
ATOM    124  C   UNL A   1      32.470  15.627  25.393  1.00  0.00     0.119 A 
ATOM    125  H   UNL A   1      31.436  17.438  25.077  1.00  0.00     0.067 H 
ATOM    126  C   UNL A   1      33.709  15.001  25.427  1.00  0.00     0.022 A 
ATOM    127  H   UNL A   1      33.780  13.995  25.646  1.00  0.00     0.070 H 
BRANCH 122 128
ATOM    128  O   UNL A   1      36.057  15.106  25.223  1.00  0.00    -0.508 OA
ATOM    129  H   UNL A   1      36.458  14.939  26.053  1.00  0.00     0.293 HD
ENDBRANCH 122 128
BRANCH 124 130
ATOM    130  O   UNL A   1      31.367  14.873  25.668  1.00  0.00    -0.508 OA
ATOM    131  H   UNL A   1      31.452  13.949  25.797  1.00  0.00     0.293 HD
ENDBRANCH 124 130
ENDBRANCH 116 119
ENDBRANCH 107 115
ENDBRANCH 101 104
ENDBRANCH  97 100
ENDBRANCH  94  97
ENDBRANCH   1  94
TORSDOF 18
ENDMDL
MODEL 5
REMARK VINA RESULT:     -12.9      5.580     10.780
REMARK SMILES O=C(NCCCCCCNC(=O)c1cc(/C=C/c2cc(O)cc(O)c2)ccc1O)c1ccc(-c2c3nc(c(-c4c(F)c(F)c(F)c(F)c4F)c4ccc([nH]4)c(-c4c(F)c(F)c(F)c(F)c4F)c4nc(c(-c5c(F)c(F)c(F)c(F)c5F)c5ccc2[nH]5)C=C4)C=C3)cc1
REMARK SMILES IDX 7 1 6 4 5 7 4 10 3 13 1 14 2 15 30 17 31 18 92 19 32 20
REMARK SMILES IDX 91 22 33 24 34 27 35 28 85 29 36 30 90 31 84 32 86 33 37 34
REMARK SMILES IDX 89 35 83 37 82 39 38 41 70 44 50 45 69 46 51 47 54 48 68 49
REMARK SMILES IDX 87 50 52 51 53 53 67 55 88 56 55 59 39 61 40 62 48 63 41 64
REMARK SMILES IDX 42 65 46 66 49 67 43 68 44 69 47 70 45 71 71 72 72 73 80 74
REMARK SMILES IDX 73 75 74 76 78 77 81 78 75 79 76 80 79 81 77 82 56 83 57 84
REMARK SMILES IDX 65 85 58 86 59 87 63 88 66 89 60 90 61 91 64 92 62 93 8 94
REMARK SMILES IDX 9 97 10 100 11 101 12 103 13 104 14 105 28 106 15 107 27 109
REMARK SMILES IDX 26 110 29 113 16 115 17 116 18 119 19 120 25 121 20 122
REMARK SMILES IDX 23 124 22 126 21 128 24 130
REMARK H PARENT 7 2 7 3 6 5 6 6 5 8 5 9 4 11 4 12 3 16 31 21 92 23 32 25 91 26
REMARK H PARENT 90 36 84 38 86 40 89 42 83 43 51 52 54 54 87 57 52 58 88 60
REMARK H PARENT 8 95 8 96 9 98 9 99 10 102 14 108 27 111 26 112 29 114 16 117
REMARK H PARENT 17 118 19 123 25 125 22 127 21 129 24 131
REMARK Flexibility Score: inf
ROOT
ATOM      1  C   UNL A   1      36.821  21.869  24.386  1.00  0.00    -0.052 C 
ATOM      2  H   UNL A   1      35.866  22.050  23.938  1.00  0.00     0.027 H 
ATOM      3  H   UNL A   1      37.631  21.871  23.686  1.00  0.00     0.027 H 
ENDROOT
BRANCH   1   4
ATOM      4  C   UNL A   1      36.797  20.466  25.001  1.00  0.00    -0.052 C 
ATOM      5  H   UNL A   1      36.589  20.566  26.046  1.00  0.00     0.027 H 
ATOM      6  H   UNL A   1      36.048  19.919  24.468  1.00  0.00     0.027 H 
BRANCH   4   7
ATOM      7  C   UNL A   1      38.093  19.671  24.850  1.00  0.00    -0.036 C 
ATOM      8  H   UNL A   1      37.866  18.633  24.980  1.00  0.00     0.028 H 
ATOM      9  H   UNL A   1      38.477  19.896  23.877  1.00  0.00     0.028 H 
BRANCH   7  10
ATOM     10  C   UNL A   1      39.182  20.047  25.843  1.00  0.00     0.018 C 
ATOM     11  H   UNL A   1      39.622  20.973  25.538  1.00  0.00     0.049 H 
ATOM     12  H   UNL A   1      38.730  20.127  26.809  1.00  0.00     0.049 H 
BRANCH  10  13
ATOM     13  N   UNL A   1      40.226  19.039  25.923  1.00  0.00    -0.352 N 
ATOM     14  O   UNL A   1      42.355  18.279  25.951  1.00  0.00    -0.269 OA
ATOM     15  C   UNL A   1      41.576  19.219  26.080  1.00  0.00     0.251 C 
ATOM     16  H   UNL A   1      39.924  18.104  25.856  1.00  0.00     0.163 HD
BRANCH  15  17
ATOM     17  C   UNL A   1      42.090  20.566  26.400  1.00  0.00     0.039 A 
ATOM     18  C   UNL A   1      42.379  21.471  25.373  1.00  0.00    -0.049 A 
ATOM     19  C   UNL A   1      42.266  20.933  27.736  1.00  0.00    -0.049 A 
ATOM     20  C   UNL A   1      42.942  22.702  25.675  1.00  0.00    -0.053 A 
ATOM     21  H   UNL A   1      42.174  21.221  24.393  1.00  0.00     0.063 H 
ATOM     22  C   UNL A   1      42.748  22.208  28.043  1.00  0.00    -0.053 A 
ATOM     23  H   UNL A   1      42.043  20.268  28.492  1.00  0.00     0.063 H 
ATOM     24  C   UNL A   1      43.089  23.101  27.014  1.00  0.00    -0.014 A 
ATOM     25  H   UNL A   1      43.252  23.327  24.915  1.00  0.00     0.063 H 
ATOM     26  H   UNL A   1      42.854  22.495  29.029  1.00  0.00     0.063 H 
BRANCH  24  27
ATOM     27  C   UNL A   1      43.454  24.507  27.309  1.00  0.00     0.031 A 
ATOM     28  C   UNL A   1      42.451  25.484  27.845  1.00  0.00     0.074 A 
ATOM     29  C   UNL A   1      44.723  24.888  27.062  1.00  0.00     0.049 A 
ATOM     30  N   UNL A   1      42.611  26.756  28.116  1.00  0.00    -0.248 NA
ATOM     31  C   UNL A   1      41.095  24.981  28.107  1.00  0.00    -0.034 C 
ATOM     32  C   UNL A   1      45.770  24.018  26.518  1.00  0.00    -0.036 A 
ATOM     33  N   UNL A   1      45.351  26.095  27.227  1.00  0.00    -0.354 N 
ATOM     34  C   UNL A   1      41.377  27.208  28.560  1.00  0.00     0.074 A 
ATOM     35  C   UNL A   1      40.471  26.081  28.512  1.00  0.00    -0.034 C 
ATOM     36  H   UNL A   1      40.725  24.023  28.002  1.00  0.00     0.065 H 
ATOM     37  C   UNL A   1      46.913  24.710  26.418  1.00  0.00    -0.036 A 
ATOM     38  H   UNL A   1      45.647  23.028  26.255  1.00  0.00     0.065 H 
ATOM     39  C   UNL A   1      46.662  26.089  26.815  1.00  0.00     0.049 A 
ATOM     40  H   UNL A   1      44.907  26.889  27.605  1.00  0.00     0.167 HD
ATOM     41  C   UNL A   1      41.043  28.457  28.966  1.00  0.00     0.037 A 
ATOM     42  H   UNL A   1      39.470  26.126  28.761  1.00  0.00     0.065 H 
ATOM     43  H   UNL A   1      47.822  24.330  26.110  1.00  0.00     0.065 H 
ATOM     44  C   UNL A   1      47.553  27.093  26.721  1.00  0.00     0.037 A 
ATOM     45  C   UNL A   1      41.964  29.564  29.024  1.00  0.00     0.049 A 
ATOM     46  C   UNL A   1      47.131  28.471  27.143  1.00  0.00     0.074 A 
ATOM     47  C   UNL A   1      41.742  30.845  29.500  1.00  0.00    -0.036 A 
ATOM     48  N   UNL A   1      43.277  29.528  28.576  1.00  0.00    -0.354 N 
ATOM     49  N   UNL A   1      45.985  28.868  27.638  1.00  0.00    -0.248 NA
ATOM     50  C   UNL A   1      48.122  29.542  26.985  1.00  0.00    -0.034 C 
ATOM     51  C   UNL A   1      42.895  31.602  29.274  1.00  0.00    -0.036 A 
ATOM     52  H   UNL A   1      40.873  31.182  29.944  1.00  0.00     0.065 H 
ATOM     53  C   UNL A   1      43.858  30.779  28.716  1.00  0.00     0.049 A 
ATOM     54  H   UNL A   1      43.728  28.733  28.212  1.00  0.00     0.167 HD
ATOM     55  C   UNL A   1      46.120  30.230  27.861  1.00  0.00     0.074 A 
ATOM     56  C   UNL A   1      47.471  30.584  27.479  1.00  0.00    -0.034 C 
ATOM     57  H   UNL A   1      49.076  29.496  26.592  1.00  0.00     0.065 H 
ATOM     58  H   UNL A   1      43.008  32.606  29.488  1.00  0.00     0.065 H 
ATOM     59  C   UNL A   1      45.203  31.113  28.327  1.00  0.00     0.037 A 
ATOM     60  H   UNL A   1      47.876  31.528  27.581  1.00  0.00     0.065 H 
BRANCH  41  61
ATOM     61  C   UNL A   1      39.621  28.724  29.367  1.00  0.00     0.064 A 
ATOM     62  C   UNL A   1      39.176  28.542  30.684  1.00  0.00     0.173 A 
ATOM     63  C   UNL A   1      38.723  29.281  28.442  1.00  0.00     0.173 A 
ATOM     64  F   UNL A   1      39.992  28.008  31.605  1.00  0.00    -0.203 F 
ATOM     65  C   UNL A   1      37.885  28.907  31.059  1.00  0.00     0.198 A 
ATOM     66  C   UNL A   1      37.443  29.668  28.827  1.00  0.00     0.198 A 
ATOM     67  F   UNL A   1      39.101  29.483  27.170  1.00  0.00    -0.203 F 
ATOM     68  F   UNL A   1      37.475  28.710  32.320  1.00  0.00    -0.200 F 
ATOM     69  C   UNL A   1      37.024  29.480  30.135  1.00  0.00     0.200 A 
ATOM     70  F   UNL A   1      36.619  30.237  27.935  1.00  0.00    -0.200 F 
ATOM     71  F   UNL A   1      35.791  29.854  30.505  1.00  0.00    -0.200 F 
ENDBRANCH  41  61
BRANCH  44  72
ATOM     72  C   UNL A   1      48.904  26.841  26.157  1.00  0.00     0.064 A 
ATOM     73  C   UNL A   1      49.164  27.008  24.790  1.00  0.00     0.173 A 
ATOM     74  C   UNL A   1      49.960  26.401  26.971  1.00  0.00     0.173 A 
ATOM     75  F   UNL A   1      48.185  27.412  23.967  1.00  0.00    -0.203 F 
ATOM     76  C   UNL A   1      50.415  26.710  24.254  1.00  0.00     0.198 A 
ATOM     77  C   UNL A   1      51.221  26.142  26.441  1.00  0.00     0.198 A 
ATOM     78  F   UNL A   1      49.769  26.231  28.288  1.00  0.00    -0.203 F 
ATOM     79  F   UNL A   1      50.617  26.815  22.934  1.00  0.00    -0.200 F 
ATOM     80  C   UNL A   1      51.443  26.282  25.081  1.00  0.00     0.200 A 
ATOM     81  F   UNL A   1      52.216  25.748  27.248  1.00  0.00    -0.200 F 
ATOM     82  F   UNL A   1      52.645  25.993  24.564  1.00  0.00    -0.200 F 
ENDBRANCH  44  72
BRANCH  59  83
ATOM     83  C   UNL A   1      45.638  32.542  28.456  1.00  0.00     0.064 A 
ATOM     84  C   UNL A   1      46.309  33.003  29.600  1.00  0.00     0.173 A 
ATOM     85  C   UNL A   1      45.414  33.454  27.413  1.00  0.00     0.173 A 
ATOM     86  F   UNL A   1      46.528  32.174  30.633  1.00  0.00    -0.203 F 
ATOM     87  C   UNL A   1      46.717  34.329  29.705  1.00  0.00     0.198 A 
ATOM     88  C   UNL A   1      45.855  34.771  27.507  1.00  0.00     0.198 A 
ATOM     89  F   UNL A   1      44.782  33.063  26.297  1.00  0.00    -0.203 F 
ATOM     90  F   UNL A   1      47.309  34.759  30.827  1.00  0.00    -0.200 F 
ATOM     91  C   UNL A   1      46.498  35.209  28.655  1.00  0.00     0.200 A 
ATOM     92  F   UNL A   1      45.657  35.616  26.487  1.00  0.00    -0.200 F 
ATOM     93  F   UNL A   1      46.902  36.483  28.753  1.00  0.00    -0.200 F 
ENDBRANCH  59  83
ENDBRANCH  24  27
ENDBRANCH  15  17
ENDBRANCH  10  13
ENDBRANCH   7  10
ENDBRANCH   4   7
ENDBRANCH   1   4
BRANCH   1  94
ATOM     94  C   UNL A   1      37.108  23.011  25.367  1.00  0.00    -0.036 C 
ATOM     95  H   UNL A   1      37.774  23.699  24.889  1.00  0.00     0.028 H 
ATOM     96  H   UNL A   1      37.526  22.557  26.241  1.00  0.00     0.028 H 
BRANCH  94  97
ATOM     97  C   UNL A   1      35.878  23.783  25.829  1.00  0.00     0.018 C 
ATOM     98  H   UNL A   1      35.225  23.925  24.994  1.00  0.00     0.049 H 
ATOM     99  H   UNL A   1      36.206  24.720  26.229  1.00  0.00     0.049 H 
BRANCH  97 100
ATOM    100  N   UNL A   1      35.156  23.081  26.872  1.00  0.00    -0.352 N 
ATOM    101  C   UNL A   1      33.926  22.480  26.798  1.00  0.00     0.255 C 
ATOM    102  H   UNL A   1      35.606  23.030  27.746  1.00  0.00     0.163 HD
ATOM    103  O   UNL A   1      33.408  22.004  27.805  1.00  0.00    -0.269 OA
BRANCH 101 104
ATOM    104  C   UNL A   1      33.177  22.488  25.526  1.00  0.00     0.082 A 
ATOM    105  C   UNL A   1      32.638  23.717  25.120  1.00  0.00    -0.038 A 
ATOM    106  C   UNL A   1      32.985  21.344  24.748  1.00  0.00     0.128 A 
ATOM    107  C   UNL A   1      31.939  23.828  23.914  1.00  0.00    -0.025 A 
ATOM    108  H   UNL A   1      32.759  24.549  25.719  1.00  0.00     0.064 H 
ATOM    109  C   UNL A   1      32.301  21.439  23.540  1.00  0.00    -0.019 A 
ATOM    110  C   UNL A   1      31.789  22.675  23.126  1.00  0.00    -0.051 A 
ATOM    111  H   UNL A   1      32.171  20.601  22.952  1.00  0.00     0.066 H 
ATOM    112  H   UNL A   1      31.294  22.739  22.223  1.00  0.00     0.063 H 
BRANCH 106 113
ATOM    113  O   UNL A   1      33.471  20.134  25.156  1.00  0.00    -0.507 OA
ATOM    114  H   UNL A   1      34.024  20.082  25.911  1.00  0.00     0.293 HD
ENDBRANCH 106 113
BRANCH 107 115
ATOM    115  C   UNL A   1      31.346  25.090  23.434  1.00  0.00    -0.054 C 
ATOM    116  C   UNL A   1      30.394  25.799  24.062  1.00  0.00    -0.054 C 
ATOM    117  H   UNL A   1      31.694  25.461  22.537  1.00  0.00     0.063 H 
ATOM    118  H   UNL A   1      30.049  25.460  24.973  1.00  0.00     0.063 H 
BRANCH 116 119
ATOM    119  C   UNL A   1      29.820  27.036  23.514  1.00  0.00    -0.018 A 
ATOM    120  C   UNL A   1      30.613  27.975  22.841  1.00  0.00    -0.013 A 
ATOM    121  C   UNL A   1      28.437  27.243  23.606  1.00  0.00    -0.013 A 
ATOM    122  C   UNL A   1      30.024  29.112  22.291  1.00  0.00     0.119 A 
ATOM    123  H   UNL A   1      31.630  27.826  22.753  1.00  0.00     0.067 H 
ATOM    124  C   UNL A   1      27.870  28.388  23.050  1.00  0.00     0.119 A 
ATOM    125  H   UNL A   1      27.841  26.549  24.083  1.00  0.00     0.067 H 
ATOM    126  C   UNL A   1      28.656  29.327  22.396  1.00  0.00     0.022 A 
ATOM    127  H   UNL A   1      28.228  30.175  21.991  1.00  0.00     0.070 H 
BRANCH 122 128
ATOM    128  O   UNL A   1      30.767  30.043  21.626  1.00  0.00    -0.508 OA
ATOM    129  H   UNL A   1      30.645  30.171  20.706  1.00  0.00     0.293 HD
ENDBRANCH 122 128
BRANCH 124 130
ATOM    130  O   UNL A   1      26.528  28.621  23.126  1.00  0.00    -0.508 OA
ATOM    131  H   UNL A   1      25.934  27.906  23.237  1.00  0.00     0.293 HD
ENDBRANCH 124 130
ENDBRANCH 116 119
ENDBRANCH 107 115
ENDBRANCH 101 104
ENDBRANCH  97 100
ENDBRANCH  94  97
ENDBRANCH   1  94
TORSDOF 18
ENDMDL
MODEL 6
REMARK VINA RESULT:     -12.9      5.676     10.822
REMARK SMILES O=C(NCCCCCCNC(=O)c1cc(/C=C/c2cc(O)cc(O)c2)ccc1O)c1ccc(-c2c3nc(c(-c4c(F)c(F)c(F)c(F)c4F)c4ccc([nH]4)c(-c4c(F)c(F)c(F)c(F)c4F)c4nc(c(-c5c(F)c(F)c(F)c(F)c5F)c5ccc2[nH]5)C=C4)C=C3)cc1
REMARK SMILES IDX 7 1 6 4 5 7 4 10 3 13 1 14 2 15 30 17 31 18 92 19 32 20
REMARK SMILES IDX 91 22 33 24 34 27 35 28 85 29 36 30 90 31 84 32 86 33 37 34
REMARK SMILES IDX 89 35 83 37 82 39 38 41 70 44 50 45 69 46 51 47 54 48 68 49
REMARK SMILES IDX 87 50 52 51 53 53 67 55 88 56 55 59 39 61 40 62 48 63 41 64
REMARK SMILES IDX 42 65 46 66 49 67 43 68 44 69 47 70 45 71 71 72 72 73 80 74
REMARK SMILES IDX 73 75 74 76 78 77 81 78 75 79 76 80 79 81 77 82 56 83 57 84
REMARK SMILES IDX 65 85 58 86 59 87 63 88 66 89 60 90 61 91 64 92 62 93 8 94
REMARK SMILES IDX 9 97 10 100 11 101 12 103 13 104 14 105 28 106 15 107 27 109
REMARK SMILES IDX 26 110 29 113 16 115 17 116 18 119 19 120 25 121 20 122
REMARK SMILES IDX 23 124 22 126 21 128 24 130
REMARK H PARENT 7 2 7 3 6 5 6 6 5 8 5 9 4 11 4 12 3 16 31 21 92 23 32 25 91 26
REMARK H PARENT 90 36 84 38 86 40 89 42 83 43 51 52 54 54 87 57 52 58 88 60
REMARK H PARENT 8 95 8 96 9 98 9 99 10 102 14 108 27 111 26 112 29 114 16 117
REMARK H PARENT 17 118 19 123 25 125 22 127 21 129 24 131
REMARK Flexibility Score: inf
ROOT
ATOM      1  C   UNL A   1      36.993  21.923  24.349  1.00  0.00    -0.052 C 
ATOM      2  H   UNL A   1      36.061  22.123  23.864  1.00  0.00     0.027 H 
ATOM      3  H   UNL A   1      37.823  21.863  23.676  1.00  0.00     0.027 H 
ENDROOT
BRANCH   1   4
ATOM      4  C   UNL A   1      36.892  20.549  25.019  1.00  0.00    -0.052 C 
ATOM      5  H   UNL A   1      36.689  20.701  26.058  1.00  0.00     0.027 H 
ATOM      6  H   UNL A   1      36.114  20.023  24.506  1.00  0.00     0.027 H 
BRANCH   4   7
ATOM      7  C   UNL A   1      38.142  19.678  24.903  1.00  0.00    -0.036 C 
ATOM      8  H   UNL A   1      37.881  18.679  25.185  1.00  0.00     0.028 H 
ATOM      9  H   UNL A   1      38.472  19.752  23.888  1.00  0.00     0.028 H 
BRANCH   7  10
ATOM     10  C   UNL A   1      39.306  20.129  25.772  1.00  0.00     0.018 C 
ATOM     11  H   UNL A   1      39.761  20.986  25.320  1.00  0.00     0.049 H 
ATOM     12  H   UNL A   1      38.920  20.357  26.743  1.00  0.00     0.049 H 
BRANCH  10  13
ATOM     13  N   UNL A   1      40.312  19.092  25.925  1.00  0.00    -0.352 N 
ATOM     14  O   UNL A   1      42.413  18.269  26.074  1.00  0.00    -0.269 OA
ATOM     15  C   UNL A   1      41.658  19.235  26.145  1.00  0.00     0.251 C 
ATOM     16  H   UNL A   1      39.985  18.165  25.864  1.00  0.00     0.163 HD
BRANCH  15  17
ATOM     17  C   UNL A   1      42.198  20.573  26.460  1.00  0.00     0.039 A 
ATOM     18  C   UNL A   1      42.591  21.433  25.430  1.00  0.00    -0.049 A 
ATOM     19  C   UNL A   1      42.294  20.977  27.794  1.00  0.00    -0.049 A 
ATOM     20  C   UNL A   1      43.177  22.654  25.735  1.00  0.00    -0.053 A 
ATOM     21  H   UNL A   1      42.446  21.160  24.446  1.00  0.00     0.063 H 
ATOM     22  C   UNL A   1      42.800  22.243  28.097  1.00  0.00    -0.053 A 
ATOM     23  H   UNL A   1      41.994  20.344  28.551  1.00  0.00     0.063 H 
ATOM     24  C   UNL A   1      43.245  23.090  27.069  1.00  0.00    -0.014 A 
ATOM     25  H   UNL A   1      43.562  23.243  24.981  1.00  0.00     0.063 H 
ATOM     26  H   UNL A   1      42.847  22.558  29.079  1.00  0.00     0.063 H 
BRANCH  24  27
ATOM     27  C   UNL A   1      43.639  24.491  27.347  1.00  0.00     0.031 A 
ATOM     28  C   UNL A   1      42.654  25.500  27.854  1.00  0.00     0.074 A 
ATOM     29  C   UNL A   1      44.920  24.838  27.112  1.00  0.00     0.049 A 
ATOM     30  N   UNL A   1      42.841  26.772  28.108  1.00  0.00    -0.248 NA
ATOM     31  C   UNL A   1      41.282  25.035  28.105  1.00  0.00    -0.034 C 
ATOM     32  C   UNL A   1      45.954  23.935  26.596  1.00  0.00    -0.036 A 
ATOM     33  N   UNL A   1      45.576  26.032  27.267  1.00  0.00    -0.354 N 
ATOM     34  C   UNL A   1      41.612  27.261  28.528  1.00  0.00     0.074 A 
ATOM     35  C   UNL A   1      40.680  26.155  28.485  1.00  0.00    -0.034 C 
ATOM     36  H   UNL A   1      40.890  24.084  28.010  1.00  0.00     0.065 H 
ATOM     37  C   UNL A   1      47.114  24.597  26.501  1.00  0.00    -0.036 A 
ATOM     38  H   UNL A   1      45.810  22.943  26.346  1.00  0.00     0.065 H 
ATOM     39  C   UNL A   1      46.891  25.988  26.873  1.00  0.00     0.049 A 
ATOM     40  H   UNL A   1      45.146  26.841  27.627  1.00  0.00     0.167 HD
ATOM     41  C   UNL A   1      41.303  28.523  28.911  1.00  0.00     0.037 A 
ATOM     42  H   UNL A   1      39.677  26.228  28.720  1.00  0.00     0.065 H 
ATOM     43  H   UNL A   1      48.017  24.190  26.211  1.00  0.00     0.065 H 
ATOM     44  C   UNL A   1      47.808  26.968  26.776  1.00  0.00     0.037 A 
ATOM     45  C   UNL A   1      42.251  29.608  28.964  1.00  0.00     0.049 A 
ATOM     46  C   UNL A   1      47.414  28.362  27.171  1.00  0.00     0.074 A 
ATOM     47  C   UNL A   1      42.053  30.902  29.418  1.00  0.00    -0.036 A 
ATOM     48  N   UNL A   1      43.568  29.534  28.535  1.00  0.00    -0.354 N 
ATOM     49  N   UNL A   1      46.271  28.795  27.645  1.00  0.00    -0.248 NA
ATOM     50  C   UNL A   1      48.433  29.407  27.011  1.00  0.00    -0.034 C 
ATOM     51  C   UNL A   1      43.227  31.628  29.196  1.00  0.00    -0.036 A 
ATOM     52  H   UNL A   1      41.187  31.266  29.845  1.00  0.00     0.065 H 
ATOM     53  C   UNL A   1      44.177  30.772  28.664  1.00  0.00     0.049 A 
ATOM     54  H   UNL A   1      44.005  28.723  28.190  1.00  0.00     0.167 HD
ATOM     55  C   UNL A   1      46.436  30.156  27.848  1.00  0.00     0.074 A 
ATOM     56  C   UNL A   1      47.800  30.472  27.480  1.00  0.00    -0.034 C 
ATOM     57  H   UNL A   1      49.391  29.332  26.632  1.00  0.00     0.065 H 
ATOM     58  H   UNL A   1      43.362  32.631  29.396  1.00  0.00     0.065 H 
ATOM     59  C   UNL A   1      45.536  31.068  28.289  1.00  0.00     0.037 A 
ATOM     60  H   UNL A   1      48.227  31.407  27.573  1.00  0.00     0.065 H 
BRANCH  41  61
ATOM     61  C   UNL A   1      39.883  28.831  29.288  1.00  0.00     0.064 A 
ATOM     62  C   UNL A   1      38.935  29.232  28.337  1.00  0.00     0.173 A 
ATOM     63  C   UNL A   1      39.442  28.609  30.603  1.00  0.00     0.173 A 
ATOM     64  F   UNL A   1      39.306  29.465  27.069  1.00  0.00    -0.203 F 
ATOM     65  C   UNL A   1      37.597  29.401  28.689  1.00  0.00     0.198 A 
ATOM     66  C   UNL A   1      38.100  28.753  30.944  1.00  0.00     0.198 A 
ATOM     67  F   UNL A   1      40.308  28.216  31.549  1.00  0.00    -0.203 F 
ATOM     68  F   UNL A   1      36.709  29.801  27.767  1.00  0.00    -0.200 F 
ATOM     69  C   UNL A   1      37.179  29.150  29.987  1.00  0.00     0.200 A 
ATOM     70  F   UNL A   1      37.696  28.493  32.195  1.00  0.00    -0.200 F 
ATOM     71  F   UNL A   1      35.887  29.287  30.316  1.00  0.00    -0.200 F 
ENDBRANCH  41  61
BRANCH  44  72
ATOM     72  C   UNL A   1      49.160  26.675  26.235  1.00  0.00     0.064 A 
ATOM     73  C   UNL A   1      49.477  26.931  24.894  1.00  0.00     0.173 A 
ATOM     74  C   UNL A   1      50.158  26.106  27.042  1.00  0.00     0.173 A 
ATOM     75  F   UNL A   1      48.554  27.459  24.077  1.00  0.00    -0.203 F 
ATOM     76  C   UNL A   1      50.725  26.596  24.374  1.00  0.00     0.198 A 
ATOM     77  C   UNL A   1      51.418  25.809  26.532  1.00  0.00     0.198 A 
ATOM     78  F   UNL A   1      49.910  25.847  28.335  1.00  0.00    -0.203 F 
ATOM     79  F   UNL A   1      50.979  26.790  23.073  1.00  0.00    -0.200 F 
ATOM     80  C   UNL A   1      51.695  26.040  25.194  1.00  0.00     0.200 A 
ATOM     81  F   UNL A   1      52.358  25.291  27.334  1.00  0.00    -0.200 F 
ATOM     82  F   UNL A   1      52.895  25.715  24.692  1.00  0.00    -0.200 F 
ENDBRANCH  44  72
BRANCH  59  83
ATOM     83  C   UNL A   1      46.003  32.488  28.402  1.00  0.00     0.064 A 
ATOM     84  C   UNL A   1      45.830  33.402  27.351  1.00  0.00     0.173 A 
ATOM     85  C   UNL A   1      46.601  32.951  29.584  1.00  0.00     0.173 A 
ATOM     86  F   UNL A   1      45.283  33.002  26.193  1.00  0.00    -0.203 F 
ATOM     87  C   UNL A   1      46.259  34.721  27.471  1.00  0.00     0.198 A 
ATOM     88  C   UNL A   1      46.997  34.280  29.713  1.00  0.00     0.198 A 
ATOM     89  F   UNL A   1      46.786  32.119  30.620  1.00  0.00    -0.203 F 
ATOM     90  F   UNL A   1      46.129  35.561  26.436  1.00  0.00    -0.200 F 
ATOM     91  C   UNL A   1      46.833  35.160  28.655  1.00  0.00     0.200 A 
ATOM     92  F   UNL A   1      47.537  34.706  30.862  1.00  0.00    -0.200 F 
ATOM     93  F   UNL A   1      47.235  36.433  28.773  1.00  0.00    -0.200 F 
ENDBRANCH  59  83
ENDBRANCH  24  27
ENDBRANCH  15  17
ENDBRANCH  10  13
ENDBRANCH   7  10
ENDBRANCH   4   7
ENDBRANCH   1   4
BRANCH   1  94
ATOM     94  C   UNL A   1      37.298  23.091  25.292  1.00  0.00    -0.036 C 
ATOM     95  H   UNL A   1      37.926  23.783  24.770  1.00  0.00     0.028 H 
ATOM     96  H   UNL A   1      37.763  22.667  26.155  1.00  0.00     0.028 H 
BRANCH  94  97
ATOM     97  C   UNL A   1      36.072  23.847  25.791  1.00  0.00     0.018 C 
ATOM     98  H   UNL A   1      35.388  23.974  24.979  1.00  0.00     0.049 H 
ATOM     99  H   UNL A   1      36.399  24.792  26.173  1.00  0.00     0.049 H 
BRANCH  97 100
ATOM    100  N   UNL A   1      35.398  23.142  26.864  1.00  0.00    -0.352 N 
ATOM    101  C   UNL A   1      34.152  22.572  26.855  1.00  0.00     0.255 C 
ATOM    102  H   UNL A   1      35.900  23.063  27.706  1.00  0.00     0.163 HD
ATOM    103  O   UNL A   1      33.686  22.088  27.884  1.00  0.00    -0.269 OA
BRANCH 101 104
ATOM    104  C   UNL A   1      33.326  22.624  25.633  1.00  0.00     0.082 A 
ATOM    105  C   UNL A   1      32.812  23.877  25.273  1.00  0.00    -0.038 A 
ATOM    106  C   UNL A   1      33.041  21.498  24.858  1.00  0.00     0.128 A 
ATOM    107  C   UNL A   1      32.044  24.029  24.114  1.00  0.00    -0.025 A 
ATOM    108  H   UNL A   1      33.002  24.697  25.870  1.00  0.00     0.064 H 
ATOM    109  C   UNL A   1      32.287  21.633  23.696  1.00  0.00    -0.019 A 
ATOM    110  C   UNL A   1      31.799  22.893  23.326  1.00  0.00    -0.051 A 
ATOM    111  H   UNL A   1      32.088  20.808  23.109  1.00  0.00     0.066 H 
ATOM    112  H   UNL A   1      31.252  22.987  22.457  1.00  0.00     0.063 H 
BRANCH 106 113
ATOM    113  O   UNL A   1      33.504  20.265  25.223  1.00  0.00    -0.507 OA
ATOM    114  H   UNL A   1      34.321  20.187  25.675  1.00  0.00     0.293 HD
ENDBRANCH 106 113
BRANCH 107 115
ATOM    115  C   UNL A   1      31.472  25.319  23.684  1.00  0.00    -0.054 C 
ATOM    116  C   UNL A   1      30.203  25.717  23.870  1.00  0.00    -0.054 C 
ATOM    117  H   UNL A   1      32.104  25.974  23.199  1.00  0.00     0.063 H 
ATOM    118  H   UNL A   1      29.560  25.088  24.375  1.00  0.00     0.063 H 
BRANCH 116 119
ATOM    119  C   UNL A   1      29.686  27.006  23.388  1.00  0.00    -0.018 A 
ATOM    120  C   UNL A   1      30.518  27.936  22.751  1.00  0.00    -0.013 A 
ATOM    121  C   UNL A   1      28.315  27.275  23.506  1.00  0.00    -0.013 A 
ATOM    122  C   UNL A   1      29.980  29.125  22.263  1.00  0.00     0.119 A 
ATOM    123  H   UNL A   1      31.526  27.742  22.644  1.00  0.00     0.067 H 
ATOM    124  C   UNL A   1      27.800  28.472  23.012  1.00  0.00     0.119 A 
ATOM    125  H   UNL A   1      27.690  26.589  23.956  1.00  0.00     0.067 H 
ATOM    126  C   UNL A   1      28.625  29.402  22.394  1.00  0.00     0.022 A 
ATOM    127  H   UNL A   1      28.236  30.289  22.034  1.00  0.00     0.070 H 
BRANCH 122 128
ATOM    128  O   UNL A   1      30.762  30.050  21.634  1.00  0.00    -0.508 OA
ATOM    129  H   UNL A   1      31.250  30.672  22.137  1.00  0.00     0.293 HD
ENDBRANCH 122 128
BRANCH 124 130
ATOM    130  O   UNL A   1      26.472  28.767  23.115  1.00  0.00    -0.508 OA
ATOM    131  H   UNL A   1      25.952  28.860  22.341  1.00  0.00     0.293 HD
ENDBRANCH 124 130
ENDBRANCH 116 119
ENDBRANCH 107 115
ENDBRANCH 101 104
ENDBRANCH  97 100
ENDBRANCH  94  97
ENDBRANCH   1  94
TORSDOF 18
ENDMDL
MODEL 7
REMARK VINA RESULT:     -12.8      1.925      4.466
REMARK SMILES O=C(NCCCCCCNC(=O)c1cc(/C=C/c2cc(O)cc(O)c2)ccc1O)c1ccc(-c2c3nc(c(-c4c(F)c(F)c(F)c(F)c4F)c4ccc([nH]4)c(-c4c(F)c(F)c(F)c(F)c4F)c4nc(c(-c5c(F)c(F)c(F)c(F)c5F)c5ccc2[nH]5)C=C4)C=C3)cc1
REMARK SMILES IDX 7 1 6 4 5 7 4 10 3 13 1 14 2 15 30 17 31 18 92 19 32 20
REMARK SMILES IDX 91 22 33 24 34 27 35 28 85 29 36 30 90 31 84 32 86 33 37 34
REMARK SMILES IDX 89 35 83 37 82 39 38 41 70 44 50 45 69 46 51 47 54 48 68 49
REMARK SMILES IDX 87 50 52 51 53 53 67 55 88 56 55 59 39 61 40 62 48 63 41 64
REMARK SMILES IDX 42 65 46 66 49 67 43 68 44 69 47 70 45 71 71 72 72 73 80 74
REMARK SMILES IDX 73 75 74 76 78 77 81 78 75 79 76 80 79 81 77 82 56 83 57 84
REMARK SMILES IDX 65 85 58 86 59 87 63 88 66 89 60 90 61 91 64 92 62 93 8 94
REMARK SMILES IDX 9 97 10 100 11 101 12 103 13 104 14 105 28 106 15 107 27 109
REMARK SMILES IDX 26 110 29 113 16 115 17 116 18 119 19 120 25 121 20 122
REMARK SMILES IDX 23 124 22 126 21 128 24 130
REMARK H PARENT 7 2 7 3 6 5 6 6 5 8 5 9 4 11 4 12 3 16 31 21 92 23 32 25 91 26
REMARK H PARENT 90 36 84 38 86 40 89 42 83 43 51 52 54 54 87 57 52 58 88 60
REMARK H PARENT 8 95 8 96 9 98 9 99 10 102 14 108 27 111 26 112 29 114 16 117
REMARK H PARENT 17 118 19 123 25 125 22 127 21 129 24 131
REMARK Flexibility Score: inf
ROOT
ATOM      1  C   UNL A   1      32.664  30.066  26.858  1.00  0.00    -0.052 C 
ATOM      2  H   UNL A   1      32.820  30.544  27.802  1.00  0.00     0.027 H 
ATOM      3  H   UNL A   1      33.510  30.122  26.204  1.00  0.00     0.027 H 
ENDROOT
BRANCH   1   4
ATOM      4  C   UNL A   1      31.526  30.798  26.139  1.00  0.00    -0.052 C 
ATOM      5  H   UNL A   1      31.702  30.731  25.086  1.00  0.00     0.027 H 
ATOM      6  H   UNL A   1      30.620  30.320  26.451  1.00  0.00     0.027 H 
BRANCH   4   7
ATOM      7  C   UNL A   1      31.375  32.275  26.501  1.00  0.00    -0.036 C 
ATOM      8  H   UNL A   1      31.244  32.829  25.595  1.00  0.00     0.028 H 
ATOM      9  H   UNL A   1      30.532  32.343  27.158  1.00  0.00     0.028 H 
BRANCH   7  10
ATOM     10  C   UNL A   1      32.559  32.863  27.252  1.00  0.00     0.018 C 
ATOM     11  H   UNL A   1      32.730  32.283  28.135  1.00  0.00     0.049 H 
ATOM     12  H   UNL A   1      33.405  32.840  26.599  1.00  0.00     0.049 H 
BRANCH  10  13
ATOM     13  N   UNL A   1      32.333  34.245  27.639  1.00  0.00    -0.352 N 
ATOM     14  O   UNL A   1      32.529  36.072  28.958  1.00  0.00    -0.269 OA
ATOM     15  C   UNL A   1      32.950  34.966  28.629  1.00  0.00     0.251 C 
ATOM     16  H   UNL A   1      31.647  34.728  27.123  1.00  0.00     0.163 HD
BRANCH  15  17
ATOM     17  C   UNL A   1      34.131  34.393  29.307  1.00  0.00     0.039 A 
ATOM     18  C   UNL A   1      33.975  33.658  30.487  1.00  0.00    -0.049 A 
ATOM     19  C   UNL A   1      35.398  34.577  28.750  1.00  0.00    -0.049 A 
ATOM     20  C   UNL A   1      35.095  33.197  31.165  1.00  0.00    -0.053 A 
ATOM     21  H   UNL A   1      33.031  33.461  30.852  1.00  0.00     0.063 H 
ATOM     22  C   UNL A   1      36.516  34.033  29.386  1.00  0.00    -0.053 A 
ATOM     23  H   UNL A   1      35.509  35.110  27.874  1.00  0.00     0.063 H 
ATOM     24  C   UNL A   1      36.371  33.339  30.598  1.00  0.00    -0.014 A 
ATOM     25  H   UNL A   1      34.988  32.746  32.088  1.00  0.00     0.063 H 
ATOM     26  H   UNL A   1      37.453  34.141  28.964  1.00  0.00     0.063 H 
BRANCH  24  27
ATOM     27  C   UNL A   1      37.514  32.622  31.212  1.00  0.00     0.031 A 
ATOM     28  C   UNL A   1      38.180  31.468  30.525  1.00  0.00     0.074 A 
ATOM     29  C   UNL A   1      37.930  33.033  32.426  1.00  0.00     0.049 A 
ATOM     30  N   UNL A   1      39.165  30.718  30.952  1.00  0.00    -0.248 NA
ATOM     31  C   UNL A   1      37.679  31.097  29.193  1.00  0.00    -0.034 C 
ATOM     32  C   UNL A   1      37.335  34.134  33.190  1.00  0.00    -0.036 A 
ATOM     33  N   UNL A   1      38.940  32.580  33.236  1.00  0.00    -0.354 N 
ATOM     34  C   UNL A   1      39.389  29.778  29.955  1.00  0.00     0.074 A 
ATOM     35  C   UNL A   1      38.430  30.041  28.904  1.00  0.00    -0.034 C 
ATOM     36  H   UNL A   1      36.937  31.543  28.631  1.00  0.00     0.065 H 
ATOM     37  C   UNL A   1      38.002  34.286  34.341  1.00  0.00    -0.036 A 
ATOM     38  H   UNL A   1      36.527  34.702  32.888  1.00  0.00     0.065 H 
ATOM     39  C   UNL A   1      39.020  33.248  34.433  1.00  0.00     0.049 A 
ATOM     40  H   UNL A   1      39.548  31.849  32.983  1.00  0.00     0.167 HD
ATOM     41  C   UNL A   1      40.313  28.789  29.934  1.00  0.00     0.037 A 
ATOM     42  H   UNL A   1      38.342  29.481  28.042  1.00  0.00     0.065 H 
ATOM     43  H   UNL A   1      37.825  35.018  35.047  1.00  0.00     0.065 H 
ATOM     44  C   UNL A   1      39.796  33.023  35.510  1.00  0.00     0.037 A 
ATOM     45  C   UNL A   1      41.273  28.553  30.984  1.00  0.00     0.049 A 
ATOM     46  C   UNL A   1      40.781  31.890  35.461  1.00  0.00     0.074 A 
ATOM     47  C   UNL A   1      42.303  27.629  31.016  1.00  0.00    -0.036 A 
ATOM     48  N   UNL A   1      41.310  29.233  32.193  1.00  0.00    -0.354 N 
ATOM     49  N   UNL A   1      41.038  31.061  34.480  1.00  0.00    -0.248 NA
ATOM     50  C   UNL A   1      41.577  31.656  36.673  1.00  0.00    -0.034 C 
ATOM     51  C   UNL A   1      42.917  27.701  32.271  1.00  0.00    -0.036 A 
ATOM     52  H   UNL A   1      42.572  26.996  30.247  1.00  0.00     0.065 H 
ATOM     53  C   UNL A   1      42.311  28.712  32.997  1.00  0.00     0.049 A 
ATOM     54  H   UNL A   1      40.713  29.975  32.442  1.00  0.00     0.167 HD
ATOM     55  C   UNL A   1      42.031  30.214  34.950  1.00  0.00     0.074 A 
ATOM     56  C   UNL A   1      42.354  30.653  36.291  1.00  0.00    -0.034 C 
ATOM     57  H   UNL A   1      41.540  32.143  37.582  1.00  0.00     0.065 H 
ATOM     58  H   UNL A   1      43.690  27.101  32.599  1.00  0.00     0.065 H 
ATOM     59  C   UNL A   1      42.615  29.160  34.332  1.00  0.00     0.037 A 
ATOM     60  H   UNL A   1      43.096  30.238  36.876  1.00  0.00     0.065 H 
BRANCH  41  61
ATOM     61  C   UNL A   1      40.341  27.858  28.756  1.00  0.00     0.064 A 
ATOM     62  C   UNL A   1      41.123  28.122  27.623  1.00  0.00     0.173 A 
ATOM     63  C   UNL A   1      39.664  26.629  28.815  1.00  0.00     0.173 A 
ATOM     64  F   UNL A   1      41.785  29.283  27.514  1.00  0.00    -0.203 F 
ATOM     65  C   UNL A   1      41.224  27.190  26.592  1.00  0.00     0.198 A 
ATOM     66  C   UNL A   1      39.788  25.691  27.796  1.00  0.00     0.198 A 
ATOM     67  F   UNL A   1      38.908  26.325  29.882  1.00  0.00    -0.203 F 
ATOM     68  F   UNL A   1      41.965  27.468  25.510  1.00  0.00    -0.200 F 
ATOM     69  C   UNL A   1      40.568  25.972  26.684  1.00  0.00     0.200 A 
ATOM     70  F   UNL A   1      39.166  24.508  27.895  1.00  0.00    -0.200 F 
ATOM     71  F   UNL A   1      40.689  25.066  25.703  1.00  0.00    -0.200 F 
ENDBRANCH  41  61
BRANCH  44  72
ATOM     72  C   UNL A   1      39.632  33.848  36.735  1.00  0.00     0.064 A 
ATOM     73  C   UNL A   1      38.820  33.422  37.794  1.00  0.00     0.173 A 
ATOM     74  C   UNL A   1      40.263  35.096  36.859  1.00  0.00     0.173 A 
ATOM     75  F   UNL A   1      38.182  32.245  37.718  1.00  0.00    -0.203 F 
ATOM     76  C   UNL A   1      38.618  34.227  38.914  1.00  0.00     0.198 A 
ATOM     77  C   UNL A   1      40.093  35.881  37.995  1.00  0.00     0.198 A 
ATOM     78  F   UNL A   1      41.057  35.549  35.877  1.00  0.00    -0.203 F 
ATOM     79  F   UNL A   1      37.784  33.825  39.882  1.00  0.00    -0.200 F 
ATOM     80  C   UNL A   1      39.258  35.453  39.014  1.00  0.00     0.200 A 
ATOM     81  F   UNL A   1      40.730  37.055  38.096  1.00  0.00    -0.200 F 
ATOM     82  F   UNL A   1      39.061  36.228  40.090  1.00  0.00    -0.200 F 
ENDBRANCH  44  72
BRANCH  59  83
ATOM     83  C   UNL A   1      43.666  28.416  35.100  1.00  0.00     0.064 A 
ATOM     84  C   UNL A   1      43.349  27.284  35.866  1.00  0.00     0.173 A 
ATOM     85  C   UNL A   1      45.010  28.818  35.044  1.00  0.00     0.173 A 
ATOM     86  F   UNL A   1      42.076  26.873  35.968  1.00  0.00    -0.203 F 
ATOM     87  C   UNL A   1      44.335  26.595  36.568  1.00  0.00     0.198 A 
ATOM     88  C   UNL A   1      45.998  28.106  35.719  1.00  0.00     0.198 A 
ATOM     89  F   UNL A   1      45.366  29.891  34.323  1.00  0.00    -0.203 F 
ATOM     90  F   UNL A   1      44.001  25.548  37.334  1.00  0.00    -0.200 F 
ATOM     91  C   UNL A   1      45.659  27.001  36.485  1.00  0.00     0.200 A 
ATOM     92  F   UNL A   1      47.278  28.490  35.626  1.00  0.00    -0.200 F 
ATOM     93  F   UNL A   1      46.608  26.331  37.152  1.00  0.00    -0.200 F 
ENDBRANCH  59  83
ENDBRANCH  24  27
ENDBRANCH  15  17
ENDBRANCH  10  13
ENDBRANCH   7  10
ENDBRANCH   4   7
ENDBRANCH   1   4
BRANCH   1  94
ATOM     94  C   UNL A   1      32.426  28.575  27.114  1.00  0.00    -0.036 C 
ATOM     95  H   UNL A   1      31.476  28.313  26.695  1.00  0.00     0.028 H 
ATOM     96  H   UNL A   1      32.470  28.442  28.175  1.00  0.00     0.028 H 
BRANCH  94  97
ATOM     97  C   UNL A   1      33.478  27.646  26.521  1.00  0.00     0.018 C 
ATOM     98  H   UNL A   1      33.068  26.662  26.443  1.00  0.00     0.049 H 
ATOM     99  H   UNL A   1      34.333  27.660  27.165  1.00  0.00     0.049 H 
BRANCH  97 100
ATOM    100  N   UNL A   1      33.905  28.079  25.204  1.00  0.00    -0.352 N 
ATOM    101  C   UNL A   1      33.334  27.797  23.990  1.00  0.00     0.255 C 
ATOM    102  H   UNL A   1      34.707  28.648  25.179  1.00  0.00     0.163 HD
ATOM    103  O   UNL A   1      33.876  28.168  22.952  1.00  0.00    -0.269 OA
BRANCH 101 104
ATOM    104  C   UNL A   1      32.118  26.965  23.923  1.00  0.00     0.082 A 
ATOM    105  C   UNL A   1      32.291  25.583  24.082  1.00  0.00    -0.038 A 
ATOM    106  C   UNL A   1      30.844  27.493  23.700  1.00  0.00     0.128 A 
ATOM    107  C   UNL A   1      31.192  24.717  24.063  1.00  0.00    -0.025 A 
ATOM    108  H   UNL A   1      33.240  25.200  24.214  1.00  0.00     0.064 H 
ATOM    109  C   UNL A   1      29.739  26.648  23.689  1.00  0.00    -0.019 A 
ATOM    110  C   UNL A   1      29.915  25.271  23.877  1.00  0.00    -0.051 A 
ATOM    111  H   UNL A   1      28.793  27.034  23.543  1.00  0.00     0.066 H 
ATOM    112  H   UNL A   1      29.089  24.653  23.880  1.00  0.00     0.063 H 
BRANCH 106 113
ATOM    113  O   UNL A   1      30.671  28.835  23.504  1.00  0.00    -0.507 OA
ATOM    114  H   UNL A   1      30.345  29.149  22.683  1.00  0.00     0.293 HD
ENDBRANCH 106 113
BRANCH 107 115
ATOM    115  C   UNL A   1      31.309  23.256  24.220  1.00  0.00    -0.054 C 
ATOM    116  C   UNL A   1      32.255  22.479  23.667  1.00  0.00    -0.054 C 
ATOM    117  H   UNL A   1      30.601  22.789  24.808  1.00  0.00     0.063 H 
ATOM    118  H   UNL A   1      32.988  22.929  23.096  1.00  0.00     0.063 H 
BRANCH 116 119
ATOM    119  C   UNL A   1      32.298  21.020  23.837  1.00  0.00    -0.018 A 
ATOM    120  C   UNL A   1      32.153  20.151  22.747  1.00  0.00    -0.013 A 
ATOM    121  C   UNL A   1      32.562  20.492  25.109  1.00  0.00    -0.013 A 
ATOM    122  C   UNL A   1      32.250  18.775  22.941  1.00  0.00     0.119 A 
ATOM    123  H   UNL A   1      31.974  20.530  21.804  1.00  0.00     0.067 H 
ATOM    124  C   UNL A   1      32.653  19.112  25.279  1.00  0.00     0.119 A 
ATOM    125  H   UNL A   1      32.690  21.123  25.915  1.00  0.00     0.067 H 
ATOM    126  C   UNL A   1      32.495  18.248  24.203  1.00  0.00     0.022 A 
ATOM    127  H   UNL A   1      32.559  17.227  24.339  1.00  0.00     0.070 H 
BRANCH 122 128
ATOM    128  O   UNL A   1      32.118  17.903  21.900  1.00  0.00    -0.508 OA
ATOM    129  H   UNL A   1      32.394  18.153  21.041  1.00  0.00     0.293 HD
ENDBRANCH 122 128
BRANCH 124 130
ATOM    130  O   UNL A   1      32.904  18.565  26.504  1.00  0.00    -0.508 OA
ATOM    131  H   UNL A   1      33.438  19.025  27.121  1.00  0.00     0.293 HD
ENDBRANCH 124 130
ENDBRANCH 116 119
ENDBRANCH 107 115
ENDBRANCH 101 104
ENDBRANCH  97 100
ENDBRANCH  94  97
ENDBRANCH   1  94
TORSDOF 18
ENDMDL
MODEL 8
REMARK VINA RESULT:     -12.7      2.010      8.473
REMARK SMILES O=C(NCCCCCCNC(=O)c1cc(/C=C/c2cc(O)cc(O)c2)ccc1O)c1ccc(-c2c3nc(c(-c4c(F)c(F)c(F)c(F)c4F)c4ccc([nH]4)c(-c4c(F)c(F)c(F)c(F)c4F)c4nc(c(-c5c(F)c(F)c(F)c(F)c5F)c5ccc2[nH]5)C=C4)C=C3)cc1
REMARK SMILES IDX 7 1 6 4 5 7 4 10 3 13 1 14 2 15 30 17 31 18 92 19 32 20
REMARK SMILES IDX 91 22 33 24 34 27 35 28 85 29 36 30 90 31 84 32 86 33 37 34
REMARK SMILES IDX 89 35 83 37 82 39 38 41 70 44 50 45 69 46 51 47 54 48 68 49
REMARK SMILES IDX 87 50 52 51 53 53 67 55 88 56 55 59 39 61 40 62 48 63 41 64
REMARK SMILES IDX 42 65 46 66 49 67 43 68 44 69 47 70 45 71 71 72 72 73 80 74
REMARK SMILES IDX 73 75 74 76 78 77 81 78 75 79 76 80 79 81 77 82 56 83 57 84
REMARK SMILES IDX 65 85 58 86 59 87 63 88 66 89 60 90 61 91 64 92 62 93 8 94
REMARK SMILES IDX 9 97 10 100 11 101 12 103 13 104 14 105 28 106 15 107 27 109
REMARK SMILES IDX 26 110 29 113 16 115 17 116 18 119 19 120 25 121 20 122
REMARK SMILES IDX 23 124 22 126 21 128 24 130
REMARK H PARENT 7 2 7 3 6 5 6 6 5 8 5 9 4 11 4 12 3 16 31 21 92 23 32 25 91 26
REMARK H PARENT 90 36 84 38 86 40 89 42 83 43 51 52 54 54 87 57 52 58 88 60
REMARK H PARENT 8 95 8 96 9 98 9 99 10 102 14 108 27 111 26 112 29 114 16 117
REMARK H PARENT 17 118 19 123 25 125 22 127 21 129 24 131
REMARK Flexibility Score: inf
ROOT
ATOM      1  C   UNL A   1      32.370  29.861  27.145  1.00  0.00    -0.052 C 
ATOM      2  H   UNL A   1      32.298  30.308  28.115  1.00  0.00     0.027 H 
ATOM      3  H   UNL A   1      33.374  29.779  26.784  1.00  0.00     0.027 H 
ENDROOT
BRANCH   1   4
ATOM      4  C   UNL A   1      31.636  30.767  26.152  1.00  0.00    -0.052 C 
ATOM      5  H   UNL A   1      32.190  30.773  25.237  1.00  0.00     0.027 H 
ATOM      6  H   UNL A   1      30.651  30.361  26.050  1.00  0.00     0.027 H 
BRANCH   4   7
ATOM      7  C   UNL A   1      31.455  32.214  26.606  1.00  0.00    -0.036 C 
ATOM      8  H   UNL A   1      31.250  32.813  25.743  1.00  0.00     0.028 H 
ATOM      9  H   UNL A   1      30.652  32.214  27.314  1.00  0.00     0.028 H 
BRANCH   7  10
ATOM     10  C   UNL A   1      32.661  32.805  27.319  1.00  0.00     0.018 C 
ATOM     11  H   UNL A   1      32.847  32.239  28.208  1.00  0.00     0.049 H 
ATOM     12  H   UNL A   1      33.491  32.764  26.647  1.00  0.00     0.049 H 
BRANCH  10  13
ATOM     13  N   UNL A   1      32.455  34.196  27.687  1.00  0.00    -0.352 N 
ATOM     14  O   UNL A   1      32.654  36.030  28.995  1.00  0.00    -0.269 OA
ATOM     15  C   UNL A   1      33.059  34.912  28.689  1.00  0.00     0.251 C 
ATOM     16  H   UNL A   1      31.797  34.690  27.146  1.00  0.00     0.163 HD
BRANCH  15  17
ATOM     17  C   UNL A   1      34.205  34.319  29.407  1.00  0.00     0.039 A 
ATOM     18  C   UNL A   1      33.995  33.574  30.572  1.00  0.00    -0.049 A 
ATOM     19  C   UNL A   1      35.496  34.494  28.903  1.00  0.00    -0.049 A 
ATOM     20  C   UNL A   1      35.081  33.092  31.289  1.00  0.00    -0.053 A 
ATOM     21  H   UNL A   1      33.034  33.384  30.897  1.00  0.00     0.063 H 
ATOM     22  C   UNL A   1      36.582  33.931  29.577  1.00  0.00    -0.053 A 
ATOM     23  H   UNL A   1      35.647  35.036  28.038  1.00  0.00     0.063 H 
ATOM     24  C   UNL A   1      36.381  33.227  30.775  1.00  0.00    -0.014 A 
ATOM     25  H   UNL A   1      34.933  32.634  32.201  1.00  0.00     0.063 H 
ATOM     26  H   UNL A   1      37.535  34.033  29.194  1.00  0.00     0.063 H 
BRANCH  24  27
ATOM     27  C   UNL A   1      37.491  32.490  31.426  1.00  0.00     0.031 A 
ATOM     28  C   UNL A   1      37.997  32.869  32.785  1.00  0.00     0.074 A 
ATOM     29  C   UNL A   1      38.048  31.470  30.744  1.00  0.00     0.049 A 
ATOM     30  N   UNL A   1      38.984  32.344  33.467  1.00  0.00    -0.248 NA
ATOM     31  C   UNL A   1      37.320  33.981  33.469  1.00  0.00    -0.034 C 
ATOM     32  C   UNL A   1      37.642  31.034  29.404  1.00  0.00    -0.036 A 
ATOM     33  N   UNL A   1      39.069  30.616  31.072  1.00  0.00    -0.354 N 
ATOM     34  C   UNL A   1      39.060  33.070  34.648  1.00  0.00     0.074 A 
ATOM     35  C   UNL A   1      38.028  34.083  34.588  1.00  0.00    -0.034 C 
ATOM     36  H   UNL A   1      36.507  34.537  33.160  1.00  0.00     0.065 H 
ATOM     37  C   UNL A   1      38.388  29.985  29.035  1.00  0.00    -0.036 A 
ATOM     38  H   UNL A   1      36.899  31.469  28.834  1.00  0.00     0.065 H 
ATOM     39  C   UNL A   1      39.373  29.721  30.075  1.00  0.00     0.049 A 
ATOM     40  H   UNL A   1      39.539  30.641  31.937  1.00  0.00     0.167 HD
ATOM     41  C   UNL A   1      39.920  32.897  35.679  1.00  0.00     0.037 A 
ATOM     42  H   UNL A   1      37.862  34.791  35.321  1.00  0.00     0.065 H 
ATOM     43  H   UNL A   1      38.282  29.450  28.158  1.00  0.00     0.065 H 
ATOM     44  C   UNL A   1      40.365  28.816  29.985  1.00  0.00     0.037 A 
ATOM     45  C   UNL A   1      40.931  31.871  35.728  1.00  0.00     0.049 A 
ATOM     46  C   UNL A   1      41.324  28.684  31.134  1.00  0.00     0.074 A 
ATOM     47  C   UNL A   1      41.795  31.563  36.766  1.00  0.00    -0.036 A 
ATOM     48  N   UNL A   1      41.227  30.997  34.692  1.00  0.00    -0.354 N 
ATOM     49  N   UNL A   1      41.333  29.321  32.279  1.00  0.00    -0.248 NA
ATOM     50  C   UNL A   1      42.414  27.714  30.975  1.00  0.00    -0.034 C 
ATOM     51  C   UNL A   1      42.659  30.554  36.331  1.00  0.00    -0.036 A 
ATOM     52  H   UNL A   1      41.800  32.004  37.699  1.00  0.00     0.065 H 
ATOM     53  C   UNL A   1      42.294  30.188  35.046  1.00  0.00     0.049 A 
ATOM     54  H   UNL A   1      40.749  30.959  33.832  1.00  0.00     0.167 HD
ATOM     55  C   UNL A   1      42.421  28.823  32.980  1.00  0.00     0.074 A 
ATOM     56  C   UNL A   1      43.026  27.806  32.146  1.00  0.00    -0.034 C 
ATOM     57  H   UNL A   1      42.644  27.117  30.164  1.00  0.00     0.065 H 
ATOM     58  H   UNL A   1      43.438  30.150  36.876  1.00  0.00     0.065 H 
ATOM     59  C   UNL A   1      42.885  29.183  34.201  1.00  0.00     0.037 A 
ATOM     60  H   UNL A   1      43.831  27.224  32.429  1.00  0.00     0.065 H 
BRANCH  41  61
ATOM     61  C   UNL A   1      39.840  33.839  36.846  1.00  0.00     0.064 A 
ATOM     62  C   UNL A   1      40.476  35.088  36.834  1.00  0.00     0.173 A 
ATOM     63  C   UNL A   1      39.018  33.532  37.942  1.00  0.00     0.173 A 
ATOM     64  F   UNL A   1      41.277  35.429  35.813  1.00  0.00    -0.203 F 
ATOM     65  C   UNL A   1      40.294  35.994  37.877  1.00  0.00     0.198 A 
ATOM     66  C   UNL A   1      38.818  34.449  38.969  1.00  0.00     0.198 A 
ATOM     67  F   UNL A   1      38.380  32.353  37.999  1.00  0.00    -0.203 F 
ATOM     68  F   UNL A   1      40.925  37.176  37.853  1.00  0.00    -0.200 F 
ATOM     69  C   UNL A   1      39.457  35.679  38.937  1.00  0.00     0.200 A 
ATOM     70  F   UNL A   1      37.995  34.149  39.984  1.00  0.00    -0.200 F 
ATOM     71  F   UNL A   1      39.262  36.563  39.926  1.00  0.00    -0.200 F 
ENDBRANCH  41  61
BRANCH  44  72
ATOM     72  C   UNL A   1      40.533  28.012  28.747  1.00  0.00     0.064 A 
ATOM     73  C   UNL A   1      41.329  28.466  27.687  1.00  0.00     0.173 A 
ATOM     74  C   UNL A   1      39.875  26.782  28.586  1.00  0.00     0.173 A 
ATOM     75  F   UNL A   1      41.966  29.643  27.785  1.00  0.00    -0.203 F 
ATOM     76  C   UNL A   1      41.433  27.740  26.503  1.00  0.00     0.198 A 
ATOM     77  C   UNL A   1      40.012  26.037  27.418  1.00  0.00     0.198 A 
ATOM     78  F   UNL A   1      39.105  26.297  29.572  1.00  0.00    -0.203 F 
ATOM     79  F   UNL A   1      42.148  28.229  25.481  1.00  0.00    -0.200 F 
ATOM     80  C   UNL A   1      40.778  26.525  26.371  1.00  0.00     0.200 A 
ATOM     81  F   UNL A   1      39.393  24.854  27.304  1.00  0.00    -0.200 F 
ATOM     82  F   UNL A   1      40.876  25.828  25.231  1.00  0.00    -0.200 F 
ENDBRANCH  44  72
BRANCH  59  83
ATOM     83  C   UNL A   1      44.102  28.466  34.706  1.00  0.00     0.064 A 
ATOM     84  C   UNL A   1      43.998  27.255  35.408  1.00  0.00     0.173 A 
ATOM     85  C   UNL A   1      45.385  28.974  34.456  1.00  0.00     0.173 A 
ATOM     86  F   UNL A   1      42.792  26.740  35.690  1.00  0.00    -0.203 F 
ATOM     87  C   UNL A   1      45.135  26.593  35.864  1.00  0.00     0.198 A 
ATOM     88  C   UNL A   1      46.521  28.291  34.883  1.00  0.00     0.198 A 
ATOM     89  F   UNL A   1      45.539  30.125  33.785  1.00  0.00    -0.203 F 
ATOM     90  F   UNL A   1      45.009  25.466  36.577  1.00  0.00    -0.200 F 
ATOM     91  C   UNL A   1      46.395  27.106  35.592  1.00  0.00     0.200 A 
ATOM     92  F   UNL A   1      47.737  28.780  34.607  1.00  0.00    -0.200 F 
ATOM     93  F   UNL A   1      47.488  26.462  36.021  1.00  0.00    -0.200 F 
ENDBRANCH  59  83
ENDBRANCH  24  27
ENDBRANCH  15  17
ENDBRANCH  10  13
ENDBRANCH   7  10
ENDBRANCH   4   7
ENDBRANCH   1   4
BRANCH   1  94
ATOM     94  C   UNL A   1      31.838  28.428  27.243  1.00  0.00    -0.036 C 
ATOM     95  H   UNL A   1      30.831  28.471  27.603  1.00  0.00     0.028 H 
ATOM     96  H   UNL A   1      32.500  27.906  27.902  1.00  0.00     0.028 H 
BRANCH  94  97
ATOM     97  C   UNL A   1      31.840  27.653  25.930  1.00  0.00     0.018 C 
ATOM     98  H   UNL A   1      31.895  26.607  26.146  1.00  0.00     0.049 H 
ATOM     99  H   UNL A   1      32.684  27.976  25.357  1.00  0.00     0.049 H 
BRANCH  97 100
ATOM    100  N   UNL A   1      30.646  27.906  25.148  1.00  0.00    -0.352 N 
ATOM    101  C   UNL A   1      30.334  27.440  23.898  1.00  0.00     0.255 C 
ATOM    102  H   UNL A   1      29.973  28.489  25.569  1.00  0.00     0.163 HD
ATOM    103  O   UNL A   1      29.314  27.825  23.331  1.00  0.00    -0.269 OA
BRANCH 101 104
ATOM    104  C   UNL A   1      31.271  26.546  23.189  1.00  0.00     0.082 A 
ATOM    105  C   UNL A   1      31.161  25.175  23.464  1.00  0.00    -0.038 A 
ATOM    106  C   UNL A   1      32.238  27.010  22.296  1.00  0.00     0.128 A 
ATOM    107  C   UNL A   1      31.987  24.249  22.817  1.00  0.00    -0.025 A 
ATOM    108  H   UNL A   1      30.464  24.846  24.150  1.00  0.00     0.064 H 
ATOM    109  C   UNL A   1      33.060  26.101  21.636  1.00  0.00    -0.019 A 
ATOM    110  C   UNL A   1      32.928  24.731  21.892  1.00  0.00    -0.051 A 
ATOM    111  H   UNL A   1      33.765  26.436  20.961  1.00  0.00     0.066 H 
ATOM    112  H   UNL A   1      33.532  24.063  21.390  1.00  0.00     0.063 H 
BRANCH 106 113
ATOM    113  O   UNL A   1      32.379  28.348  22.054  1.00  0.00    -0.507 OA
ATOM    114  H   UNL A   1      31.624  28.902  22.039  1.00  0.00     0.293 HD
ENDBRANCH 106 113
BRANCH 107 115
ATOM    115  C   UNL A   1      31.924  22.797  23.064  1.00  0.00    -0.054 C 
ATOM    116  C   UNL A   1      32.779  22.090  23.821  1.00  0.00    -0.054 C 
ATOM    117  H   UNL A   1      31.152  22.277  22.617  1.00  0.00     0.063 H 
ATOM    118  H   UNL A   1      33.543  22.593  24.298  1.00  0.00     0.063 H 
BRANCH 116 119
ATOM    119  C   UNL A   1      32.679  20.635  24.002  1.00  0.00    -0.018 A 
ATOM    120  C   UNL A   1      32.823  20.043  25.264  1.00  0.00    -0.013 A 
ATOM    121  C   UNL A   1      32.361  19.833  22.898  1.00  0.00    -0.013 A 
ATOM    122  C   UNL A   1      32.672  18.665  25.404  1.00  0.00     0.119 A 
ATOM    123  H   UNL A   1      33.042  20.625  26.088  1.00  0.00     0.067 H 
ATOM    124  C   UNL A   1      32.216  18.457  23.060  1.00  0.00     0.119 A 
ATOM    125  H   UNL A   1      32.235  20.261  21.967  1.00  0.00     0.067 H 
ATOM    126  C   UNL A   1      32.373  17.866  24.308  1.00  0.00     0.022 A 
ATOM    127  H   UNL A   1      32.268  16.845  24.419  1.00  0.00     0.070 H 
BRANCH 122 128
ATOM    128  O   UNL A   1      32.801  18.058  26.619  1.00  0.00    -0.508 OA
ATOM    129  H   UNL A   1      32.121  17.498  26.938  1.00  0.00     0.293 HD
ENDBRANCH 122 128
BRANCH 124 130
ATOM    130  O   UNL A   1      31.912  17.647  22.005  1.00  0.00    -0.508 OA
ATOM    131  H   UNL A   1      32.454  17.650  21.241  1.00  0.00     0.293 HD
ENDBRANCH 124 130
ENDBRANCH 116 119
ENDBRANCH 107 115
ENDBRANCH 101 104
ENDBRANCH  97 100
ENDBRANCH  94  97
ENDBRANCH   1  94
TORSDOF 18
ENDMDL
MODEL 9
REMARK VINA RESULT:     -12.7      2.393      5.083
REMARK SMILES O=C(NCCCCCCNC(=O)c1cc(/C=C/c2cc(O)cc(O)c2)ccc1O)c1ccc(-c2c3nc(c(-c4c(F)c(F)c(F)c(F)c4F)c4ccc([nH]4)c(-c4c(F)c(F)c(F)c(F)c4F)c4nc(c(-c5c(F)c(F)c(F)c(F)c5F)c5ccc2[nH]5)C=C4)C=C3)cc1
REMARK SMILES IDX 7 1 6 4 5 7 4 10 3 13 1 14 2 15 30 17 31 18 92 19 32 20
REMARK SMILES IDX 91 22 33 24 34 27 35 28 85 29 36 30 90 31 84 32 86 33 37 34
REMARK SMILES IDX 89 35 83 37 82 39 38 41 70 44 50 45 69 46 51 47 54 48 68 49
REMARK SMILES IDX 87 50 52 51 53 53 67 55 88 56 55 59 39 61 40 62 48 63 41 64
REMARK SMILES IDX 42 65 46 66 49 67 43 68 44 69 47 70 45 71 71 72 72 73 80 74
REMARK SMILES IDX 73 75 74 76 78 77 81 78 75 79 76 80 79 81 77 82 56 83 57 84
REMARK SMILES IDX 65 85 58 86 59 87 63 88 66 89 60 90 61 91 64 92 62 93 8 94
REMARK SMILES IDX 9 97 10 100 11 101 12 103 13 104 14 105 28 106 15 107 27 109
REMARK SMILES IDX 26 110 29 113 16 115 17 116 18 119 19 120 25 121 20 122
REMARK SMILES IDX 23 124 22 126 21 128 24 130
REMARK H PARENT 7 2 7 3 6 5 6 6 5 8 5 9 4 11 4 12 3 16 31 21 92 23 32 25 91 26
REMARK H PARENT 90 36 84 38 86 40 89 42 83 43 51 52 54 54 87 57 52 58 88 60
REMARK H PARENT 8 95 8 96 9 98 9 99 10 102 14 108 27 111 26 112 29 114 16 117
REMARK H PARENT 17 118 19 123 25 125 22 127 21 129 24 131
REMARK Flexibility Score: inf
ROOT
ATOM      1  C   UNL A   1      31.388  29.997  24.394  1.00  0.00    -0.052 C 
ATOM      2  H   UNL A   1      32.320  29.691  23.968  1.00  0.00     0.027 H 
ATOM      3  H   UNL A   1      31.048  30.950  24.044  1.00  0.00     0.027 H 
ENDROOT
BRANCH   1   4
ATOM      4  C   UNL A   1      31.587  30.150  25.906  1.00  0.00    -0.052 C 
ATOM      5  H   UNL A   1      30.899  29.495  26.399  1.00  0.00     0.027 H 
ATOM      6  H   UNL A   1      32.613  29.911  26.097  1.00  0.00     0.027 H 
BRANCH   4   7
ATOM      7  C   UNL A   1      31.370  31.561  26.449  1.00  0.00    -0.036 C 
ATOM      8  H   UNL A   1      30.995  32.172  25.654  1.00  0.00     0.028 H 
ATOM      9  H   UNL A   1      30.683  31.471  27.265  1.00  0.00     0.028 H 
BRANCH   7  10
ATOM     10  C   UNL A   1      32.621  32.220  27.007  1.00  0.00     0.018 C 
ATOM     11  H   UNL A   1      32.926  31.693  27.886  1.00  0.00     0.049 H 
ATOM     12  H   UNL A   1      33.375  32.187  26.249  1.00  0.00     0.049 H 
BRANCH  10  13
ATOM     13  N   UNL A   1      32.401  33.614  27.353  1.00  0.00    -0.352 N 
ATOM     14  O   UNL A   1      32.611  35.480  28.613  1.00  0.00    -0.269 OA
ATOM     15  C   UNL A   1      33.027  34.364  28.315  1.00  0.00     0.251 C 
ATOM     16  H   UNL A   1      31.712  34.083  26.827  1.00  0.00     0.163 HD
BRANCH  15  17
ATOM     17  C   UNL A   1      34.212  33.810  29.002  1.00  0.00     0.039 A 
ATOM     18  C   UNL A   1      34.064  32.782  29.938  1.00  0.00    -0.049 A 
ATOM     19  C   UNL A   1      35.479  34.310  28.693  1.00  0.00    -0.049 A 
ATOM     20  C   UNL A   1      35.170  32.325  30.642  1.00  0.00    -0.053 A 
ATOM     21  H   UNL A   1      33.135  32.365  30.105  1.00  0.00     0.063 H 
ATOM     22  C   UNL A   1      36.602  33.785  29.338  1.00  0.00    -0.053 A 
ATOM     23  H   UNL A   1      35.586  35.061  27.995  1.00  0.00     0.063 H 
ATOM     24  C   UNL A   1      36.454  32.790  30.316  1.00  0.00    -0.014 A 
ATOM     25  H   UNL A   1      35.047  31.642  31.405  1.00  0.00     0.063 H 
ATOM     26  H   UNL A   1      37.544  34.131  29.094  1.00  0.00     0.063 H 
BRANCH  24  27
ATOM     27  C   UNL A   1      37.634  32.109  30.901  1.00  0.00     0.031 A 
ATOM     28  C   UNL A   1      38.397  31.065  30.143  1.00  0.00     0.074 A 
ATOM     29  C   UNL A   1      37.992  32.448  32.156  1.00  0.00     0.049 A 
ATOM     30  N   UNL A   1      39.426  30.356  30.535  1.00  0.00    -0.248 NA
ATOM     31  C   UNL A   1      37.953  30.770  28.773  1.00  0.00    -0.034 C 
ATOM     32  C   UNL A   1      37.301  33.437  32.988  1.00  0.00    -0.036 A 
ATOM     33  N   UNL A   1      39.016  32.005  32.953  1.00  0.00    -0.354 N 
ATOM     34  C   UNL A   1      39.739  29.519  29.473  1.00  0.00     0.074 A 
ATOM     35  C   UNL A   1      38.786  29.797  28.420  1.00  0.00    -0.034 C 
ATOM     36  H   UNL A   1      37.192  31.205  28.227  1.00  0.00     0.065 H 
ATOM     37  C   UNL A   1      37.931  33.543  34.166  1.00  0.00    -0.036 A 
ATOM     38  H   UNL A   1      36.461  33.969  32.711  1.00  0.00     0.065 H 
ATOM     39  C   UNL A   1      39.021  32.577  34.202  1.00  0.00     0.049 A 
ATOM     40  H   UNL A   1      39.682  31.342  32.659  1.00  0.00     0.167 HD
ATOM     41  C   UNL A   1      40.735  28.605  29.397  1.00  0.00     0.037 A 
ATOM     42  H   UNL A   1      38.758  29.305  27.514  1.00  0.00     0.065 H 
ATOM     43  H   UNL A   1      37.686  34.200  34.922  1.00  0.00     0.065 H 
ATOM     44  C   UNL A   1      39.788  32.321  35.277  1.00  0.00     0.037 A 
ATOM     45  C   UNL A   1      41.687  28.354  30.450  1.00  0.00     0.049 A 
ATOM     46  C   UNL A   1      40.855  31.270  35.165  1.00  0.00     0.074 A 
ATOM     47  C   UNL A   1      42.782  27.507  30.437  1.00  0.00    -0.036 A 
ATOM     48  N   UNL A   1      41.648  28.934  31.710  1.00  0.00    -0.354 N 
ATOM     49  N   UNL A   1      41.194  30.544  34.128  1.00  0.00    -0.248 NA
ATOM     50  C   UNL A   1      41.641  30.996  36.375  1.00  0.00    -0.034 C 
ATOM     51  C   UNL A   1      43.362  27.520  31.709  1.00  0.00    -0.036 A 
ATOM     52  H   UNL A   1      43.113  26.959  29.626  1.00  0.00     0.065 H 
ATOM     53  C   UNL A   1      42.668  28.422  32.497  1.00  0.00     0.049 A 
ATOM     54  H   UNL A   1      40.993  29.608  32.002  1.00  0.00     0.167 HD
ATOM     55  C   UNL A   1      42.236  29.736  34.556  1.00  0.00     0.074 A 
ATOM     56  C   UNL A   1      42.498  30.086  35.936  1.00  0.00    -0.034 C 
ATOM     57  H   UNL A   1      41.550  31.404  37.319  1.00  0.00     0.065 H 
ATOM     58  H   UNL A   1      44.170  26.953  32.009  1.00  0.00     0.065 H 
ATOM     59  C   UNL A   1      42.910  28.780  33.871  1.00  0.00     0.037 A 
ATOM     60  H   UNL A   1      43.257  29.679  36.505  1.00  0.00     0.065 H 
BRANCH  41  61
ATOM     61  C   UNL A   1      40.856  27.778  28.150  1.00  0.00     0.064 A 
ATOM     62  C   UNL A   1      41.617  28.201  27.052  1.00  0.00     0.173 A 
ATOM     63  C   UNL A   1      40.295  26.491  28.103  1.00  0.00     0.173 A 
ATOM     64  F   UNL A   1      42.169  29.424  27.044  1.00  0.00    -0.203 F 
ATOM     65  C   UNL A   1      41.811  27.368  25.952  1.00  0.00     0.198 A 
ATOM     66  C   UNL A   1      40.513  25.652  27.014  1.00  0.00     0.198 A 
ATOM     67  F   UNL A   1      39.565  26.034  29.132  1.00  0.00    -0.203 F 
ATOM     68  F   UNL A   1      42.529  27.799  24.905  1.00  0.00    -0.200 F 
ATOM     69  C   UNL A   1      41.270  26.091  25.939  1.00  0.00     0.200 A 
ATOM     70  F   UNL A   1      40.003  24.412  27.012  1.00  0.00    -0.200 F 
ATOM     71  F   UNL A   1      41.480  25.282  24.891  1.00  0.00    -0.200 F 
ENDBRANCH  41  61
BRANCH  44  72
ATOM     72  C   UNL A   1      39.538  33.030  36.559  1.00  0.00     0.064 A 
ATOM     73  C   UNL A   1      38.592  32.558  37.478  1.00  0.00     0.173 A 
ATOM     74  C   UNL A   1      40.223  34.213  36.880  1.00  0.00     0.173 A 
ATOM     75  F   UNL A   1      37.899  31.440  37.211  1.00  0.00    -0.203 F 
ATOM     76  C   UNL A   1      38.314  33.259  38.649  1.00  0.00     0.198 A 
ATOM     77  C   UNL A   1      39.974  34.891  38.069  1.00  0.00     0.198 A 
ATOM     78  F   UNL A   1      41.145  34.705  36.040  1.00  0.00    -0.203 F 
ATOM     79  F   UNL A   1      37.357  32.821  39.477  1.00  0.00    -0.200 F 
ATOM     80  C   UNL A   1      39.008  34.422  38.945  1.00  0.00     0.200 A 
ATOM     81  F   UNL A   1      40.663  36.003  38.361  1.00  0.00    -0.200 F 
ATOM     82  F   UNL A   1      38.739  35.098  40.071  1.00  0.00    -0.200 F 
ENDBRANCH  44  72
BRANCH  59  83
ATOM     83  C   UNL A   1      43.997  28.054  34.606  1.00  0.00     0.064 A 
ATOM     84  C   UNL A   1      45.296  28.578  34.696  1.00  0.00     0.173 A 
ATOM     85  C   UNL A   1      43.731  26.839  35.255  1.00  0.00     0.173 A 
ATOM     86  F   UNL A   1      45.605  29.727  34.073  1.00  0.00    -0.203 F 
ATOM     87  C   UNL A   1      46.295  27.901  35.389  1.00  0.00     0.198 A 
ATOM     88  C   UNL A   1      44.724  26.182  35.977  1.00  0.00     0.198 A 
ATOM     89  F   UNL A   1      42.506  26.298  35.204  1.00  0.00    -0.203 F 
ATOM     90  F   UNL A   1      47.540  28.395  35.418  1.00  0.00    -0.200 F 
ATOM     91  C   UNL A   1      46.005  26.708  36.037  1.00  0.00     0.200 A 
ATOM     92  F   UNL A   1      44.439  25.039  36.615  1.00  0.00    -0.200 F 
ATOM     93  F   UNL A   1      46.965  26.063  36.713  1.00  0.00    -0.200 F 
ENDBRANCH  59  83
ENDBRANCH  24  27
ENDBRANCH  15  17
ENDBRANCH  10  13
ENDBRANCH   7  10
ENDBRANCH   4   7
ENDBRANCH   1   4
BRANCH   1  94
ATOM     94  C   UNL A   1      30.318  28.985  23.973  1.00  0.00    -0.036 C 
ATOM     95  H   UNL A   1      29.747  29.418  23.177  1.00  0.00     0.028 H 
ATOM     96  H   UNL A   1      29.737  28.781  24.847  1.00  0.00     0.028 H 
BRANCH  94  97
ATOM     97  C   UNL A   1      30.859  27.644  23.493  1.00  0.00     0.018 C 
ATOM     98  H   UNL A   1      30.057  27.080  23.065  1.00  0.00     0.049 H 
ATOM     99  H   UNL A   1      31.283  27.138  24.335  1.00  0.00     0.049 H 
BRANCH  97 100
ATOM    100  N   UNL A   1      31.901  27.802  22.497  1.00  0.00    -0.352 N 
ATOM    101  C   UNL A   1      33.120  27.179  22.436  1.00  0.00     0.255 C 
ATOM    102  H   UNL A   1      31.707  28.438  21.772  1.00  0.00     0.163 HD
ATOM    103  O   UNL A   1      33.933  27.495  21.571  1.00  0.00    -0.269 OA
BRANCH 101 104
ATOM    104  C   UNL A   1      33.498  26.195  23.469  1.00  0.00     0.082 A 
ATOM    105  C   UNL A   1      33.425  24.843  23.106  1.00  0.00    -0.038 A 
ATOM    106  C   UNL A   1      33.898  26.557  24.757  1.00  0.00     0.128 A 
ATOM    107  C   UNL A   1      33.792  23.839  24.009  1.00  0.00    -0.025 A 
ATOM    108  H   UNL A   1      33.097  24.585  22.162  1.00  0.00     0.064 H 
ATOM    109  C   UNL A   1      34.277  25.572  25.663  1.00  0.00    -0.019 A 
ATOM    110  C   UNL A   1      34.229  24.224  25.287  1.00  0.00    -0.051 A 
ATOM    111  H   UNL A   1      34.591  25.834  26.611  1.00  0.00     0.066 H 
ATOM    112  H   UNL A   1      34.523  23.500  25.961  1.00  0.00     0.063 H 
BRANCH 106 113
ATOM    113  O   UNL A   1      33.933  27.870  25.132  1.00  0.00    -0.507 OA
ATOM    114  H   UNL A   1      33.841  28.101  26.036  1.00  0.00     0.293 HD
ENDBRANCH 106 113
BRANCH 107 115
ATOM    115  C   UNL A   1      33.734  22.400  23.689  1.00  0.00    -0.054 C 
ATOM    116  C   UNL A   1      33.303  21.429  24.510  1.00  0.00    -0.054 C 
ATOM    117  H   UNL A   1      34.052  22.115  22.749  1.00  0.00     0.063 H 
ATOM    118  H   UNL A   1      32.957  21.694  25.445  1.00  0.00     0.063 H 
BRANCH 116 119
ATOM    119  C   UNL A   1      33.300  20.007  24.141  1.00  0.00    -0.018 A 
ATOM    120  C   UNL A   1      32.441  19.508  23.152  1.00  0.00    -0.013 A 
ATOM    121  C   UNL A   1      34.230  19.147  24.742  1.00  0.00    -0.013 A 
ATOM    122  C   UNL A   1      32.503  18.164  22.794  1.00  0.00     0.119 A 
ATOM    123  H   UNL A   1      31.763  20.136  22.691  1.00  0.00     0.067 H 
ATOM    124  C   UNL A   1      34.273  17.805  24.369  1.00  0.00     0.119 A 
ATOM    125  H   UNL A   1      34.880  19.507  25.457  1.00  0.00     0.067 H 
ATOM    126  C   UNL A   1      33.412  17.306  23.400  1.00  0.00     0.022 A 
ATOM    127  H   UNL A   1      33.447  16.309  23.133  1.00  0.00     0.070 H 
BRANCH 122 128
ATOM    128  O   UNL A   1      31.683  17.648  21.832  1.00  0.00    -0.508 OA
ATOM    129  H   UNL A   1      31.760  16.748  21.584  1.00  0.00     0.293 HD
ENDBRANCH 122 128
BRANCH 124 130
ATOM    130  O   UNL A   1      35.162  16.941  24.938  1.00  0.00    -0.508 OA
ATOM    131  H   UNL A   1      35.076  16.708  25.841  1.00  0.00     0.293 HD
ENDBRANCH 124 130
ENDBRANCH 116 119
ENDBRANCH 107 115
ENDBRANCH 101 104
ENDBRANCH  97 100
ENDBRANCH  94  97
ENDBRANCH   1  94
TORSDOF 18
ENDMDL
MODEL 10
REMARK VINA RESULT:     -12.7      1.722      2.515
REMARK SMILES O=C(NCCCCCCNC(=O)c1cc(/C=C/c2cc(O)cc(O)c2)ccc1O)c1ccc(-c2c3nc(c(-c4c(F)c(F)c(F)c(F)c4F)c4ccc([nH]4)c(-c4c(F)c(F)c(F)c(F)c4F)c4nc(c(-c5c(F)c(F)c(F)c(F)c5F)c5ccc2[nH]5)C=C4)C=C3)cc1
REMARK SMILES IDX 7 1 6 4 5 7 4 10 3 13 1 14 2 15 30 17 31 18 92 19 32 20
REMARK SMILES IDX 91 22 33 24 34 27 35 28 85 29 36 30 90 31 84 32 86 33 37 34
REMARK SMILES IDX 89 35 83 37 82 39 38 41 70 44 50 45 69 46 51 47 54 48 68 49
REMARK SMILES IDX 87 50 52 51 53 53 67 55 88 56 55 59 39 61 40 62 48 63 41 64
REMARK SMILES IDX 42 65 46 66 49 67 43 68 44 69 47 70 45 71 71 72 72 73 80 74
REMARK SMILES IDX 73 75 74 76 78 77 81 78 75 79 76 80 79 81 77 82 56 83 57 84
REMARK SMILES IDX 65 85 58 86 59 87 63 88 66 89 60 90 61 91 64 92 62 93 8 94
REMARK SMILES IDX 9 97 10 100 11 101 12 103 13 104 14 105 28 106 15 107 27 109
REMARK SMILES IDX 26 110 29 113 16 115 17 116 18 119 19 120 25 121 20 122
REMARK SMILES IDX 23 124 22 126 21 128 24 130
REMARK H PARENT 7 2 7 3 6 5 6 6 5 8 5 9 4 11 4 12 3 16 31 21 92 23 32 25 91 26
REMARK H PARENT 90 36 84 38 86 40 89 42 83 43 51 52 54 54 87 57 52 58 88 60
REMARK H PARENT 8 95 8 96 9 98 9 99 10 102 14 108 27 111 26 112 29 114 16 117
REMARK H PARENT 17 118 19 123 25 125 22 127 21 129 24 131
REMARK Flexibility Score: inf
ROOT
ATOM      1  C   UNL A   1      33.564  27.174  26.327  1.00  0.00    -0.052 C 
ATOM      2  H   UNL A   1      33.717  26.417  27.067  1.00  0.00     0.027 H 
ATOM      3  H   UNL A   1      34.065  28.095  26.545  1.00  0.00     0.027 H 
ENDROOT
BRANCH   1   4
ATOM      4  C   UNL A   1      32.069  27.505  26.292  1.00  0.00    -0.052 C 
ATOM      5  H   UNL A   1      31.618  26.923  25.516  1.00  0.00     0.027 H 
ATOM      6  H   UNL A   1      31.690  27.280  27.268  1.00  0.00     0.027 H 
BRANCH   4   7
ATOM      7  C   UNL A   1      31.736  28.974  26.035  1.00  0.00    -0.036 C 
ATOM      8  H   UNL A   1      31.199  29.039  25.112  1.00  0.00     0.028 H 
ATOM      9  H   UNL A   1      31.163  29.309  26.875  1.00  0.00     0.028 H 
BRANCH   7  10
ATOM     10  C   UNL A   1      32.948  29.888  25.945  1.00  0.00     0.018 C 
ATOM     11  H   UNL A   1      33.719  29.501  26.579  1.00  0.00     0.049 H 
ATOM     12  H   UNL A   1      33.261  29.918  24.923  1.00  0.00     0.049 H 
BRANCH  10  13
ATOM     13  N   UNL A   1      32.644  31.248  26.357  1.00  0.00    -0.352 N 
ATOM     14  O   UNL A   1      32.795  33.084  27.669  1.00  0.00    -0.269 OA
ATOM     15  C   UNL A   1      33.276  32.015  27.302  1.00  0.00     0.251 C 
ATOM     16  H   UNL A   1      31.886  31.675  25.896  1.00  0.00     0.163 HD
BRANCH  15  17
ATOM     17  C   UNL A   1      34.545  31.537  27.887  1.00  0.00     0.039 A 
ATOM     18  C   UNL A   1      35.620  32.417  28.050  1.00  0.00    -0.049 A 
ATOM     19  C   UNL A   1      34.655  30.204  28.290  1.00  0.00    -0.049 A 
ATOM     20  C   UNL A   1      36.836  31.942  28.519  1.00  0.00    -0.053 A 
ATOM     21  H   UNL A   1      35.507  33.417  27.821  1.00  0.00     0.063 H 
ATOM     22  C   UNL A   1      35.852  29.749  28.848  1.00  0.00    -0.053 A 
ATOM     23  H   UNL A   1      33.857  29.560  28.178  1.00  0.00     0.063 H 
ATOM     24  C   UNL A   1      36.950  30.615  28.965  1.00  0.00    -0.014 A 
ATOM     25  H   UNL A   1      37.658  32.566  28.542  1.00  0.00     0.063 H 
ATOM     26  H   UNL A   1      35.930  28.772  29.174  1.00  0.00     0.063 H 
BRANCH  24  27
ATOM     27  C   UNL A   1      38.176  30.205  29.691  1.00  0.00     0.031 A 
ATOM     28  C   UNL A   1      39.147  29.225  29.105  1.00  0.00     0.074 A 
ATOM     29  C   UNL A   1      38.383  30.731  30.915  1.00  0.00     0.049 A 
ATOM     30  N   UNL A   1      40.243  28.741  29.635  1.00  0.00    -0.248 NA
ATOM     31  C   UNL A   1      38.857  28.715  27.757  1.00  0.00    -0.034 C 
ATOM     32  C   UNL A   1      37.486  31.677  31.585  1.00  0.00    -0.036 A 
ATOM     33  N   UNL A   1      39.402  30.551  31.814  1.00  0.00    -0.354 N 
ATOM     34  C   UNL A   1      40.761  27.858  28.698  1.00  0.00     0.074 A 
ATOM     35  C   UNL A   1      39.856  27.860  27.569  1.00  0.00    -0.034 C 
ATOM     36  H   UNL A   1      38.080  28.957  27.123  1.00  0.00     0.065 H 
ATOM     37  C   UNL A   1      38.003  32.011  32.775  1.00  0.00    -0.036 A 
ATOM     38  H   UNL A   1      36.595  32.031  31.201  1.00  0.00     0.065 H 
ATOM     39  C   UNL A   1      39.225  31.247  32.985  1.00  0.00     0.049 A 
ATOM     40  H   UNL A   1      40.184  29.979  31.638  1.00  0.00     0.167 HD
ATOM     41  C   UNL A   1      41.891  27.116  28.786  1.00  0.00     0.037 A 
ATOM     42  H   UNL A   1      39.972  27.275  26.727  1.00  0.00     0.065 H 
ATOM     43  H   UNL A   1      37.602  32.697  33.434  1.00  0.00     0.065 H 
ATOM     44  C   UNL A   1      39.942  31.238  34.124  1.00  0.00     0.037 A 
ATOM     45  C   UNL A   1      42.790  27.140  29.913  1.00  0.00     0.049 A 
ATOM     46  C   UNL A   1      41.166  30.370  34.196  1.00  0.00     0.074 A 
ATOM     47  C   UNL A   1      44.003  26.488  30.060  1.00  0.00    -0.036 A 
ATOM     48  N   UNL A   1      42.568  27.838  31.091  1.00  0.00    -0.354 N 
ATOM     49  N   UNL A   1      41.690  29.603  33.273  1.00  0.00    -0.248 NA
ATOM     50  C   UNL A   1      41.893  30.361  35.472  1.00  0.00    -0.034 C 
ATOM     51  C   UNL A   1      44.478  26.733  31.352  1.00  0.00    -0.036 A 
ATOM     52  H   UNL A   1      44.474  25.918  29.340  1.00  0.00     0.065 H 
ATOM     53  C   UNL A   1      43.594  27.589  31.988  1.00  0.00     0.049 A 
ATOM     54  H   UNL A   1      41.795  28.423  31.264  1.00  0.00     0.167 HD
ATOM     55  C   UNL A   1      42.811  29.028  33.850  1.00  0.00     0.074 A 
ATOM     56  C   UNL A   1      42.912  29.562  35.192  1.00  0.00    -0.034 C 
ATOM     57  H   UNL A   1      41.670  30.848  36.355  1.00  0.00     0.065 H 
ATOM     58  H   UNL A   1      45.341  26.342  31.761  1.00  0.00     0.065 H 
ATOM     59  C   UNL A   1      43.675  28.127  33.321  1.00  0.00     0.037 A 
ATOM     60  H   UNL A   1      43.681  29.350  35.846  1.00  0.00     0.065 H 
BRANCH  41  61
ATOM     61  C   UNL A   1      42.232  26.191  27.654  1.00  0.00     0.064 A 
ATOM     62  C   UNL A   1      43.183  26.530  26.682  1.00  0.00     0.173 A 
ATOM     63  C   UNL A   1      41.681  24.900  27.611  1.00  0.00     0.173 A 
ATOM     64  F   UNL A   1      43.736  27.752  26.675  1.00  0.00    -0.203 F 
ATOM     65  C   UNL A   1      43.569  25.611  25.708  1.00  0.00     0.198 A 
ATOM     66  C   UNL A   1      42.087  23.976  26.653  1.00  0.00     0.198 A 
ATOM     67  F   UNL A   1      40.772  24.523  28.524  1.00  0.00    -0.203 F 
ATOM     68  F   UNL A   1      44.469  25.961  24.778  1.00  0.00    -0.200 F 
ATOM     69  C   UNL A   1      43.031  24.332  25.702  1.00  0.00     0.200 A 
ATOM     70  F   UNL A   1      41.578  22.736  26.659  1.00  0.00    -0.200 F 
ATOM     71  F   UNL A   1      43.423  23.442  24.780  1.00  0.00    -0.200 F 
ENDBRANCH  41  61
BRANCH  44  72
ATOM     72  C   UNL A   1      39.490  32.030  35.297  1.00  0.00     0.064 A 
ATOM     73  C   UNL A   1      38.634  31.479  36.260  1.00  0.00     0.173 A 
ATOM     74  C   UNL A   1      39.883  33.367  35.466  1.00  0.00     0.173 A 
ATOM     75  F   UNL A   1      38.216  30.210  36.136  1.00  0.00    -0.203 F 
ATOM     76  C   UNL A   1      38.161  32.243  37.324  1.00  0.00     0.198 A 
ATOM     77  C   UNL A   1      39.443  34.118  36.551  1.00  0.00     0.198 A 
ATOM     78  F   UNL A   1      40.707  33.943  34.578  1.00  0.00    -0.203 F 
ATOM     79  F   UNL A   1      37.291  31.711  38.193  1.00  0.00    -0.200 F 
ATOM     80  C   UNL A   1      38.569  33.560  37.471  1.00  0.00     0.200 A 
ATOM     81  F   UNL A   1      39.857  35.384  36.700  1.00  0.00    -0.200 F 
ATOM     82  F   UNL A   1      38.112  34.296  38.494  1.00  0.00    -0.200 F 
ENDBRANCH  44  72
BRANCH  59  83
ATOM     83  C   UNL A   1      44.806  27.673  34.196  1.00  0.00     0.064 A 
ATOM     84  C   UNL A   1      44.699  26.521  34.991  1.00  0.00     0.173 A 
ATOM     85  C   UNL A   1      46.020  28.376  34.216  1.00  0.00     0.173 A 
ATOM     86  F   UNL A   1      43.551  25.827  35.022  1.00  0.00    -0.203 F 
ATOM     87  C   UNL A   1      45.758  26.103  35.791  1.00  0.00     0.198 A 
ATOM     88  C   UNL A   1      47.089  27.935  34.991  1.00  0.00     0.198 A 
ATOM     89  F   UNL A   1      46.175  29.481  33.472  1.00  0.00    -0.203 F 
ATOM     90  F   UNL A   1      45.616  25.030  36.580  1.00  0.00    -0.200 F 
ATOM     91  C   UNL A   1      46.955  26.805  35.783  1.00  0.00     0.200 A 
ATOM     92  F   UNL A   1      48.249  28.605  34.970  1.00  0.00    -0.200 F 
ATOM     93  F   UNL A   1      47.978  26.395  36.545  1.00  0.00    -0.200 F 
ENDBRANCH  59  83
ENDBRANCH  24  27
ENDBRANCH  15  17
ENDBRANCH  10  13
ENDBRANCH   7  10
ENDBRANCH   4   7
ENDBRANCH   1   4
BRANCH   1  94
ATOM     94  C   UNL A   1      34.156  26.674  25.006  1.00  0.00    -0.036 C 
ATOM     95  H   UNL A   1      35.115  27.133  24.877  1.00  0.00     0.028 H 
ATOM     96  H   UNL A   1      33.455  26.939  24.243  1.00  0.00     0.028 H 
BRANCH  94  97
ATOM     97  C   UNL A   1      34.338  25.163  24.917  1.00  0.00     0.018 C 
ATOM     98  H   UNL A   1      33.567  24.687  25.487  1.00  0.00     0.049 H 
ATOM     99  H   UNL A   1      35.308  24.923  25.301  1.00  0.00     0.049 H 
BRANCH  97 100
ATOM    100  N   UNL A   1      34.269  24.686  23.550  1.00  0.00    -0.352 N 
ATOM    101  C   UNL A   1      33.195  24.701  22.698  1.00  0.00     0.255 C 
ATOM    102  H   UNL A   1      35.099  24.303  23.187  1.00  0.00     0.163 HD
ATOM    103  O   UNL A   1      33.275  24.170  21.593  1.00  0.00    -0.269 OA
BRANCH 101 104
ATOM    104  C   UNL A   1      31.908  25.270  23.143  1.00  0.00     0.082 A 
ATOM    105  C   UNL A   1      31.562  26.525  22.624  1.00  0.00    -0.038 A 
ATOM    106  C   UNL A   1      31.061  24.624  24.045  1.00  0.00     0.128 A 
ATOM    107  C   UNL A   1      30.348  27.131  22.965  1.00  0.00    -0.025 A 
ATOM    108  H   UNL A   1      32.211  27.009  21.983  1.00  0.00     0.064 H 
ATOM    109  C   UNL A   1      29.844  25.207  24.387  1.00  0.00    -0.019 A 
ATOM    110  C   UNL A   1      29.491  26.448  23.844  1.00  0.00    -0.051 A 
ATOM    111  H   UNL A   1      29.205  24.726  25.040  1.00  0.00     0.066 H 
ATOM    112  H   UNL A   1      28.582  26.868  24.093  1.00  0.00     0.063 H 
BRANCH 106 113
ATOM    113  O   UNL A   1      31.408  23.419  24.588  1.00  0.00    -0.507 OA
ATOM    114  H   UNL A   1      31.102  23.185  25.442  1.00  0.00     0.293 HD
ENDBRANCH 106 113
BRANCH 107 115
ATOM    115  C   UNL A   1      29.929  28.450  22.456  1.00  0.00    -0.054 C 
ATOM    116  C   UNL A   1      29.093  29.301  23.073  1.00  0.00    -0.054 C 
ATOM    117  H   UNL A   1      30.314  28.745  21.545  1.00  0.00     0.063 H 
ATOM    118  H   UNL A   1      28.716  29.037  23.997  1.00  0.00     0.063 H 
BRANCH 116 119
ATOM    119  C   UNL A   1      28.689  30.591  22.496  1.00  0.00    -0.018 A 
ATOM    120  C   UNL A   1      28.878  31.794  23.189  1.00  0.00    -0.013 A 
ATOM    121  C   UNL A   1      28.171  30.620  21.194  1.00  0.00    -0.013 A 
ATOM    122  C   UNL A   1      28.529  33.001  22.588  1.00  0.00     0.119 A 
ATOM    123  H   UNL A   1      29.274  31.786  24.142  1.00  0.00     0.067 H 
ATOM    124  C   UNL A   1      27.827  31.839  20.614  1.00  0.00     0.119 A 
ATOM    125  H   UNL A   1      28.045  29.742  20.667  1.00  0.00     0.067 H 
ATOM    126  C   UNL A   1      27.999  33.032  21.304  1.00  0.00     0.022 A 
ATOM    127  H   UNL A   1      27.737  33.931  20.869  1.00  0.00     0.070 H 
BRANCH 122 128
ATOM    128  O   UNL A   1      28.704  34.191  23.234  1.00  0.00    -0.508 OA
ATOM    129  H   UNL A   1      29.537  34.619  23.210  1.00  0.00     0.293 HD
ENDBRANCH 122 128
BRANCH 124 130
ATOM    130  O   UNL A   1      27.316  31.902  19.350  1.00  0.00    -0.508 OA
ATOM    131  H   UNL A   1      26.636  31.313  19.090  1.00  0.00     0.293 HD
ENDBRANCH 124 130
ENDBRANCH 116 119
ENDBRANCH 107 115
ENDBRANCH 101 104
ENDBRANCH  97 100
ENDBRANCH  94  97
ENDBRANCH   1  94
TORSDOF 18
ENDMDL
