MODEL 1
REMARK VINA RESULT:     -13.1      0.000      0.000
REMARK SMILES O=C(NCCCCCCNC(=O)[C@@H]1CCn2c(C(=O)c3ccccc3)ccc21)c1ccc(-c2c3nc(c(-c4c(F)c(F)c(F)c(F)c4F)c4ccc([nH]4)c(-c4c(F)c(F)c(F)c(F)c4F)c4nc(c(-c5c(F)c(F)c(F)c(F)c5F)c5ccc2[nH]5)C=C4)C=C3)cc1
REMARK SMILES IDX 6 1 5 4 4 7 3 10 1 11 2 12 29 14 30 15 91 16 31 17 90 19
REMARK SMILES IDX 32 21 33 24 34 25 84 26 35 27 89 28 83 29 85 30 36 31 88 32
REMARK SMILES IDX 82 34 81 36 37 38 69 41 49 42 68 43 50 44 53 45 67 46 86 47
REMARK SMILES IDX 51 48 52 50 66 52 87 53 54 56 38 58 39 59 47 60 40 61 41 62
REMARK SMILES IDX 45 63 48 64 42 65 43 66 46 67 44 68 70 69 71 70 79 71 72 72
REMARK SMILES IDX 73 73 77 74 80 75 74 76 75 77 78 78 76 79 55 80 56 81 64 82
REMARK SMILES IDX 57 83 58 84 62 85 65 86 59 87 60 88 63 89 61 90 7 91 8 94
REMARK SMILES IDX 9 97 10 100 11 101 12 103 13 104 14 105 28 106 15 108 16 111
REMARK SMILES IDX 27 112 17 115 26 116 18 119 19 120 20 121 21 122 25 123
REMARK SMILES IDX 22 124 24 126 23 128
REMARK H PARENT 6 2 6 3 5 5 5 6 4 8 4 9 3 13 30 18 91 20 31 22 90 23 89 33
REMARK H PARENT 83 35 85 37 88 39 82 40 50 49 53 51 86 54 51 55 87 57 7 92
REMARK H PARENT 7 93 8 95 8 96 9 98 9 99 10 102 13 107 14 109 14 110 15 113
REMARK H PARENT 15 114 27 117 26 118 21 125 25 127 22 129 24 130 23 131
REMARK Flexibility Score: inf
ROOT
ATOM      1  C   UNL A   1      31.467  30.804  26.096  1.00  0.00    -0.052 C 
ATOM      2  H   UNL A   1      31.875  30.763  25.107  1.00  0.00     0.027 H 
ATOM      3  H   UNL A   1      30.481  30.395  26.162  1.00  0.00     0.027 H 
ENDROOT
BRANCH   1   4
ATOM      4  C   UNL A   1      31.351  32.273  26.500  1.00  0.00    -0.036 C 
ATOM      5  H   UNL A   1      31.207  32.855  25.614  1.00  0.00     0.028 H 
ATOM      6  H   UNL A   1      30.527  32.341  27.180  1.00  0.00     0.028 H 
BRANCH   4   7
ATOM      7  C   UNL A   1      32.569  32.814  27.234  1.00  0.00     0.018 C 
ATOM      8  H   UNL A   1      32.734  32.224  28.112  1.00  0.00     0.049 H 
ATOM      9  H   UNL A   1      33.406  32.760  26.569  1.00  0.00     0.049 H 
BRANCH   7  10
ATOM     10  N   UNL A   1      32.398  34.202  27.627  1.00  0.00    -0.352 N 
ATOM     11  O   UNL A   1      32.642  36.008  28.965  1.00  0.00    -0.269 OA
ATOM     12  C   UNL A   1      33.035  34.896  28.624  1.00  0.00     0.251 C 
ATOM     13  H   UNL A   1      31.736  34.714  27.109  1.00  0.00     0.163 HD
BRANCH  12  14
ATOM     14  C   UNL A   1      34.198  34.285  29.297  1.00  0.00     0.039 A 
ATOM     15  C   UNL A   1      34.012  33.451  30.404  1.00  0.00    -0.049 A 
ATOM     16  C   UNL A   1      35.483  34.540  28.813  1.00  0.00    -0.049 A 
ATOM     17  C   UNL A   1      35.114  32.968  31.098  1.00  0.00    -0.053 A 
ATOM     18  H   UNL A   1      33.058  33.196  30.704  1.00  0.00     0.063 H 
ATOM     19  C   UNL A   1      36.587  33.978  29.457  1.00  0.00    -0.053 A 
ATOM     20  H   UNL A   1      35.616  35.140  27.985  1.00  0.00     0.063 H 
ATOM     21  C   UNL A   1      36.410  33.197  30.612  1.00  0.00    -0.014 A 
ATOM     22  H   UNL A   1      34.978  32.437  31.973  1.00  0.00     0.063 H 
ATOM     23  H   UNL A   1      37.536  34.137  29.085  1.00  0.00     0.063 H 
BRANCH  21  24
ATOM     24  C   UNL A   1      37.558  32.515  31.256  1.00  0.00     0.031 A 
ATOM     25  C   UNL A   1      38.265  31.374  30.586  1.00  0.00     0.074 A 
ATOM     26  C   UNL A   1      37.946  32.940  32.474  1.00  0.00     0.049 A 
ATOM     27  N   UNL A   1      39.257  30.646  31.034  1.00  0.00    -0.248 NA
ATOM     28  C   UNL A   1      37.797  30.991  29.247  1.00  0.00    -0.034 C 
ATOM     29  C   UNL A   1      37.318  34.034  33.222  1.00  0.00    -0.036 A 
ATOM     30  N   UNL A   1      38.952  32.511  33.300  1.00  0.00    -0.354 N 
ATOM     31  C   UNL A   1      39.518  29.708  30.045  1.00  0.00     0.074 A 
ATOM     32  C   UNL A   1      38.569  29.946  28.978  1.00  0.00    -0.034 C 
ATOM     33  H   UNL A   1      37.060  31.423  28.667  1.00  0.00     0.065 H 
ATOM     34  C   UNL A   1      37.965  34.206  34.381  1.00  0.00    -0.036 A 
ATOM     35  H   UNL A   1      36.505  34.585  32.904  1.00  0.00     0.065 H 
ATOM     36  C   UNL A   1      39.004  33.189  34.495  1.00  0.00     0.049 A 
ATOM     37  H   UNL A   1      39.576  31.789  33.063  1.00  0.00     0.167 HD
ATOM     38  C   UNL A   1      40.467  28.741  30.036  1.00  0.00     0.037 A 
ATOM     39  H   UNL A   1      38.501  29.376  28.120  1.00  0.00     0.065 H 
ATOM     40  H   UNL A   1      37.763  34.937  35.080  1.00  0.00     0.065 H 
ATOM     41  C   UNL A   1      39.774  32.990  35.578  1.00  0.00     0.037 A 
ATOM     42  C   UNL A   1      41.413  28.526  31.103  1.00  0.00     0.049 A 
ATOM     43  C   UNL A   1      40.785  31.880  35.554  1.00  0.00     0.074 A 
ATOM     44  C   UNL A   1      42.456  27.618  31.159  1.00  0.00    -0.036 A 
ATOM     45  N   UNL A   1      41.421  29.217  32.306  1.00  0.00    -0.354 N 
ATOM     46  N   UNL A   1      41.068  31.043  34.585  1.00  0.00    -0.248 NA
ATOM     47  C   UNL A   1      41.581  31.682  36.772  1.00  0.00    -0.034 C 
ATOM     48  C   UNL A   1      43.050  27.710  32.421  1.00  0.00    -0.036 A 
ATOM     49  H   UNL A   1      42.745  26.982  30.399  1.00  0.00     0.065 H 
ATOM     50  C   UNL A   1      42.422  28.722  33.129  1.00  0.00     0.049 A 
ATOM     51  H   UNL A   1      40.807  29.950  32.542  1.00  0.00     0.167 HD
ATOM     52  C   UNL A   1      42.084  30.231  35.069  1.00  0.00     0.074 A 
ATOM     53  C   UNL A   1      42.385  30.694  36.408  1.00  0.00    -0.034 C 
ATOM     54  H   UNL A   1      41.527  32.182  37.673  1.00  0.00     0.065 H 
ATOM     55  H   UNL A   1      43.825  27.123  32.767  1.00  0.00     0.065 H 
ATOM     56  C   UNL A   1      42.708  29.194  34.460  1.00  0.00     0.037 A 
ATOM     57  H   UNL A   1      43.131  30.303  37.004  1.00  0.00     0.065 H 
BRANCH  38  58
ATOM     58  C   UNL A   1      40.524  27.815  28.855  1.00  0.00     0.064 A 
ATOM     59  C   UNL A   1      39.767  26.636  28.797  1.00  0.00     0.173 A 
ATOM     60  C   UNL A   1      41.292  28.154  27.729  1.00  0.00     0.173 A 
ATOM     61  F   UNL A   1      39.020  26.261  29.848  1.00  0.00    -0.203 F 
ATOM     62  C   UNL A   1      39.789  25.823  27.666  1.00  0.00     0.198 A 
ATOM     63  C   UNL A   1      41.290  27.354  26.589  1.00  0.00     0.198 A 
ATOM     64  F   UNL A   1      42.030  29.275  27.727  1.00  0.00    -0.203 F 
ATOM     65  F   UNL A   1      39.083  24.683  27.648  1.00  0.00    -0.200 F 
ATOM     66  C   UNL A   1      40.542  26.187  26.560  1.00  0.00     0.200 A 
ATOM     67  F   UNL A   1      42.006  27.718  25.516  1.00  0.00    -0.200 F 
ATOM     68  F   UNL A   1      40.549  25.413  25.467  1.00  0.00    -0.200 F 
ENDBRANCH  38  58
BRANCH  41  69
ATOM     69  C   UNL A   1      39.588  33.836  36.786  1.00  0.00     0.064 A 
ATOM     70  C   UNL A   1      40.226  35.078  36.906  1.00  0.00     0.173 A 
ATOM     71  C   UNL A   1      38.769  33.418  37.847  1.00  0.00     0.173 A 
ATOM     72  F   UNL A   1      41.031  35.514  35.926  1.00  0.00    -0.203 F 
ATOM     73  C   UNL A   1      40.074  35.856  38.052  1.00  0.00     0.198 A 
ATOM     74  C   UNL A   1      38.589  34.213  38.975  1.00  0.00     0.198 A 
ATOM     75  F   UNL A   1      38.129  32.241  37.780  1.00  0.00    -0.203 F 
ATOM     76  F   UNL A   1      40.739  37.013  38.163  1.00  0.00    -0.200 F 
ATOM     77  C   UNL A   1      39.251  35.426  39.082  1.00  0.00     0.200 A 
ATOM     78  F   UNL A   1      37.776  33.803  39.959  1.00  0.00    -0.200 F 
ATOM     79  F   UNL A   1      39.103  36.178  40.181  1.00  0.00    -0.200 F 
ENDBRANCH  41  69
BRANCH  56  80
ATOM     80  C   UNL A   1      43.796  28.502  35.229  1.00  0.00     0.064 A 
ATOM     81  C   UNL A   1      45.129  28.932  35.165  1.00  0.00     0.173 A 
ATOM     82  C   UNL A   1      43.493  27.424  36.075  1.00  0.00     0.173 A 
ATOM     83  F   UNL A   1      45.473  29.946  34.357  1.00  0.00    -0.203 F 
ATOM     84  C   UNL A   1      46.122  28.294  35.903  1.00  0.00     0.198 A 
ATOM     85  C   UNL A   1      44.482  26.811  36.836  1.00  0.00     0.198 A 
ATOM     86  F   UNL A   1      42.232  26.977  36.174  1.00  0.00    -0.203 F 
ATOM     87  F   UNL A   1      47.398  28.691  35.790  1.00  0.00    -0.200 F 
ATOM     88  C   UNL A   1      45.797  27.241  36.746  1.00  0.00     0.200 A 
ATOM     89  F   UNL A   1      44.163  25.804  37.661  1.00  0.00    -0.200 F 
ATOM     90  F   UNL A   1      46.752  26.637  37.466  1.00  0.00    -0.200 F 
ENDBRANCH  56  80
ENDBRANCH  21  24
ENDBRANCH  12  14
ENDBRANCH   7  10
ENDBRANCH   4   7
ENDBRANCH   1   4
BRANCH   1  91
ATOM     91  C   UNL A   1      32.351  29.952  27.012  1.00  0.00    -0.052 C 
ATOM     92  H   UNL A   1      32.506  30.494  27.922  1.00  0.00     0.027 H 
ATOM     93  H   UNL A   1      33.254  29.768  26.468  1.00  0.00     0.027 H 
BRANCH  91  94
ATOM     94  C   UNL A   1      31.777  28.576  27.369  1.00  0.00    -0.036 C 
ATOM     95  H   UNL A   1      30.784  28.713  27.744  1.00  0.00     0.028 H 
ATOM     96  H   UNL A   1      32.436  28.146  28.095  1.00  0.00     0.028 H 
BRANCH  94  97
ATOM     97  C   UNL A   1      31.717  27.600  26.197  1.00  0.00     0.017 C 
ATOM     98  H   UNL A   1      32.712  27.383  25.871  1.00  0.00     0.049 H 
ATOM     99  H   UNL A   1      31.154  28.049  25.406  1.00  0.00     0.049 H 
BRANCH  97 100
ATOM    100  N   UNL A   1      31.065  26.366  26.585  1.00  0.00    -0.356 N 
ATOM    101  C   UNL A   1      31.499  25.077  26.500  1.00  0.00     0.229 C 
ATOM    102  H   UNL A   1      30.166  26.476  26.970  1.00  0.00     0.163 HD
ATOM    103  O   UNL A   1      30.688  24.185  26.755  1.00  0.00    -0.274 OA
BRANCH 101 104
ATOM    104  C   UNL A   1      32.936  24.798  26.087  1.00  0.00     0.080 C 
ATOM    105  C   UNL A   1      33.070  24.707  24.551  1.00  0.00    -0.018 C 
ATOM    106  C   UNL A   1      33.383  23.450  26.521  1.00  0.00     0.031 A 
ATOM    107  H   UNL A   1      33.501  25.596  26.522  1.00  0.00     0.047 H 
ATOM    108  C   UNL A   1      34.075  23.574  24.290  1.00  0.00     0.024 C 
ATOM    109  H   UNL A   1      33.437  25.630  24.152  1.00  0.00     0.030 H 
ATOM    110  H   UNL A   1      32.128  24.517  24.080  1.00  0.00     0.030 H 
ATOM    111  N   UNL A   1      34.034  22.793  25.516  1.00  0.00    -0.341 N 
ATOM    112  C   UNL A   1      33.346  22.643  27.623  1.00  0.00    -0.040 A 
ATOM    113  H   UNL A   1      35.055  23.964  24.118  1.00  0.00     0.050 H 
ATOM    114  H   UNL A   1      33.835  22.996  23.422  1.00  0.00     0.050 H 
ATOM    115  C   UNL A   1      34.472  21.570  25.923  1.00  0.00     0.090 A 
ATOM    116  C   UNL A   1      34.027  21.457  27.244  1.00  0.00    -0.033 A 
ATOM    117  H   UNL A   1      32.914  22.853  28.537  1.00  0.00     0.064 H 
ATOM    118  H   UNL A   1      34.170  20.634  27.851  1.00  0.00     0.065 H 
BRANCH 115 119
ATOM    119  C   UNL A   1      35.193  20.540  25.192  1.00  0.00     0.209 C 
ATOM    120  O   UNL A   1      36.411  20.574  25.020  1.00  0.00    -0.287 OA
BRANCH 119 121
ATOM    121  C   UNL A   1      34.490  19.370  24.628  1.00  0.00     0.024 A 
ATOM    122  C   UNL A   1      33.172  19.536  24.190  1.00  0.00    -0.051 A 
ATOM    123  C   UNL A   1      35.096  18.111  24.580  1.00  0.00    -0.051 A 
ATOM    124  C   UNL A   1      32.479  18.453  23.654  1.00  0.00    -0.062 A 
ATOM    125  H   UNL A   1      32.715  20.458  24.263  1.00  0.00     0.063 H 
ATOM    126  C   UNL A   1      34.403  17.032  24.030  1.00  0.00    -0.062 A 
ATOM    127  H   UNL A   1      36.052  17.981  24.949  1.00  0.00     0.063 H 
ATOM    128  C   UNL A   1      33.098  17.206  23.564  1.00  0.00    -0.062 A 
ATOM    129  H   UNL A   1      31.508  18.572  23.324  1.00  0.00     0.062 H 
ATOM    130  H   UNL A   1      34.854  16.107  23.967  1.00  0.00     0.062 H 
ATOM    131  H   UNL A   1      32.590  16.407  23.151  1.00  0.00     0.062 H 
ENDBRANCH 119 121
ENDBRANCH 115 119
ENDBRANCH 101 104
ENDBRANCH  97 100
ENDBRANCH  94  97
ENDBRANCH  91  94
ENDBRANCH   1  91
TORSDOF 15
ENDMDL
MODEL 2
REMARK VINA RESULT:     -13.1      0.215      1.589
REMARK SMILES O=C(NCCCCCCNC(=O)[C@@H]1CCn2c(C(=O)c3ccccc3)ccc21)c1ccc(-c2c3nc(c(-c4c(F)c(F)c(F)c(F)c4F)c4ccc([nH]4)c(-c4c(F)c(F)c(F)c(F)c4F)c4nc(c(-c5c(F)c(F)c(F)c(F)c5F)c5ccc2[nH]5)C=C4)C=C3)cc1
REMARK SMILES IDX 6 1 5 4 4 7 3 10 1 11 2 12 29 14 30 15 91 16 31 17 90 19
REMARK SMILES IDX 32 21 33 24 34 25 84 26 35 27 89 28 83 29 85 30 36 31 88 32
REMARK SMILES IDX 82 34 81 36 37 38 69 41 49 42 68 43 50 44 53 45 67 46 86 47
REMARK SMILES IDX 51 48 52 50 66 52 87 53 54 56 38 58 39 59 47 60 40 61 41 62
REMARK SMILES IDX 45 63 48 64 42 65 43 66 46 67 44 68 70 69 71 70 79 71 72 72
REMARK SMILES IDX 73 73 77 74 80 75 74 76 75 77 78 78 76 79 55 80 56 81 64 82
REMARK SMILES IDX 57 83 58 84 62 85 65 86 59 87 60 88 63 89 61 90 7 91 8 94
REMARK SMILES IDX 9 97 10 100 11 101 12 103 13 104 14 105 28 106 15 108 16 111
REMARK SMILES IDX 27 112 17 115 26 116 18 119 19 120 20 121 21 122 25 123
REMARK SMILES IDX 22 124 24 126 23 128
REMARK H PARENT 6 2 6 3 5 5 5 6 4 8 4 9 3 13 30 18 91 20 31 22 90 23 89 33
REMARK H PARENT 83 35 85 37 88 39 82 40 50 49 53 51 86 54 51 55 87 57 7 92
REMARK H PARENT 7 93 8 95 8 96 9 98 9 99 10 102 13 107 14 109 14 110 15 113
REMARK H PARENT 15 114 27 117 26 118 21 125 25 127 22 129 24 130 23 131
REMARK Flexibility Score: inf
ROOT
ATOM      1  C   UNL A   1      31.476  30.775  26.139  1.00  0.00    -0.052 C 
ATOM      2  H   UNL A   1      31.931  30.727  25.171  1.00  0.00     0.027 H 
ATOM      3  H   UNL A   1      30.486  30.369  26.161  1.00  0.00     0.027 H 
ENDROOT
BRANCH   1   4
ATOM      4  C   UNL A   1      31.346  32.247  26.529  1.00  0.00    -0.036 C 
ATOM      5  H   UNL A   1      31.191  32.818  25.638  1.00  0.00     0.028 H 
ATOM      6  H   UNL A   1      30.525  32.313  27.212  1.00  0.00     0.028 H 
BRANCH   4   7
ATOM      7  C   UNL A   1      32.562  32.809  27.251  1.00  0.00     0.018 C 
ATOM      8  H   UNL A   1      32.745  32.221  28.126  1.00  0.00     0.049 H 
ATOM      9  H   UNL A   1      33.392  32.771  26.578  1.00  0.00     0.049 H 
BRANCH   7  10
ATOM     10  N   UNL A   1      32.370  34.193  27.648  1.00  0.00    -0.352 N 
ATOM     11  O   UNL A   1      32.597  36.002  28.983  1.00  0.00    -0.269 OA
ATOM     12  C   UNL A   1      33.007  34.899  28.636  1.00  0.00     0.251 C 
ATOM     13  H   UNL A   1      31.690  34.692  27.139  1.00  0.00     0.163 HD
BRANCH  12  14
ATOM     14  C   UNL A   1      34.192  34.310  29.293  1.00  0.00     0.039 A 
ATOM     15  C   UNL A   1      34.041  33.521  30.438  1.00  0.00    -0.049 A 
ATOM     16  C   UNL A   1      35.459  34.540  28.754  1.00  0.00    -0.049 A 
ATOM     17  C   UNL A   1      35.165  33.061  31.111  1.00  0.00    -0.053 A 
ATOM     18  H   UNL A   1      33.098  33.282  30.781  1.00  0.00     0.063 H 
ATOM     19  C   UNL A   1      36.584  33.998  29.381  1.00  0.00    -0.053 A 
ATOM     20  H   UNL A   1      35.564  35.105  27.898  1.00  0.00     0.063 H 
ATOM     21  C   UNL A   1      36.445  33.265  30.571  1.00  0.00    -0.014 A 
ATOM     22  H   UNL A   1      35.059  32.567  32.011  1.00  0.00     0.063 H 
ATOM     23  H   UNL A   1      37.519  34.139  28.970  1.00  0.00     0.063 H 
BRANCH  21  24
ATOM     24  C   UNL A   1      37.612  32.604  31.201  1.00  0.00     0.031 A 
ATOM     25  C   UNL A   1      38.339  31.484  30.518  1.00  0.00     0.074 A 
ATOM     26  C   UNL A   1      38.000  33.029  32.420  1.00  0.00     0.049 A 
ATOM     27  N   UNL A   1      39.350  30.775  30.952  1.00  0.00    -0.248 NA
ATOM     28  C   UNL A   1      37.869  31.100  29.180  1.00  0.00    -0.034 C 
ATOM     29  C   UNL A   1      37.354  34.103  33.180  1.00  0.00    -0.036 A 
ATOM     30  N   UNL A   1      39.022  32.616  33.235  1.00  0.00    -0.354 N 
ATOM     31  C   UNL A   1      39.624  29.849  29.955  1.00  0.00     0.074 A 
ATOM     32  C   UNL A   1      38.662  30.074  28.897  1.00  0.00    -0.034 C 
ATOM     33  H   UNL A   1      37.118  31.519  28.608  1.00  0.00     0.065 H 
ATOM     34  C   UNL A   1      38.007  34.281  34.336  1.00  0.00    -0.036 A 
ATOM     35  H   UNL A   1      36.527  34.638  32.873  1.00  0.00     0.065 H 
ATOM     36  C   UNL A   1      39.068  33.287  34.434  1.00  0.00     0.049 A 
ATOM     37  H   UNL A   1      39.660  31.910  32.987  1.00  0.00     0.167 HD
ATOM     38  C   UNL A   1      40.594  28.904  29.932  1.00  0.00     0.037 A 
ATOM     39  H   UNL A   1      38.600  29.509  28.035  1.00  0.00     0.065 H 
ATOM     40  H   UNL A   1      37.794  35.003  35.041  1.00  0.00     0.065 H 
ATOM     41  C   UNL A   1      39.851  33.097  35.510  1.00  0.00     0.037 A 
ATOM     42  C   UNL A   1      41.554  28.703  30.990  1.00  0.00     0.049 A 
ATOM     43  C   UNL A   1      40.886  32.010  35.470  1.00  0.00     0.074 A 
ATOM     44  C   UNL A   1      42.616  27.818  31.031  1.00  0.00    -0.036 A 
ATOM     45  N   UNL A   1      41.555  29.385  32.198  1.00  0.00    -0.354 N 
ATOM     46  N   UNL A   1      41.180  31.187  34.493  1.00  0.00    -0.248 NA
ATOM     47  C   UNL A   1      41.696  31.821  36.680  1.00  0.00    -0.034 C 
ATOM     48  C   UNL A   1      43.218  27.914  32.289  1.00  0.00    -0.036 A 
ATOM     49  H   UNL A   1      42.913  27.193  30.265  1.00  0.00     0.065 H 
ATOM     50  C   UNL A   1      42.574  28.907  33.009  1.00  0.00     0.049 A 
ATOM     51  H   UNL A   1      40.927  30.103  32.444  1.00  0.00     0.167 HD
ATOM     52  C   UNL A   1      42.217  30.394  34.962  1.00  0.00     0.074 A 
ATOM     53  C   UNL A   1      42.519  30.854  36.303  1.00  0.00    -0.034 C 
ATOM     54  H   UNL A   1      41.638  32.313  37.585  1.00  0.00     0.065 H 
ATOM     55  H   UNL A   1      44.009  27.342  32.625  1.00  0.00     0.065 H 
ATOM     56  C   UNL A   1      42.860  29.375  34.342  1.00  0.00     0.037 A 
ATOM     57  H   UNL A   1      43.277  30.475  36.890  1.00  0.00     0.065 H 
BRANCH  38  58
ATOM     58  C   UNL A   1      40.662  27.988  28.744  1.00  0.00     0.064 A 
ATOM     59  C   UNL A   1      39.931  26.793  28.683  1.00  0.00     0.173 A 
ATOM     60  C   UNL A   1      41.415  28.352  27.615  1.00  0.00     0.173 A 
ATOM     61  F   UNL A   1      39.201  26.395  29.736  1.00  0.00    -0.203 F 
ATOM     62  C   UNL A   1      39.963  25.989  27.546  1.00  0.00     0.198 A 
ATOM     63  C   UNL A   1      41.421  27.561  26.469  1.00  0.00     0.198 A 
ATOM     64  F   UNL A   1      42.127  29.489  27.615  1.00  0.00    -0.203 F 
ATOM     65  F   UNL A   1      39.282  24.834  27.525  1.00  0.00    -0.200 F 
ATOM     66  C   UNL A   1      40.699  26.378  26.437  1.00  0.00     0.200 A 
ATOM     67  F   UNL A   1      42.121  27.947  25.393  1.00  0.00    -0.200 F 
ATOM     68  F   UNL A   1      40.715  25.611  25.338  1.00  0.00    -0.200 F 
ENDBRANCH  38  58
BRANCH  41  69
ATOM     69  C   UNL A   1      39.656  33.930  36.725  1.00  0.00     0.064 A 
ATOM     70  C   UNL A   1      38.854  33.490  37.786  1.00  0.00     0.173 A 
ATOM     71  C   UNL A   1      40.267  35.189  36.849  1.00  0.00     0.173 A 
ATOM     72  F   UNL A   1      38.236  32.302  37.708  1.00  0.00    -0.203 F 
ATOM     73  C   UNL A   1      38.649  34.286  38.911  1.00  0.00     0.198 A 
ATOM     74  C   UNL A   1      40.091  35.967  37.989  1.00  0.00     0.198 A 
ATOM     75  F   UNL A   1      41.052  35.655  35.866  1.00  0.00    -0.203 F 
ATOM     76  F   UNL A   1      37.833  33.863  39.885  1.00  0.00    -0.200 F 
ATOM     77  C   UNL A   1      39.272  35.520  39.014  1.00  0.00     0.200 A 
ATOM     78  F   UNL A   1      40.713  37.149  38.094  1.00  0.00    -0.200 F 
ATOM     79  F   UNL A   1      39.077  36.282  40.099  1.00  0.00    -0.200 F 
ENDBRANCH  41  69
BRANCH  56  80
ATOM     80  C   UNL A   1      43.968  28.702  35.097  1.00  0.00     0.064 A 
ATOM     81  C   UNL A   1      43.724  27.614  35.946  1.00  0.00     0.173 A 
ATOM     82  C   UNL A   1      45.296  29.124  34.935  1.00  0.00     0.173 A 
ATOM     83  F   UNL A   1      42.469  27.185  36.151  1.00  0.00    -0.203 F 
ATOM     84  C   UNL A   1      44.767  26.985  36.622  1.00  0.00     0.198 A 
ATOM     85  C   UNL A   1      46.340  28.473  35.584  1.00  0.00     0.198 A 
ATOM     86  F   UNL A   1      45.584  30.159  34.130  1.00  0.00    -0.203 F 
ATOM     87  F   UNL A   1      44.505  25.977  37.466  1.00  0.00    -0.200 F 
ATOM     88  C   UNL A   1      46.074  27.408  36.433  1.00  0.00     0.200 A 
ATOM     89  F   UNL A   1      47.603  28.873  35.389  1.00  0.00    -0.200 F 
ATOM     90  F   UNL A   1      47.078  26.794  37.073  1.00  0.00    -0.200 F 
ENDBRANCH  56  80
ENDBRANCH  21  24
ENDBRANCH  12  14
ENDBRANCH   7  10
ENDBRANCH   4   7
ENDBRANCH   1   4
BRANCH   1  91
ATOM     91  C   UNL A   1      32.313  29.926  27.102  1.00  0.00    -0.052 C 
ATOM     92  H   UNL A   1      32.423  30.472  28.016  1.00  0.00     0.027 H 
ATOM     93  H   UNL A   1      33.241  29.738  26.604  1.00  0.00     0.027 H 
BRANCH  91  94
ATOM     94  C   UNL A   1      31.720  28.552  27.437  1.00  0.00    -0.036 C 
ATOM     95  H   UNL A   1      30.720  28.695  27.790  1.00  0.00     0.028 H 
ATOM     96  H   UNL A   1      32.359  28.112  28.173  1.00  0.00     0.028 H 
BRANCH  94  97
ATOM     97  C   UNL A   1      31.678  27.585  26.256  1.00  0.00     0.017 C 
ATOM     98  H   UNL A   1      32.677  27.363  25.949  1.00  0.00     0.049 H 
ATOM     99  H   UNL A   1      31.134  28.044  25.456  1.00  0.00     0.049 H 
BRANCH  97 100
ATOM    100  N   UNL A   1      31.009  26.353  26.621  1.00  0.00    -0.356 N 
ATOM    101  C   UNL A   1      31.433  25.062  26.533  1.00  0.00     0.229 C 
ATOM    102  H   UNL A   1      30.104  26.467  26.992  1.00  0.00     0.163 HD
ATOM    103  O   UNL A   1      30.612  24.174  26.765  1.00  0.00    -0.274 OA
BRANCH 101 104
ATOM    104  C   UNL A   1      32.875  24.775  26.142  1.00  0.00     0.080 C 
ATOM    105  C   UNL A   1      33.038  24.706  24.607  1.00  0.00    -0.018 C 
ATOM    106  C   UNL A   1      33.301  23.416  26.564  1.00  0.00     0.031 A 
ATOM    107  H   UNL A   1      33.440  25.559  26.601  1.00  0.00     0.047 H 
ATOM    108  C   UNL A   1      34.036  23.567  24.348  1.00  0.00     0.024 C 
ATOM    109  H   UNL A   1      33.421  25.632  24.231  1.00  0.00     0.030 H 
ATOM    110  H   UNL A   1      32.103  24.532  24.117  1.00  0.00     0.030 H 
ATOM    111  N   UNL A   1      33.964  22.768  25.561  1.00  0.00    -0.341 N 
ATOM    112  C   UNL A   1      33.235  22.592  27.652  1.00  0.00    -0.040 A 
ATOM    113  H   UNL A   1      35.024  23.950  24.201  1.00  0.00     0.050 H 
ATOM    114  H   UNL A   1      33.808  23.005  23.466  1.00  0.00     0.050 H 
ATOM    115  C   UNL A   1      34.382  21.534  25.956  1.00  0.00     0.090 A 
ATOM    116  C   UNL A   1      33.911  21.405  27.267  1.00  0.00    -0.033 A 
ATOM    117  H   UNL A   1      32.788  22.792  28.560  1.00  0.00     0.064 H 
ATOM    118  H   UNL A   1      34.035  20.572  27.864  1.00  0.00     0.065 H 
BRANCH 115 119
ATOM    119  C   UNL A   1      35.107  20.508  25.223  1.00  0.00     0.209 C 
ATOM    120  O   UNL A   1      36.335  20.498  25.129  1.00  0.00    -0.287 OA
BRANCH 119 121
ATOM    121  C   UNL A   1      34.395  19.396  24.561  1.00  0.00     0.024 A 
ATOM    122  C   UNL A   1      33.100  19.627  24.088  1.00  0.00    -0.051 A 
ATOM    123  C   UNL A   1      34.970  18.126  24.456  1.00  0.00    -0.051 A 
ATOM    124  C   UNL A   1      32.399  18.599  23.459  1.00  0.00    -0.062 A 
ATOM    125  H   UNL A   1      32.664  20.555  24.202  1.00  0.00     0.063 H 
ATOM    126  C   UNL A   1      34.270  17.103  23.814  1.00  0.00    -0.062 A 
ATOM    127  H   UNL A   1      35.907  17.946  24.850  1.00  0.00     0.063 H 
ATOM    128  C   UNL A   1      32.989  17.343  23.313  1.00  0.00    -0.062 A 
ATOM    129  H   UNL A   1      31.445  18.767  23.102  1.00  0.00     0.062 H 
ATOM    130  H   UNL A   1      34.699  16.171  23.709  1.00  0.00     0.062 H 
ATOM    131  H   UNL A   1      32.476  16.586  22.832  1.00  0.00     0.062 H 
ENDBRANCH 119 121
ENDBRANCH 115 119
ENDBRANCH 101 104
ENDBRANCH  97 100
ENDBRANCH  94  97
ENDBRANCH  91  94
ENDBRANCH   1  91
TORSDOF 15
ENDMDL
MODEL 3
REMARK VINA RESULT:     -13.0      2.654      4.616
REMARK SMILES O=C(NCCCCCCNC(=O)[C@@H]1CCn2c(C(=O)c3ccccc3)ccc21)c1ccc(-c2c3nc(c(-c4c(F)c(F)c(F)c(F)c4F)c4ccc([nH]4)c(-c4c(F)c(F)c(F)c(F)c4F)c4nc(c(-c5c(F)c(F)c(F)c(F)c5F)c5ccc2[nH]5)C=C4)C=C3)cc1
REMARK SMILES IDX 6 1 5 4 4 7 3 10 1 11 2 12 29 14 30 15 91 16 31 17 90 19
REMARK SMILES IDX 32 21 33 24 34 25 84 26 35 27 89 28 83 29 85 30 36 31 88 32
REMARK SMILES IDX 82 34 81 36 37 38 69 41 49 42 68 43 50 44 53 45 67 46 86 47
REMARK SMILES IDX 51 48 52 50 66 52 87 53 54 56 38 58 39 59 47 60 40 61 41 62
REMARK SMILES IDX 45 63 48 64 42 65 43 66 46 67 44 68 70 69 71 70 79 71 72 72
REMARK SMILES IDX 73 73 77 74 80 75 74 76 75 77 78 78 76 79 55 80 56 81 64 82
REMARK SMILES IDX 57 83 58 84 62 85 65 86 59 87 60 88 63 89 61 90 7 91 8 94
REMARK SMILES IDX 9 97 10 100 11 101 12 103 13 104 14 105 28 106 15 108 16 111
REMARK SMILES IDX 27 112 17 115 26 116 18 119 19 120 20 121 21 122 25 123
REMARK SMILES IDX 22 124 24 126 23 128
REMARK H PARENT 6 2 6 3 5 5 5 6 4 8 4 9 3 13 30 18 91 20 31 22 90 23 89 33
REMARK H PARENT 83 35 85 37 88 39 82 40 50 49 53 51 86 54 51 55 87 57 7 92
REMARK H PARENT 7 93 8 95 8 96 9 98 9 99 10 102 13 107 14 109 14 110 15 113
REMARK H PARENT 15 114 27 117 26 118 21 125 25 127 22 129 24 130 23 131
REMARK Flexibility Score: inf
ROOT
ATOM      1  C   UNL A   1      31.468  30.819  26.105  1.00  0.00    -0.052 C 
ATOM      2  H   UNL A   1      31.673  30.778  25.056  1.00  0.00     0.027 H 
ATOM      3  H   UNL A   1      30.543  30.352  26.373  1.00  0.00     0.027 H 
ENDROOT
BRANCH   1   4
ATOM      4  C   UNL A   1      31.339  32.289  26.505  1.00  0.00    -0.036 C 
ATOM      5  H   UNL A   1      31.192  32.867  25.617  1.00  0.00     0.028 H 
ATOM      6  H   UNL A   1      30.512  32.352  27.182  1.00  0.00     0.028 H 
BRANCH   4   7
ATOM      7  C   UNL A   1      32.550  32.842  27.241  1.00  0.00     0.018 C 
ATOM      8  H   UNL A   1      32.718  32.254  28.119  1.00  0.00     0.049 H 
ATOM      9  H   UNL A   1      33.389  32.795  26.578  1.00  0.00     0.049 H 
BRANCH   7  10
ATOM     10  N   UNL A   1      32.365  34.229  27.633  1.00  0.00    -0.352 N 
ATOM     11  O   UNL A   1      32.596  36.039  28.965  1.00  0.00    -0.269 OA
ATOM     12  C   UNL A   1      33.000  34.932  28.624  1.00  0.00     0.251 C 
ATOM     13  H   UNL A   1      31.693  34.731  27.118  1.00  0.00     0.163 HD
BRANCH  12  14
ATOM     14  C   UNL A   1      34.175  34.336  29.291  1.00  0.00     0.039 A 
ATOM     15  C   UNL A   1      34.008  33.523  30.416  1.00  0.00    -0.049 A 
ATOM     16  C   UNL A   1      35.452  34.585  28.781  1.00  0.00    -0.049 A 
ATOM     17  C   UNL A   1      35.122  33.055  31.101  1.00  0.00    -0.053 A 
ATOM     18  H   UNL A   1      33.059  33.271  30.736  1.00  0.00     0.063 H 
ATOM     19  C   UNL A   1      36.567  34.037  29.419  1.00  0.00    -0.053 A 
ATOM     20  H   UNL A   1      35.570  35.169  27.940  1.00  0.00     0.063 H 
ATOM     21  C   UNL A   1      36.410  33.278  30.590  1.00  0.00    -0.014 A 
ATOM     22  H   UNL A   1      35.001  32.542  31.988  1.00  0.00     0.063 H 
ATOM     23  H   UNL A   1      37.509  34.191  29.029  1.00  0.00     0.063 H 
BRANCH  21  24
ATOM     24  C   UNL A   1      37.569  32.611  31.229  1.00  0.00     0.031 A 
ATOM     25  C   UNL A   1      38.288  31.479  30.556  1.00  0.00     0.074 A 
ATOM     26  C   UNL A   1      37.957  33.041  32.446  1.00  0.00     0.049 A 
ATOM     27  N   UNL A   1      39.291  30.764  30.999  1.00  0.00    -0.248 NA
ATOM     28  C   UNL A   1      37.819  31.090  29.219  1.00  0.00    -0.034 C 
ATOM     29  C   UNL A   1      37.318  34.126  33.197  1.00  0.00    -0.036 A 
ATOM     30  N   UNL A   1      38.972  32.625  33.268  1.00  0.00    -0.354 N 
ATOM     31  C   UNL A   1      39.560  29.829  30.009  1.00  0.00     0.074 A 
ATOM     32  C   UNL A   1      38.604  30.055  28.947  1.00  0.00    -0.034 C 
ATOM     33  H   UNL A   1      37.074  31.513  28.642  1.00  0.00     0.065 H 
ATOM     34  C   UNL A   1      37.968  34.306  34.353  1.00  0.00    -0.036 A 
ATOM     35  H   UNL A   1      36.497  34.666  32.883  1.00  0.00     0.065 H 
ATOM     36  C   UNL A   1      39.020  33.303  34.462  1.00  0.00     0.049 A 
ATOM     37  H   UNL A   1      39.604  31.910  33.027  1.00  0.00     0.167 HD
ATOM     38  C   UNL A   1      40.521  28.875  29.996  1.00  0.00     0.037 A 
ATOM     39  H   UNL A   1      38.539  29.485  28.088  1.00  0.00     0.065 H 
ATOM     40  H   UNL A   1      37.760  35.035  35.053  1.00  0.00     0.065 H 
ATOM     41  C   UNL A   1      39.798  33.113  35.542  1.00  0.00     0.037 A 
ATOM     42  C   UNL A   1      41.475  28.672  31.059  1.00  0.00     0.049 A 
ATOM     43  C   UNL A   1      40.823  32.017  35.513  1.00  0.00     0.074 A 
ATOM     44  C   UNL A   1      42.530  27.778  31.110  1.00  0.00    -0.036 A 
ATOM     45  N   UNL A   1      41.479  29.363  32.262  1.00  0.00    -0.354 N 
ATOM     46  N   UNL A   1      41.113  31.184  34.543  1.00  0.00    -0.248 NA
ATOM     47  C   UNL A   1      41.627  31.829  36.727  1.00  0.00    -0.034 C 
ATOM     48  C   UNL A   1      43.128  27.877  32.369  1.00  0.00    -0.036 A 
ATOM     49  H   UNL A   1      42.823  27.145  30.349  1.00  0.00     0.065 H 
ATOM     50  C   UNL A   1      42.490  28.881  33.080  1.00  0.00     0.049 A 
ATOM     51  H   UNL A   1      40.856  30.088  32.501  1.00  0.00     0.167 HD
ATOM     52  C   UNL A   1      42.141  30.385  35.022  1.00  0.00     0.074 A 
ATOM     53  C   UNL A   1      42.442  30.851  36.360  1.00  0.00    -0.034 C 
ATOM     54  H   UNL A   1      41.571  32.328  37.629  1.00  0.00     0.065 H 
ATOM     55  H   UNL A   1      43.912  27.300  32.712  1.00  0.00     0.065 H 
ATOM     56  C   UNL A   1      42.776  29.356  34.410  1.00  0.00     0.037 A 
ATOM     57  H   UNL A   1      43.195  30.470  36.953  1.00  0.00     0.065 H 
BRANCH  38  58
ATOM     58  C   UNL A   1      40.585  27.950  28.814  1.00  0.00     0.064 A 
ATOM     59  C   UNL A   1      39.836  26.765  28.756  1.00  0.00     0.173 A 
ATOM     60  C   UNL A   1      41.351  28.295  27.689  1.00  0.00     0.173 A 
ATOM     61  F   UNL A   1      39.093  26.385  29.806  1.00  0.00    -0.203 F 
ATOM     62  C   UNL A   1      39.865  25.953  27.624  1.00  0.00     0.198 A 
ATOM     63  C   UNL A   1      41.354  27.496  26.548  1.00  0.00     0.198 A 
ATOM     64  F   UNL A   1      42.080  29.421  27.687  1.00  0.00    -0.203 F 
ATOM     65  F   UNL A   1      39.167  24.808  27.606  1.00  0.00    -0.200 F 
ATOM     66  C   UNL A   1      40.615  26.323  26.519  1.00  0.00     0.200 A 
ATOM     67  F   UNL A   1      42.068  27.865  25.476  1.00  0.00    -0.200 F 
ATOM     68  F   UNL A   1      40.628  25.550  25.425  1.00  0.00    -0.200 F 
ENDBRANCH  38  58
BRANCH  41  69
ATOM     69  C   UNL A   1      39.607  33.957  36.750  1.00  0.00     0.064 A 
ATOM     70  C   UNL A   1      40.223  35.210  36.865  1.00  0.00     0.173 A 
ATOM     71  C   UNL A   1      38.804  33.525  37.819  1.00  0.00     0.173 A 
ATOM     72  F   UNL A   1      41.012  35.660  35.879  1.00  0.00    -0.203 F 
ATOM     73  C   UNL A   1      40.066  35.986  38.012  1.00  0.00     0.198 A 
ATOM     74  C   UNL A   1      38.618  34.317  38.948  1.00  0.00     0.198 A 
ATOM     75  F   UNL A   1      38.184  32.337  37.757  1.00  0.00    -0.203 F 
ATOM     76  F   UNL A   1      40.711  37.155  38.118  1.00  0.00    -0.200 F 
ATOM     77  C   UNL A   1      39.259  35.542  39.048  1.00  0.00     0.200 A 
ATOM     78  F   UNL A   1      37.820  33.894  39.937  1.00  0.00    -0.200 F 
ATOM     79  F   UNL A   1      39.106  36.292  40.148  1.00  0.00    -0.200 F 
ENDBRANCH  41  69
BRANCH  56  80
ATOM     80  C   UNL A   1      43.876  28.678  35.174  1.00  0.00     0.064 A 
ATOM     81  C   UNL A   1      45.212  29.084  35.053  1.00  0.00     0.173 A 
ATOM     82  C   UNL A   1      43.582  27.640  36.071  1.00  0.00     0.173 A 
ATOM     83  F   UNL A   1      45.548  30.059  34.195  1.00  0.00    -0.203 F 
ATOM     84  C   UNL A   1      46.218  28.460  35.787  1.00  0.00     0.198 A 
ATOM     85  C   UNL A   1      44.584  27.042  36.828  1.00  0.00     0.198 A 
ATOM     86  F   UNL A   1      42.318  27.217  36.226  1.00  0.00    -0.203 F 
ATOM     87  F   UNL A   1      47.495  28.832  35.620  1.00  0.00    -0.200 F 
ATOM     88  C   UNL A   1      45.903  27.447  36.681  1.00  0.00     0.200 A 
ATOM     89  F   UNL A   1      44.276  26.074  37.701  1.00  0.00    -0.200 F 
ATOM     90  F   UNL A   1      46.870  26.857  37.396  1.00  0.00    -0.200 F 
ENDBRANCH  56  80
ENDBRANCH  21  24
ENDBRANCH  12  14
ENDBRANCH   7  10
ENDBRANCH   4   7
ENDBRANCH   1   4
BRANCH   1  91
ATOM     91  C   UNL A   1      32.570  30.048  26.838  1.00  0.00    -0.052 C 
ATOM     92  H   UNL A   1      32.887  30.636  27.674  1.00  0.00     0.027 H 
ATOM     93  H   UNL A   1      33.344  29.878  26.119  1.00  0.00     0.027 H 
BRANCH  91  94
ATOM     94  C   UNL A   1      32.157  28.665  27.357  1.00  0.00    -0.036 C 
ATOM     95  H   UNL A   1      31.397  28.798  28.098  1.00  0.00     0.028 H 
ATOM     96  H   UNL A   1      33.041  28.207  27.750  1.00  0.00     0.028 H 
BRANCH  94  97
ATOM     97  C   UNL A   1      31.618  27.728  26.279  1.00  0.00     0.017 C 
ATOM     98  H   UNL A   1      31.255  28.309  25.459  1.00  0.00     0.049 H 
ATOM     99  H   UNL A   1      30.828  27.141  26.700  1.00  0.00     0.049 H 
BRANCH  97 100
ATOM    100  N   UNL A   1      32.655  26.834  25.806  1.00  0.00    -0.356 N 
ATOM    101  C   UNL A   1      32.917  26.378  24.549  1.00  0.00     0.229 C 
ATOM    102  H   UNL A   1      33.268  26.504  26.502  1.00  0.00     0.163 HD
ATOM    103  O   UNL A   1      33.768  25.495  24.428  1.00  0.00    -0.274 OA
BRANCH 101 104
ATOM    104  C   UNL A   1      32.149  26.956  23.370  1.00  0.00     0.080 C 
ATOM    105  C   UNL A   1      32.317  28.489  23.287  1.00  0.00    -0.018 C 
ATOM    106  C   UNL A   1      30.681  26.810  23.543  1.00  0.00     0.031 A 
ATOM    107  H   UNL A   1      32.531  26.433  22.518  1.00  0.00     0.047 H 
ATOM    108  C   UNL A   1      30.944  29.034  22.865  1.00  0.00     0.024 C 
ATOM    109  H   UNL A   1      33.060  28.745  22.561  1.00  0.00     0.030 H 
ATOM    110  H   UNL A   1      32.638  28.904  24.221  1.00  0.00     0.030 H 
ATOM    111  N   UNL A   1      30.026  27.969  23.236  1.00  0.00    -0.341 N 
ATOM    112  C   UNL A   1      29.763  25.872  23.922  1.00  0.00    -0.040 A 
ATOM    113  H   UNL A   1      30.912  29.215  21.812  1.00  0.00     0.050 H 
ATOM    114  H   UNL A   1      30.706  29.968  23.329  1.00  0.00     0.050 H 
ATOM    115  C   UNL A   1      28.678  27.828  23.364  1.00  0.00     0.090 A 
ATOM    116  C   UNL A   1      28.502  26.515  23.815  1.00  0.00    -0.033 A 
ATOM    117  H   UNL A   1      29.948  24.902  24.223  1.00  0.00     0.064 H 
ATOM    118  H   UNL A   1      27.592  26.080  24.037  1.00  0.00     0.065 H 
BRANCH 115 119
ATOM    119  C   UNL A   1      27.609  28.790  23.154  1.00  0.00     0.209 C 
ATOM    120  O   UNL A   1      26.428  28.538  23.393  1.00  0.00    -0.287 OA
BRANCH 119 121
ATOM    121  C   UNL A   1      27.894  30.150  22.653  1.00  0.00     0.024 A 
ATOM    122  C   UNL A   1      28.042  31.182  23.586  1.00  0.00    -0.051 A 
ATOM    123  C   UNL A   1      27.961  30.421  21.283  1.00  0.00    -0.051 A 
ATOM    124  C   UNL A   1      28.311  32.478  23.148  1.00  0.00    -0.062 A 
ATOM    125  H   UNL A   1      27.954  30.985  24.594  1.00  0.00     0.063 H 
ATOM    126  C   UNL A   1      28.244  31.717  20.850  1.00  0.00    -0.062 A 
ATOM    127  H   UNL A   1      27.803  29.667  20.596  1.00  0.00     0.063 H 
ATOM    128  C   UNL A   1      28.423  32.741  21.782  1.00  0.00    -0.062 A 
ATOM    129  H   UNL A   1      28.427  33.241  23.833  1.00  0.00     0.062 H 
ATOM    130  H   UNL A   1      28.321  31.919  19.841  1.00  0.00     0.062 H 
ATOM    131  H   UNL A   1      28.639  33.698  21.459  1.00  0.00     0.062 H 
ENDBRANCH 119 121
ENDBRANCH 115 119
ENDBRANCH 101 104
ENDBRANCH  97 100
ENDBRANCH  94  97
ENDBRANCH  91  94
ENDBRANCH   1  91
TORSDOF 15
ENDMDL
MODEL 4
REMARK VINA RESULT:     -12.8      2.701      8.665
REMARK SMILES O=C(NCCCCCCNC(=O)[C@@H]1CCn2c(C(=O)c3ccccc3)ccc21)c1ccc(-c2c3nc(c(-c4c(F)c(F)c(F)c(F)c4F)c4ccc([nH]4)c(-c4c(F)c(F)c(F)c(F)c4F)c4nc(c(-c5c(F)c(F)c(F)c(F)c5F)c5ccc2[nH]5)C=C4)C=C3)cc1
REMARK SMILES IDX 6 1 5 4 4 7 3 10 1 11 2 12 29 14 30 15 91 16 31 17 90 19
REMARK SMILES IDX 32 21 33 24 34 25 84 26 35 27 89 28 83 29 85 30 36 31 88 32
REMARK SMILES IDX 82 34 81 36 37 38 69 41 49 42 68 43 50 44 53 45 67 46 86 47
REMARK SMILES IDX 51 48 52 50 66 52 87 53 54 56 38 58 39 59 47 60 40 61 41 62
REMARK SMILES IDX 45 63 48 64 42 65 43 66 46 67 44 68 70 69 71 70 79 71 72 72
REMARK SMILES IDX 73 73 77 74 80 75 74 76 75 77 78 78 76 79 55 80 56 81 64 82
REMARK SMILES IDX 57 83 58 84 62 85 65 86 59 87 60 88 63 89 61 90 7 91 8 94
REMARK SMILES IDX 9 97 10 100 11 101 12 103 13 104 14 105 28 106 15 108 16 111
REMARK SMILES IDX 27 112 17 115 26 116 18 119 19 120 20 121 21 122 25 123
REMARK SMILES IDX 22 124 24 126 23 128
REMARK H PARENT 6 2 6 3 5 5 5 6 4 8 4 9 3 13 30 18 91 20 31 22 90 23 89 33
REMARK H PARENT 83 35 85 37 88 39 82 40 50 49 53 51 86 54 51 55 87 57 7 92
REMARK H PARENT 7 93 8 95 8 96 9 98 9 99 10 102 13 107 14 109 14 110 15 113
REMARK H PARENT 15 114 27 117 26 118 21 125 25 127 22 129 24 130 23 131
REMARK Flexibility Score: inf
ROOT
ATOM      1  C   UNL A   1      31.380  30.848  26.110  1.00  0.00    -0.052 C 
ATOM      2  H   UNL A   1      31.402  30.780  25.042  1.00  0.00     0.027 H 
ATOM      3  H   UNL A   1      30.516  30.389  26.544  1.00  0.00     0.027 H 
ENDROOT
BRANCH   1   4
ATOM      4  C   UNL A   1      31.317  32.327  26.490  1.00  0.00    -0.036 C 
ATOM      5  H   UNL A   1      31.165  32.897  25.598  1.00  0.00     0.028 H 
ATOM      6  H   UNL A   1      30.514  32.431  27.190  1.00  0.00     0.028 H 
BRANCH   4   7
ATOM      7  C   UNL A   1      32.570  32.846  27.180  1.00  0.00     0.018 C 
ATOM      8  H   UNL A   1      32.768  32.238  28.038  1.00  0.00     0.049 H 
ATOM      9  H   UNL A   1      33.377  32.799  26.478  1.00  0.00     0.049 H 
BRANCH   7  10
ATOM     10  N   UNL A   1      32.427  34.227  27.607  1.00  0.00    -0.352 N 
ATOM     11  O   UNL A   1      32.698  35.993  28.991  1.00  0.00    -0.269 OA
ATOM     12  C   UNL A   1      33.070  34.881  28.625  1.00  0.00     0.251 C 
ATOM     13  H   UNL A   1      31.781  34.766  27.095  1.00  0.00     0.163 HD
BRANCH  12  14
ATOM     14  C   UNL A   1      34.213  34.228  29.293  1.00  0.00     0.039 A 
ATOM     15  C   UNL A   1      33.995  33.337  30.350  1.00  0.00    -0.049 A 
ATOM     16  C   UNL A   1      35.511  34.499  28.854  1.00  0.00    -0.049 A 
ATOM     17  C   UNL A   1      35.077  32.810  31.043  1.00  0.00    -0.053 A 
ATOM     18  H   UNL A   1      33.033  33.073  30.613  1.00  0.00     0.063 H 
ATOM     19  C   UNL A   1      36.596  33.896  29.494  1.00  0.00    -0.053 A 
ATOM     20  H   UNL A   1      35.666  35.141  28.062  1.00  0.00     0.063 H 
ATOM     21  C   UNL A   1      36.386  33.056  30.600  1.00  0.00    -0.014 A 
ATOM     22  H   UNL A   1      34.917  32.236  31.885  1.00  0.00     0.063 H 
ATOM     23  H   UNL A   1      37.554  34.068  29.153  1.00  0.00     0.063 H 
BRANCH  21  24
ATOM     24  C   UNL A   1      37.514  32.333  31.235  1.00  0.00     0.031 A 
ATOM     25  C   UNL A   1      38.014  32.707  32.598  1.00  0.00     0.074 A 
ATOM     26  C   UNL A   1      38.093  31.331  30.545  1.00  0.00     0.049 A 
ATOM     27  N   UNL A   1      39.015  32.202  33.274  1.00  0.00    -0.248 NA
ATOM     28  C   UNL A   1      37.309  33.794  33.294  1.00  0.00    -0.034 C 
ATOM     29  C   UNL A   1      37.693  30.893  29.203  1.00  0.00    -0.036 A 
ATOM     30  N   UNL A   1      39.135  30.500  30.866  1.00  0.00    -0.354 N 
ATOM     31  C   UNL A   1      39.076  32.919  34.461  1.00  0.00     0.074 A 
ATOM     32  C   UNL A   1      38.020  33.908  34.409  1.00  0.00    -0.034 C 
ATOM     33  H   UNL A   1      36.478  34.327  32.994  1.00  0.00     0.065 H 
ATOM     34  C   UNL A   1      38.462  29.863  28.828  1.00  0.00    -0.036 A 
ATOM     35  H   UNL A   1      36.939  31.313  28.639  1.00  0.00     0.065 H 
ATOM     36  C   UNL A   1      39.456  29.615  29.865  1.00  0.00     0.049 A 
ATOM     37  H   UNL A   1      39.608  30.534  31.728  1.00  0.00     0.167 HD
ATOM     38  C   UNL A   1      39.936  32.758  35.495  1.00  0.00     0.037 A 
ATOM     39  H   UNL A   1      37.844  34.612  35.143  1.00  0.00     0.065 H 
ATOM     40  H   UNL A   1      38.367  29.331  27.949  1.00  0.00     0.065 H 
ATOM     41  C   UNL A   1      40.463  28.729  29.773  1.00  0.00     0.037 A 
ATOM     42  C   UNL A   1      40.974  31.757  35.535  1.00  0.00     0.049 A 
ATOM     43  C   UNL A   1      41.426  28.607  30.918  1.00  0.00     0.074 A 
ATOM     44  C   UNL A   1      41.852  31.469  36.565  1.00  0.00    -0.036 A 
ATOM     45  N   UNL A   1      41.284  30.894  34.494  1.00  0.00    -0.354 N 
ATOM     46  N   UNL A   1      41.431  29.244  32.063  1.00  0.00    -0.248 NA
ATOM     47  C   UNL A   1      42.527  27.648  30.758  1.00  0.00    -0.034 C 
ATOM     48  C   UNL A   1      42.737  30.481  36.123  1.00  0.00    -0.036 A 
ATOM     49  H   UNL A   1      41.853  31.909  37.499  1.00  0.00     0.065 H 
ATOM     50  C   UNL A   1      42.370  30.105  34.842  1.00  0.00     0.049 A 
ATOM     51  H   UNL A   1      40.804  30.848  33.635  1.00  0.00     0.167 HD
ATOM     52  C   UNL A   1      42.521  28.753  32.767  1.00  0.00     0.074 A 
ATOM     53  C   UNL A   1      43.139  27.746  31.929  1.00  0.00    -0.034 C 
ATOM     54  H   UNL A   1      42.761  27.055  29.947  1.00  0.00     0.065 H 
ATOM     55  H   UNL A   1      43.530  30.098  36.661  1.00  0.00     0.065 H 
ATOM     56  C   UNL A   1      42.973  29.107  33.995  1.00  0.00     0.037 A 
ATOM     57  H   UNL A   1      43.953  27.177  32.208  1.00  0.00     0.065 H 
BRANCH  38  58
ATOM     58  C   UNL A   1      39.823  33.694  36.664  1.00  0.00     0.064 A 
ATOM     59  C   UNL A   1      40.524  34.907  36.715  1.00  0.00     0.173 A 
ATOM     60  C   UNL A   1      38.936  33.406  37.715  1.00  0.00     0.173 A 
ATOM     61  F   UNL A   1      41.388  35.229  35.740  1.00  0.00    -0.203 F 
ATOM     62  C   UNL A   1      40.357  35.788  37.781  1.00  0.00     0.198 A 
ATOM     63  C   UNL A   1      38.749  34.302  38.764  1.00  0.00     0.198 A 
ATOM     64  F   UNL A   1      38.233  32.263  37.712  1.00  0.00    -0.203 F 
ATOM     65  F   UNL A   1      41.064  36.926  37.825  1.00  0.00    -0.200 F 
ATOM     66  C   UNL A   1      39.463  35.490  38.799  1.00  0.00     0.200 A 
ATOM     67  F   UNL A   1      37.873  34.019  39.737  1.00  0.00    -0.200 F 
ATOM     68  F   UNL A   1      39.291  36.347  39.815  1.00  0.00    -0.200 F 
ENDBRANCH  38  58
BRANCH  41  69
ATOM     69  C   UNL A   1      40.628  27.920  28.537  1.00  0.00     0.064 A 
ATOM     70  C   UNL A   1      40.043  26.654  28.415  1.00  0.00     0.173 A 
ATOM     71  C   UNL A   1      41.380  28.398  27.451  1.00  0.00     0.173 A 
ATOM     72  F   UNL A   1      39.329  26.146  29.431  1.00  0.00    -0.203 F 
ATOM     73  C   UNL A   1      40.224  25.885  27.267  1.00  0.00     0.198 A 
ATOM     74  C   UNL A   1      41.530  27.645  26.291  1.00  0.00     0.198 A 
ATOM     75  F   UNL A   1      41.955  29.609  27.512  1.00  0.00    -0.203 F 
ATOM     76  F   UNL A   1      39.698  24.655  27.200  1.00  0.00    -0.200 F 
ATOM     77  C   UNL A   1      40.962  26.384  26.204  1.00  0.00     0.200 A 
ATOM     78  F   UNL A   1      42.225  28.141  25.257  1.00  0.00    -0.200 F 
ATOM     79  F   UNL A   1      41.131  25.645  25.099  1.00  0.00    -0.200 F 
ENDBRANCH  41  69
BRANCH  56  80
ATOM     80  C   UNL A   1      44.180  28.383  34.516  1.00  0.00     0.064 A 
ATOM     81  C   UNL A   1      45.474  28.896  34.345  1.00  0.00     0.173 A 
ATOM     82  C   UNL A   1      44.036  27.186  35.233  1.00  0.00     0.173 A 
ATOM     83  F   UNL A   1      45.667  30.027  33.650  1.00  0.00    -0.203 F 
ATOM     84  C   UNL A   1      46.582  28.224  34.855  1.00  0.00     0.198 A 
ATOM     85  C   UNL A   1      45.142  26.536  35.770  1.00  0.00     0.198 A 
ATOM     86  F   UNL A   1      42.819  26.656  35.427  1.00  0.00    -0.203 F 
ATOM     87  F   UNL A   1      47.814  28.707  34.639  1.00  0.00    -0.200 F 
ATOM     88  C   UNL A   1      46.415  27.051  35.576  1.00  0.00     0.200 A 
ATOM     89  F   UNL A   1      44.977  25.410  36.479  1.00  0.00    -0.200 F 
ATOM     90  F   UNL A   1      47.481  26.413  36.078  1.00  0.00    -0.200 F 
ENDBRANCH  56  80
ENDBRANCH  21  24
ENDBRANCH  12  14
ENDBRANCH   7  10
ENDBRANCH   4   7
ENDBRANCH   1   4
BRANCH   1  91
ATOM     91  C   UNL A   1      32.594  30.093  26.661  1.00  0.00    -0.052 C 
ATOM     92  H   UNL A   1      33.031  30.689  27.435  1.00  0.00     0.027 H 
ATOM     93  H   UNL A   1      33.247  29.930  25.829  1.00  0.00     0.027 H 
BRANCH  91  94
ATOM     94  C   UNL A   1      32.286  28.708  27.243  1.00  0.00    -0.036 C 
ATOM     95  H   UNL A   1      31.578  28.827  28.036  1.00  0.00     0.028 H 
ATOM     96  H   UNL A   1      33.217  28.301  27.577  1.00  0.00     0.028 H 
BRANCH  94  97
ATOM     97  C   UNL A   1      31.711  27.719  26.231  1.00  0.00     0.017 C 
ATOM     98  H   UNL A   1      31.290  28.261  25.412  1.00  0.00     0.049 H 
ATOM     99  H   UNL A   1      30.960  27.131  26.716  1.00  0.00     0.049 H 
BRANCH  97 100
ATOM    100  N   UNL A   1      32.742  26.832  25.733  1.00  0.00    -0.356 N 
ATOM    101  C   UNL A   1      32.987  26.390  24.468  1.00  0.00     0.229 C 
ATOM    102  H   UNL A   1      33.364  26.494  26.417  1.00  0.00     0.163 HD
ATOM    103  O   UNL A   1      33.837  25.509  24.325  1.00  0.00    -0.274 OA
BRANCH 101 104
ATOM    104  C   UNL A   1      32.203  26.981  23.306  1.00  0.00     0.080 C 
ATOM    105  C   UNL A   1      32.360  28.516  23.245  1.00  0.00    -0.018 C 
ATOM    106  C   UNL A   1      30.738  26.823  23.493  1.00  0.00     0.031 A 
ATOM    107  H   UNL A   1      32.579  26.474  22.442  1.00  0.00     0.047 H 
ATOM    108  C   UNL A   1      30.979  29.059  22.846  1.00  0.00     0.024 C 
ATOM    109  H   UNL A   1      33.094  28.788  22.514  1.00  0.00     0.030 H 
ATOM    110  H   UNL A   1      32.688  28.919  24.181  1.00  0.00     0.030 H 
ATOM    111  N   UNL A   1      30.072  27.982  23.211  1.00  0.00    -0.341 N 
ATOM    112  C   UNL A   1      29.829  25.874  23.867  1.00  0.00    -0.040 A 
ATOM    113  H   UNL A   1      30.935  29.256  21.796  1.00  0.00     0.050 H 
ATOM    114  H   UNL A   1      30.740  29.984  23.327  1.00  0.00     0.050 H 
ATOM    115  C   UNL A   1      28.726  27.830  23.352  1.00  0.00     0.090 A 
ATOM    116  C   UNL A   1      28.563  26.510  23.784  1.00  0.00    -0.033 A 
ATOM    117  H   UNL A   1      30.024  24.901  24.151  1.00  0.00     0.064 H 
ATOM    118  H   UNL A   1      27.659  26.066  24.010  1.00  0.00     0.065 H 
BRANCH 115 119
ATOM    119  C   UNL A   1      27.649  28.789  23.167  1.00  0.00     0.209 C 
ATOM    120  O   UNL A   1      26.476  28.536  23.444  1.00  0.00    -0.287 OA
BRANCH 119 121
ATOM    121  C   UNL A   1      27.915  30.147  22.650  1.00  0.00     0.024 A 
ATOM    122  C   UNL A   1      28.087  31.184  23.572  1.00  0.00    -0.051 A 
ATOM    123  C   UNL A   1      27.942  30.410  21.277  1.00  0.00    -0.051 A 
ATOM    124  C   UNL A   1      28.340  32.478  23.119  1.00  0.00    -0.062 A 
ATOM    125  H   UNL A   1      28.029  30.994  24.584  1.00  0.00     0.063 H 
ATOM    126  C   UNL A   1      28.208  31.704  20.828  1.00  0.00    -0.062 A 
ATOM    127  H   UNL A   1      27.766  29.651  20.600  1.00  0.00     0.063 H 
ATOM    128  C   UNL A   1      28.411  32.734  21.749  1.00  0.00    -0.062 A 
ATOM    129  H   UNL A   1      28.473  33.246  23.795  1.00  0.00     0.062 H 
ATOM    130  H   UNL A   1      28.255  31.900  19.816  1.00  0.00     0.062 H 
ATOM    131  H   UNL A   1      28.615  33.690  21.414  1.00  0.00     0.062 H 
ENDBRANCH 119 121
ENDBRANCH 115 119
ENDBRANCH 101 104
ENDBRANCH  97 100
ENDBRANCH  94  97
ENDBRANCH  91  94
ENDBRANCH   1  91
TORSDOF 15
ENDMDL
MODEL 5
REMARK VINA RESULT:     -12.7      0.617      7.347
REMARK SMILES O=C(NCCCCCCNC(=O)[C@@H]1CCn2c(C(=O)c3ccccc3)ccc21)c1ccc(-c2c3nc(c(-c4c(F)c(F)c(F)c(F)c4F)c4ccc([nH]4)c(-c4c(F)c(F)c(F)c(F)c4F)c4nc(c(-c5c(F)c(F)c(F)c(F)c5F)c5ccc2[nH]5)C=C4)C=C3)cc1
REMARK SMILES IDX 6 1 5 4 4 7 3 10 1 11 2 12 29 14 30 15 91 16 31 17 90 19
REMARK SMILES IDX 32 21 33 24 34 25 84 26 35 27 89 28 83 29 85 30 36 31 88 32
REMARK SMILES IDX 82 34 81 36 37 38 69 41 49 42 68 43 50 44 53 45 67 46 86 47
REMARK SMILES IDX 51 48 52 50 66 52 87 53 54 56 38 58 39 59 47 60 40 61 41 62
REMARK SMILES IDX 45 63 48 64 42 65 43 66 46 67 44 68 70 69 71 70 79 71 72 72
REMARK SMILES IDX 73 73 77 74 80 75 74 76 75 77 78 78 76 79 55 80 56 81 64 82
REMARK SMILES IDX 57 83 58 84 62 85 65 86 59 87 60 88 63 89 61 90 7 91 8 94
REMARK SMILES IDX 9 97 10 100 11 101 12 103 13 104 14 105 28 106 15 108 16 111
REMARK SMILES IDX 27 112 17 115 26 116 18 119 19 120 20 121 21 122 25 123
REMARK SMILES IDX 22 124 24 126 23 128
REMARK H PARENT 6 2 6 3 5 5 5 6 4 8 4 9 3 13 30 18 91 20 31 22 90 23 89 33
REMARK H PARENT 83 35 85 37 88 39 82 40 50 49 53 51 86 54 51 55 87 57 7 92
REMARK H PARENT 7 93 8 95 8 96 9 98 9 99 10 102 13 107 14 109 14 110 15 113
REMARK H PARENT 15 114 27 117 26 118 21 125 25 127 22 129 24 130 23 131
REMARK Flexibility Score: inf
ROOT
ATOM      1  C   UNL A   1      31.465  30.381  26.521  1.00  0.00    -0.052 C 
ATOM      2  H   UNL A   1      30.639  30.010  27.093  1.00  0.00     0.027 H 
ATOM      3  H   UNL A   1      32.416  30.108  26.928  1.00  0.00     0.027 H 
ENDROOT
BRANCH   1   4
ATOM      4  C   UNL A   1      31.409  31.908  26.542  1.00  0.00    -0.036 C 
ATOM      5  H   UNL A   1      31.198  32.250  25.551  1.00  0.00     0.028 H 
ATOM      6  H   UNL A   1      30.649  32.178  27.245  1.00  0.00     0.028 H 
BRANCH   4   7
ATOM      7  C   UNL A   1      32.695  32.570  27.012  1.00  0.00     0.018 C 
ATOM      8  H   UNL A   1      33.107  31.994  27.814  1.00  0.00     0.049 H 
ATOM      9  H   UNL A   1      33.368  32.612  26.180  1.00  0.00     0.049 H 
BRANCH   7  10
ATOM     10  N   UNL A   1      32.472  33.929  27.477  1.00  0.00    -0.352 N 
ATOM     11  O   UNL A   1      32.616  35.658  28.924  1.00  0.00    -0.269 OA
ATOM     12  C   UNL A   1      33.052  34.579  28.536  1.00  0.00     0.251 C 
ATOM     13  H   UNL A   1      31.816  34.453  26.963  1.00  0.00     0.163 HD
BRANCH  12  14
ATOM     14  C   UNL A   1      34.206  33.959  29.218  1.00  0.00     0.039 A 
ATOM     15  C   UNL A   1      34.001  32.985  30.201  1.00  0.00    -0.049 A 
ATOM     16  C   UNL A   1      35.500  34.346  28.865  1.00  0.00    -0.049 A 
ATOM     17  C   UNL A   1      35.084  32.487  30.914  1.00  0.00    -0.053 A 
ATOM     18  H   UNL A   1      33.048  32.640  30.396  1.00  0.00     0.063 H 
ATOM     19  C   UNL A   1      36.593  33.775  29.520  1.00  0.00    -0.053 A 
ATOM     20  H   UNL A   1      35.648  35.050  28.126  1.00  0.00     0.063 H 
ATOM     21  C   UNL A   1      36.392  32.849  30.557  1.00  0.00    -0.014 A 
ATOM     22  H   UNL A   1      34.925  31.846  31.708  1.00  0.00     0.063 H 
ATOM     23  H   UNL A   1      37.552  34.034  29.241  1.00  0.00     0.063 H 
BRANCH  21  24
ATOM     24  C   UNL A   1      37.536  32.162  31.201  1.00  0.00     0.031 A 
ATOM     25  C   UNL A   1      38.009  32.547  32.571  1.00  0.00     0.074 A 
ATOM     26  C   UNL A   1      38.155  31.182  30.513  1.00  0.00     0.049 A 
ATOM     27  N   UNL A   1      39.019  32.073  33.255  1.00  0.00    -0.248 NA
ATOM     28  C   UNL A   1      37.261  33.607  33.263  1.00  0.00    -0.034 C 
ATOM     29  C   UNL A   1      37.785  30.737  29.166  1.00  0.00    -0.036 A 
ATOM     30  N   UNL A   1      39.221  30.385  30.842  1.00  0.00    -0.354 N 
ATOM     31  C   UNL A   1      39.044  32.787  34.445  1.00  0.00     0.074 A 
ATOM     32  C   UNL A   1      37.956  33.740  34.386  1.00  0.00    -0.034 C 
ATOM     33  H   UNL A   1      36.416  34.113  32.956  1.00  0.00     0.065 H 
ATOM     34  C   UNL A   1      38.591  29.734  28.795  1.00  0.00    -0.036 A 
ATOM     35  H   UNL A   1      37.022  31.133  28.595  1.00  0.00     0.065 H 
ATOM     36  C   UNL A   1      39.582  29.515  29.842  1.00  0.00     0.049 A 
ATOM     37  H   UNL A   1      39.683  30.431  31.710  1.00  0.00     0.167 HD
ATOM     38  C   UNL A   1      39.898  32.650  35.488  1.00  0.00     0.037 A 
ATOM     39  H   UNL A   1      37.749  34.435  35.120  1.00  0.00     0.065 H 
ATOM     40  H   UNL A   1      38.523  29.203  27.913  1.00  0.00     0.065 H 
ATOM     41  C   UNL A   1      40.619  28.664  29.757  1.00  0.00     0.037 A 
ATOM     42  C   UNL A   1      40.968  31.685  35.535  1.00  0.00     0.049 A 
ATOM     43  C   UNL A   1      41.574  28.569  30.912  1.00  0.00     0.074 A 
ATOM     44  C   UNL A   1      41.845  31.422  36.574  1.00  0.00    -0.036 A 
ATOM     45  N   UNL A   1      41.317  30.837  34.494  1.00  0.00    -0.354 N 
ATOM     46  N   UNL A   1      41.545  29.201  32.060  1.00  0.00    -0.248 NA
ATOM     47  C   UNL A   1      42.707  27.648  30.760  1.00  0.00    -0.034 C 
ATOM     48  C   UNL A   1      42.766  30.466  36.138  1.00  0.00    -0.036 A 
ATOM     49  H   UNL A   1      41.821  31.858  37.509  1.00  0.00     0.065 H 
ATOM     50  C   UNL A   1      42.426  30.082  34.851  1.00  0.00     0.049 A 
ATOM     51  H   UNL A   1      40.848  30.778  33.630  1.00  0.00     0.167 HD
ATOM     52  C   UNL A   1      42.644  28.744  32.773  1.00  0.00     0.074 A 
ATOM     53  C   UNL A   1      43.303  27.762  31.938  1.00  0.00    -0.034 C 
ATOM     54  H   UNL A   1      42.969  27.066  29.949  1.00  0.00     0.065 H 
ATOM     55  H   UNL A   1      43.567  30.107  36.682  1.00  0.00     0.065 H 
ATOM     56  C   UNL A   1      43.070  29.108  34.007  1.00  0.00     0.037 A 
ATOM     57  H   UNL A   1      44.133  27.219  32.223  1.00  0.00     0.065 H 
BRANCH  38  58
ATOM     58  C   UNL A   1      39.741  33.578  36.658  1.00  0.00     0.064 A 
ATOM     59  C   UNL A   1      40.367  34.832  36.703  1.00  0.00     0.173 A 
ATOM     60  C   UNL A   1      38.887  33.236  37.720  1.00  0.00     0.173 A 
ATOM     61  F   UNL A   1      41.198  35.206  35.718  1.00  0.00    -0.203 F 
ATOM     62  C   UNL A   1      40.159  35.701  37.772  1.00  0.00     0.198 A 
ATOM     63  C   UNL A   1      38.658  34.119  38.772  1.00  0.00     0.198 A 
ATOM     64  F   UNL A   1      38.255  32.052  37.725  1.00  0.00    -0.203 F 
ATOM     65  F   UNL A   1      40.796  36.880  37.808  1.00  0.00    -0.200 F 
ATOM     66  C   UNL A   1      39.298  35.348  38.800  1.00  0.00     0.200 A 
ATOM     67  F   UNL A   1      37.812  33.781  39.756  1.00  0.00    -0.200 F 
ATOM     68  F   UNL A   1      39.085  36.192  39.818  1.00  0.00    -0.200 F 
ENDBRANCH  38  58
BRANCH  41  69
ATOM     69  C   UNL A   1      40.824  27.866  28.520  1.00  0.00     0.064 A 
ATOM     70  C   UNL A   1      41.610  28.351  27.467  1.00  0.00     0.173 A 
ATOM     71  C   UNL A   1      40.235  26.601  28.365  1.00  0.00     0.173 A 
ATOM     72  F   UNL A   1      42.181  29.561  27.560  1.00  0.00    -0.203 F 
ATOM     73  C   UNL A   1      41.777  27.614  26.296  1.00  0.00     0.198 A 
ATOM     74  C   UNL A   1      40.432  25.850  27.210  1.00  0.00     0.198 A 
ATOM     75  F   UNL A   1      39.480  26.085  29.347  1.00  0.00    -0.203 F 
ATOM     76  F   UNL A   1      42.488  28.126  25.283  1.00  0.00    -0.200 F 
ATOM     77  C   UNL A   1      41.194  26.363  26.171  1.00  0.00     0.200 A 
ATOM     78  F   UNL A   1      39.885  24.631  27.103  1.00  0.00    -0.200 F 
ATOM     79  F   UNL A   1      41.359  25.654  25.046  1.00  0.00    -0.200 F 
ENDBRANCH  41  69
BRANCH  56  80
ATOM     80  C   UNL A   1      44.296  28.424  34.538  1.00  0.00     0.064 A 
ATOM     81  C   UNL A   1      44.218  27.198  35.215  1.00  0.00     0.173 A 
ATOM     82  C   UNL A   1      45.567  28.979  34.327  1.00  0.00     0.173 A 
ATOM     83  F   UNL A   1      43.024  26.636  35.459  1.00  0.00    -0.203 F 
ATOM     84  C   UNL A   1      45.367  26.565  35.681  1.00  0.00     0.198 A 
ATOM     85  C   UNL A   1      46.715  28.327  34.764  1.00  0.00     0.198 A 
ATOM     86  F   UNL A   1      45.696  30.148  33.681  1.00  0.00    -0.203 F 
ATOM     87  F   UNL A   1      45.265  25.418  36.368  1.00  0.00    -0.200 F 
ATOM     88  C   UNL A   1      46.615  27.123  35.446  1.00  0.00     0.200 A 
ATOM     89  F   UNL A   1      47.920  28.860  34.524  1.00  0.00    -0.200 F 
ATOM     90  F   UNL A   1      47.720  26.505  35.884  1.00  0.00    -0.200 F 
ENDBRANCH  56  80
ENDBRANCH  21  24
ENDBRANCH  12  14
ENDBRANCH   7  10
ENDBRANCH   4   7
ENDBRANCH   1   4
BRANCH   1  91
ATOM     91  C   UNL A   1      31.396  29.754  25.124  1.00  0.00    -0.052 C 
ATOM     92  H   UNL A   1      32.214  30.136  24.549  1.00  0.00     0.027 H 
ATOM     93  H   UNL A   1      30.438  30.015  24.727  1.00  0.00     0.027 H 
BRANCH  91  94
ATOM     94  C   UNL A   1      31.470  28.223  25.097  1.00  0.00    -0.036 C 
ATOM     95  H   UNL A   1      32.152  27.933  24.325  1.00  0.00     0.028 H 
ATOM     96  H   UNL A   1      30.475  27.869  24.924  1.00  0.00     0.028 H 
BRANCH  94  97
ATOM     97  C   UNL A   1      31.936  27.596  26.409  1.00  0.00     0.017 C 
ATOM     98  H   UNL A   1      31.765  28.286  27.207  1.00  0.00     0.049 H 
ATOM     99  H   UNL A   1      32.979  27.368  26.328  1.00  0.00     0.049 H 
BRANCH  97 100
ATOM    100  N   UNL A   1      31.215  26.369  26.680  1.00  0.00    -0.356 N 
ATOM    101  C   UNL A   1      31.577  25.072  26.472  1.00  0.00     0.229 C 
ATOM    102  H   UNL A   1      30.323  26.491  27.076  1.00  0.00     0.163 HD
ATOM    103  O   UNL A   1      30.718  24.205  26.642  1.00  0.00    -0.274 OA
BRANCH 101 104
ATOM    104  C   UNL A   1      32.998  24.754  26.031  1.00  0.00     0.080 C 
ATOM    105  C   UNL A   1      33.089  24.607  24.496  1.00  0.00    -0.018 C 
ATOM    106  C   UNL A   1      33.435  23.415  26.501  1.00  0.00     0.031 A 
ATOM    107  H   UNL A   1      33.587  25.557  26.423  1.00  0.00     0.047 H 
ATOM    108  C   UNL A   1      34.068  23.448  24.249  1.00  0.00     0.024 C 
ATOM    109  H   UNL A   1      33.460  25.510  24.055  1.00  0.00     0.030 H 
ATOM    110  H   UNL A   1      32.131  24.416  24.058  1.00  0.00     0.030 H 
ATOM    111  N   UNL A   1      34.048  22.712  25.503  1.00  0.00    -0.341 N 
ATOM    112  C   UNL A   1      33.415  22.648  27.631  1.00  0.00    -0.040 A 
ATOM    113  H   UNL A   1      35.050  23.816  24.038  1.00  0.00     0.050 H 
ATOM    114  H   UNL A   1      33.796  22.845  23.409  1.00  0.00     0.050 H 
ATOM    115  C   UNL A   1      34.477  21.496  25.941  1.00  0.00     0.090 A 
ATOM    116  C   UNL A   1      34.066  21.437  27.276  1.00  0.00    -0.033 A 
ATOM    117  H   UNL A   1      33.012  22.896  28.548  1.00  0.00     0.064 H 
ATOM    118  H   UNL A   1      34.213  20.634  27.908  1.00  0.00     0.065 H 
BRANCH 115 119
ATOM    119  C   UNL A   1      35.162  20.430  25.228  1.00  0.00     0.209 C 
ATOM    120  O   UNL A   1      36.388  20.361  25.149  1.00  0.00    -0.287 OA
BRANCH 119 121
ATOM    121  C   UNL A   1      34.406  19.344  24.571  1.00  0.00     0.024 A 
ATOM    122  C   UNL A   1      33.090  19.599  24.174  1.00  0.00    -0.051 A 
ATOM    123  C   UNL A   1      34.964  18.074  24.395  1.00  0.00    -0.051 A 
ATOM    124  C   UNL A   1      32.348  18.596  23.551  1.00  0.00    -0.062 A 
ATOM    125  H   UNL A   1      32.669  20.526  24.339  1.00  0.00     0.063 H 
ATOM    126  C   UNL A   1      34.222  17.077  23.760  1.00  0.00    -0.062 A 
ATOM    127  H   UNL A   1      35.919  17.874  24.734  1.00  0.00     0.063 H 
ATOM    128  C   UNL A   1      32.919  17.341  23.335  1.00  0.00    -0.062 A 
ATOM    129  H   UNL A   1      31.378  18.781  23.251  1.00  0.00     0.062 H 
ATOM    130  H   UNL A   1      34.637  16.145  23.604  1.00  0.00     0.062 H 
ATOM    131  H   UNL A   1      32.374  16.603  22.859  1.00  0.00     0.062 H 
ENDBRANCH 119 121
ENDBRANCH 115 119
ENDBRANCH 101 104
ENDBRANCH  97 100
ENDBRANCH  94  97
ENDBRANCH  91  94
ENDBRANCH   1  91
TORSDOF 15
ENDMDL
MODEL 6
REMARK VINA RESULT:     -12.6      5.497     11.544
REMARK SMILES O=C(NCCCCCCNC(=O)[C@@H]1CCn2c(C(=O)c3ccccc3)ccc21)c1ccc(-c2c3nc(c(-c4c(F)c(F)c(F)c(F)c4F)c4ccc([nH]4)c(-c4c(F)c(F)c(F)c(F)c4F)c4nc(c(-c5c(F)c(F)c(F)c(F)c5F)c5ccc2[nH]5)C=C4)C=C3)cc1
REMARK SMILES IDX 6 1 5 4 4 7 3 10 1 11 2 12 29 14 30 15 91 16 31 17 90 19
REMARK SMILES IDX 32 21 33 24 34 25 84 26 35 27 89 28 83 29 85 30 36 31 88 32
REMARK SMILES IDX 82 34 81 36 37 38 69 41 49 42 68 43 50 44 53 45 67 46 86 47
REMARK SMILES IDX 51 48 52 50 66 52 87 53 54 56 38 58 39 59 47 60 40 61 41 62
REMARK SMILES IDX 45 63 48 64 42 65 43 66 46 67 44 68 70 69 71 70 79 71 72 72
REMARK SMILES IDX 73 73 77 74 80 75 74 76 75 77 78 78 76 79 55 80 56 81 64 82
REMARK SMILES IDX 57 83 58 84 62 85 65 86 59 87 60 88 63 89 61 90 7 91 8 94
REMARK SMILES IDX 9 97 10 100 11 101 12 103 13 104 14 105 28 106 15 108 16 111
REMARK SMILES IDX 27 112 17 115 26 116 18 119 19 120 20 121 21 122 25 123
REMARK SMILES IDX 22 124 24 126 23 128
REMARK H PARENT 6 2 6 3 5 5 5 6 4 8 4 9 3 13 30 18 91 20 31 22 90 23 89 33
REMARK H PARENT 83 35 85 37 88 39 82 40 50 49 53 51 86 54 51 55 87 57 7 92
REMARK H PARENT 7 93 8 95 8 96 9 98 9 99 10 102 13 107 14 109 14 110 15 113
REMARK H PARENT 15 114 27 117 26 118 21 125 25 127 22 129 24 130 23 131
REMARK Flexibility Score: inf
ROOT
ATOM      1  C   UNL A   1      37.258  20.659  24.829  1.00  0.00    -0.052 C 
ATOM      2  H   UNL A   1      36.431  20.426  25.467  1.00  0.00     0.027 H 
ATOM      3  H   UNL A   1      36.999  20.666  23.790  1.00  0.00     0.027 H 
ENDROOT
BRANCH   1   4
ATOM      4  C   UNL A   1      38.313  19.566  25.001  1.00  0.00    -0.036 C 
ATOM      5  H   UNL A   1      37.813  18.655  25.258  1.00  0.00     0.028 H 
ATOM      6  H   UNL A   1      38.843  19.500  24.073  1.00  0.00     0.028 H 
BRANCH   4   7
ATOM      7  C   UNL A   1      39.347  19.864  26.076  1.00  0.00     0.018 C 
ATOM      8  H   UNL A   1      39.722  20.855  25.928  1.00  0.00     0.049 H 
ATOM      9  H   UNL A   1      38.869  19.769  27.029  1.00  0.00     0.049 H 
BRANCH   7  10
ATOM     10  N   UNL A   1      40.459  18.930  26.038  1.00  0.00    -0.352 N 
ATOM     11  O   UNL A   1      42.623  18.314  25.820  1.00  0.00    -0.269 OA
ATOM     12  C   UNL A   1      41.804  19.197  26.058  1.00  0.00     0.251 C 
ATOM     13  H   UNL A   1      40.215  17.977  25.990  1.00  0.00     0.163 HD
BRANCH  12  14
ATOM     14  C   UNL A   1      42.262  20.568  26.359  1.00  0.00     0.039 A 
ATOM     15  C   UNL A   1      42.528  21.464  25.318  1.00  0.00    -0.049 A 
ATOM     16  C   UNL A   1      42.417  20.963  27.689  1.00  0.00    -0.049 A 
ATOM     17  C   UNL A   1      43.061  22.714  25.604  1.00  0.00    -0.053 A 
ATOM     18  H   UNL A   1      42.329  21.197  24.342  1.00  0.00     0.063 H 
ATOM     19  C   UNL A   1      42.867  22.253  27.977  1.00  0.00    -0.053 A 
ATOM     20  H   UNL A   1      42.202  20.306  28.454  1.00  0.00     0.063 H 
ATOM     21  C   UNL A   1      43.203  23.134  26.936  1.00  0.00    -0.014 A 
ATOM     22  H   UNL A   1      43.353  23.337  24.834  1.00  0.00     0.063 H 
ATOM     23  H   UNL A   1      42.953  22.561  28.958  1.00  0.00     0.063 H 
BRANCH  21  24
ATOM     24  C   UNL A   1      43.592  24.537  27.217  1.00  0.00     0.031 A 
ATOM     25  C   UNL A   1      42.602  25.530  27.749  1.00  0.00     0.074 A 
ATOM     26  C   UNL A   1      44.864  24.904  26.969  1.00  0.00     0.049 A 
ATOM     27  N   UNL A   1      42.772  26.802  28.007  1.00  0.00    -0.248 NA
ATOM     28  C   UNL A   1      41.242  25.041  28.018  1.00  0.00    -0.034 C 
ATOM     29  C   UNL A   1      45.906  24.019  26.438  1.00  0.00    -0.036 A 
ATOM     30  N   UNL A   1      45.501  26.107  27.125  1.00  0.00    -0.354 N 
ATOM     31  C   UNL A   1      41.542  27.271  28.447  1.00  0.00     0.074 A 
ATOM     32  C   UNL A   1      40.626  26.151  28.406  1.00  0.00    -0.034 C 
ATOM     33  H   UNL A   1      40.865  24.084  27.929  1.00  0.00     0.065 H 
ATOM     34  C   UNL A   1      47.054  24.700  26.335  1.00  0.00    -0.036 A 
ATOM     35  H   UNL A   1      45.774  23.028  26.184  1.00  0.00     0.065 H 
ATOM     36  C   UNL A   1      46.814  26.086  26.720  1.00  0.00     0.049 A 
ATOM     37  H   UNL A   1      45.063  26.908  27.491  1.00  0.00     0.167 HD
ATOM     38  C   UNL A   1      41.217  28.523  28.850  1.00  0.00     0.037 A 
ATOM     39  H   UNL A   1      39.624  26.208  28.646  1.00  0.00     0.065 H 
ATOM     40  H   UNL A   1      47.960  24.310  26.034  1.00  0.00     0.065 H 
ATOM     41  C   UNL A   1      47.716  27.079  26.629  1.00  0.00     0.037 A 
ATOM     42  C   UNL A   1      42.147  29.625  28.897  1.00  0.00     0.049 A 
ATOM     43  C   UNL A   1      47.310  28.465  27.040  1.00  0.00     0.074 A 
ATOM     44  C   UNL A   1      41.932  30.913  29.353  1.00  0.00    -0.036 A 
ATOM     45  N   UNL A   1      43.461  29.571  28.457  1.00  0.00    -0.354 N 
ATOM     46  N   UNL A   1      46.163  28.881  27.519  1.00  0.00    -0.248 NA
ATOM     47  C   UNL A   1      48.319  29.522  26.894  1.00  0.00    -0.034 C 
ATOM     48  C   UNL A   1      43.093  31.658  29.126  1.00  0.00    -0.036 A 
ATOM     49  H   UNL A   1      41.063  31.264  29.786  1.00  0.00     0.065 H 
ATOM     50  C   UNL A   1      44.055  30.818  28.590  1.00  0.00     0.049 A 
ATOM     51  H   UNL A   1      43.908  28.768  28.104  1.00  0.00     0.167 HD
ATOM     52  C   UNL A   1      46.316  30.240  27.748  1.00  0.00     0.074 A 
ATOM     53  C   UNL A   1      47.676  30.574  27.378  1.00  0.00    -0.034 C 
ATOM     54  H   UNL A   1      49.277  29.459  26.514  1.00  0.00     0.065 H 
ATOM     55  H   UNL A   1      43.212  32.664  29.323  1.00  0.00     0.065 H 
ATOM     56  C   UNL A   1      45.411  31.133  28.217  1.00  0.00     0.037 A 
ATOM     57  H   UNL A   1      48.092  31.513  27.479  1.00  0.00     0.065 H 
BRANCH  38  58
ATOM     58  C   UNL A   1      39.794  28.792  29.247  1.00  0.00     0.064 A 
ATOM     59  C   UNL A   1      39.353  28.654  30.571  1.00  0.00     0.173 A 
ATOM     60  C   UNL A   1      38.875  29.271  28.298  1.00  0.00     0.173 A 
ATOM     61  F   UNL A   1      40.187  28.195  31.515  1.00  0.00    -0.203 F 
ATOM     62  C   UNL A   1      38.042  28.968  30.927  1.00  0.00     0.198 A 
ATOM     63  C   UNL A   1      37.575  29.611  28.663  1.00  0.00     0.198 A 
ATOM     64  F   UNL A   1      39.247  29.430  27.018  1.00  0.00    -0.203 F 
ATOM     65  F   UNL A   1      37.635  28.795  32.192  1.00  0.00    -0.200 F 
ATOM     66  C   UNL A   1      37.158  29.455  29.976  1.00  0.00     0.200 A 
ATOM     67  F   UNL A   1      36.728  30.097  27.745  1.00  0.00    -0.200 F 
ATOM     68  F   UNL A   1      35.904  29.772  30.324  1.00  0.00    -0.200 F 
ENDBRANCH  38  58
BRANCH  41  69
ATOM     69  C   UNL A   1      49.074  26.802  26.093  1.00  0.00     0.064 A 
ATOM     70  C   UNL A   1      49.371  26.993  24.737  1.00  0.00     0.173 A 
ATOM     71  C   UNL A   1      50.103  26.335  26.926  1.00  0.00     0.173 A 
ATOM     72  F   UNL A   1      48.418  27.422  23.897  1.00  0.00    -0.203 F 
ATOM     73  C   UNL A   1      50.637  26.703  24.231  1.00  0.00     0.198 A 
ATOM     74  C   UNL A   1      51.377  26.081  26.427  1.00  0.00     0.198 A 
ATOM     75  F   UNL A   1      49.875  26.143  28.234  1.00  0.00    -0.203 F 
ATOM     76  F   UNL A   1      50.877  26.844  22.921  1.00  0.00    -0.200 F 
ATOM     77  C   UNL A   1      51.639  26.254  25.077  1.00  0.00     0.200 A 
ATOM     78  F   UNL A   1      52.349  25.668  27.252  1.00  0.00    -0.200 F 
ATOM     79  F   UNL A   1      52.857  25.980  24.589  1.00  0.00    -0.200 F 
ENDBRANCH  41  69
BRANCH  56  80
ATOM     80  C   UNL A   1      45.869  32.553  28.379  1.00  0.00     0.064 A 
ATOM     81  C   UNL A   1      45.696  33.502  27.362  1.00  0.00     0.173 A 
ATOM     82  C   UNL A   1      46.448  32.979  29.584  1.00  0.00     0.173 A 
ATOM     83  F   UNL A   1      45.165  33.141  26.184  1.00  0.00    -0.203 F 
ATOM     84  C   UNL A   1      46.106  34.821  27.538  1.00  0.00     0.198 A 
ATOM     85  C   UNL A   1      46.826  34.305  29.768  1.00  0.00     0.198 A 
ATOM     86  F   UNL A   1      46.633  32.110  30.590  1.00  0.00    -0.203 F 
ATOM     87  F   UNL A   1      45.974  35.701  26.534  1.00  0.00    -0.200 F 
ATOM     88  C   UNL A   1      46.660  35.224  28.743  1.00  0.00     0.200 A 
ATOM     89  F   UNL A   1      47.348  34.695  30.939  1.00  0.00    -0.200 F 
ATOM     90  F   UNL A   1      47.042  36.497  28.915  1.00  0.00    -0.200 F 
ENDBRANCH  56  80
ENDBRANCH  21  24
ENDBRANCH  12  14
ENDBRANCH   7  10
ENDBRANCH   4   7
ENDBRANCH   1   4
BRANCH   1  91
ATOM     91  C   UNL A   1      37.737  22.074  25.166  1.00  0.00    -0.052 C 
ATOM     92  H   UNL A   1      38.728  22.190  24.778  1.00  0.00     0.027 H 
ATOM     93  H   UNL A   1      37.685  22.161  26.231  1.00  0.00     0.027 H 
BRANCH  91  94
ATOM     94  C   UNL A   1      36.869  23.204  24.600  1.00  0.00    -0.036 C 
ATOM     95  H   UNL A   1      37.217  23.433  23.613  1.00  0.00     0.028 H 
ATOM     96  H   UNL A   1      36.962  24.031  25.272  1.00  0.00     0.028 H 
BRANCH  94  97
ATOM     97  C   UNL A   1      35.381  22.869  24.518  1.00  0.00     0.017 C 
ATOM     98  H   UNL A   1      34.885  23.270  25.375  1.00  0.00     0.049 H 
ATOM     99  H   UNL A   1      35.272  21.804  24.486  1.00  0.00     0.049 H 
BRANCH  97 100
ATOM    100  N   UNL A   1      34.790  23.430  23.321  1.00  0.00    -0.356 N 
ATOM    101  C   UNL A   1      34.037  24.553  23.155  1.00  0.00     0.229 C 
ATOM    102  H   UNL A   1      34.959  22.919  22.496  1.00  0.00     0.163 HD
ATOM    103  O   UNL A   1      33.517  24.733  22.053  1.00  0.00    -0.274 OA
BRANCH 101 104
ATOM    104  C   UNL A   1      33.860  25.513  24.322  1.00  0.00     0.080 C 
ATOM    105  C   UNL A   1      32.600  25.168  25.146  1.00  0.00    -0.018 C 
ATOM    106  C   UNL A   1      33.565  26.893  23.861  1.00  0.00     0.031 A 
ATOM    107  H   UNL A   1      34.772  25.434  24.876  1.00  0.00     0.047 H 
ATOM    108  C   UNL A   1      31.982  26.518  25.542  1.00  0.00     0.024 C 
ATOM    109  H   UNL A   1      32.865  24.608  26.018  1.00  0.00     0.030 H 
ATOM    110  H   UNL A   1      31.912  24.567  24.587  1.00  0.00     0.030 H 
ATOM    111  N   UNL A   1      32.533  27.444  24.566  1.00  0.00    -0.341 N 
ATOM    112  C   UNL A   1      34.002  27.801  22.938  1.00  0.00    -0.040 A 
ATOM    113  H   UNL A   1      32.270  26.793  26.534  1.00  0.00     0.050 H 
ATOM    114  H   UNL A   1      30.913  26.503  25.543  1.00  0.00     0.050 H 
ATOM    115  C   UNL A   1      32.283  28.722  24.165  1.00  0.00     0.090 A 
ATOM    116  C   UNL A   1      33.190  28.950  23.126  1.00  0.00    -0.033 A 
ATOM    117  H   UNL A   1      34.761  27.676  22.250  1.00  0.00     0.064 H 
ATOM    118  H   UNL A   1      33.259  29.822  22.578  1.00  0.00     0.065 H 
BRANCH 115 119
ATOM    119  C   UNL A   1      31.282  29.671  24.626  1.00  0.00     0.209 C 
ATOM    120  O   UNL A   1      31.434  30.363  25.632  1.00  0.00    -0.287 OA
BRANCH 119 121
ATOM    121  C   UNL A   1      30.020  29.870  23.884  1.00  0.00     0.024 A 
ATOM    122  C   UNL A   1      29.515  28.801  23.138  1.00  0.00    -0.051 A 
ATOM    123  C   UNL A   1      29.370  31.108  23.876  1.00  0.00    -0.051 A 
ATOM    124  C   UNL A   1      28.326  28.955  22.425  1.00  0.00    -0.062 A 
ATOM    125  H   UNL A   1      30.018  27.900  23.116  1.00  0.00     0.063 H 
ATOM    126  C   UNL A   1      28.174  31.253  23.171  1.00  0.00    -0.062 A 
ATOM    127  H   UNL A   1      29.772  31.909  24.388  1.00  0.00     0.063 H 
ATOM    128  C   UNL A   1      27.652  30.176  22.452  1.00  0.00    -0.062 A 
ATOM    129  H   UNL A   1      27.946  28.167  21.878  1.00  0.00     0.062 H 
ATOM    130  H   UNL A   1      27.675  32.156  23.183  1.00  0.00     0.062 H 
ATOM    131  H   UNL A   1      26.763  30.285  21.937  1.00  0.00     0.062 H 
ENDBRANCH 119 121
ENDBRANCH 115 119
ENDBRANCH 101 104
ENDBRANCH  97 100
ENDBRANCH  94  97
ENDBRANCH  91  94
ENDBRANCH   1  91
TORSDOF 15
ENDMDL
MODEL 7
REMARK VINA RESULT:     -12.6      2.247      7.869
REMARK SMILES O=C(NCCCCCCNC(=O)[C@@H]1CCn2c(C(=O)c3ccccc3)ccc21)c1ccc(-c2c3nc(c(-c4c(F)c(F)c(F)c(F)c4F)c4ccc([nH]4)c(-c4c(F)c(F)c(F)c(F)c4F)c4nc(c(-c5c(F)c(F)c(F)c(F)c5F)c5ccc2[nH]5)C=C4)C=C3)cc1
REMARK SMILES IDX 6 1 5 4 4 7 3 10 1 11 2 12 29 14 30 15 91 16 31 17 90 19
REMARK SMILES IDX 32 21 33 24 34 25 84 26 35 27 89 28 83 29 85 30 36 31 88 32
REMARK SMILES IDX 82 34 81 36 37 38 69 41 49 42 68 43 50 44 53 45 67 46 86 47
REMARK SMILES IDX 51 48 52 50 66 52 87 53 54 56 38 58 39 59 47 60 40 61 41 62
REMARK SMILES IDX 45 63 48 64 42 65 43 66 46 67 44 68 70 69 71 70 79 71 72 72
REMARK SMILES IDX 73 73 77 74 80 75 74 76 75 77 78 78 76 79 55 80 56 81 64 82
REMARK SMILES IDX 57 83 58 84 62 85 65 86 59 87 60 88 63 89 61 90 7 91 8 94
REMARK SMILES IDX 9 97 10 100 11 101 12 103 13 104 14 105 28 106 15 108 16 111
REMARK SMILES IDX 27 112 17 115 26 116 18 119 19 120 20 121 21 122 25 123
REMARK SMILES IDX 22 124 24 126 23 128
REMARK H PARENT 6 2 6 3 5 5 5 6 4 8 4 9 3 13 30 18 91 20 31 22 90 23 89 33
REMARK H PARENT 83 35 85 37 88 39 82 40 50 49 53 51 86 54 51 55 87 57 7 92
REMARK H PARENT 7 93 8 95 8 96 9 98 9 99 10 102 13 107 14 109 14 110 15 113
REMARK H PARENT 15 114 27 117 26 118 21 125 25 127 22 129 24 130 23 131
REMARK Flexibility Score: inf
ROOT
ATOM      1  C   UNL A   1      31.559  28.930  23.854  1.00  0.00    -0.052 C 
ATOM      2  H   UNL A   1      31.391  29.368  22.892  1.00  0.00     0.027 H 
ATOM      3  H   UNL A   1      31.217  29.543  24.661  1.00  0.00     0.027 H 
ENDROOT
BRANCH   1   4
ATOM      4  C   UNL A   1      33.067  28.770  24.045  1.00  0.00    -0.036 C 
ATOM      5  H   UNL A   1      33.322  27.747  23.861  1.00  0.00     0.028 H 
ATOM      6  H   UNL A   1      33.538  29.444  23.359  1.00  0.00     0.028 H 
BRANCH   4   7
ATOM      7  C   UNL A   1      33.562  29.144  25.434  1.00  0.00     0.018 C 
ATOM      8  H   UNL A   1      33.211  28.413  26.133  1.00  0.00     0.049 H 
ATOM      9  H   UNL A   1      34.631  29.172  25.407  1.00  0.00     0.049 H 
BRANCH   7  10
ATOM     10  N   UNL A   1      33.089  30.453  25.848  1.00  0.00    -0.352 N 
ATOM     11  O   UNL A   1      32.861  32.210  27.252  1.00  0.00    -0.269 OA
ATOM     12  C   UNL A   1      33.492  31.212  26.917  1.00  0.00     0.251 C 
ATOM     13  H   UNL A   1      32.384  30.850  25.287  1.00  0.00     0.163 HD
BRANCH  12  14
ATOM     14  C   UNL A   1      34.693  30.808  27.676  1.00  0.00     0.039 A 
ATOM     15  C   UNL A   1      35.753  31.705  27.843  1.00  0.00    -0.049 A 
ATOM     16  C   UNL A   1      34.754  29.529  28.232  1.00  0.00    -0.049 A 
ATOM     17  C   UNL A   1      36.922  31.282  28.463  1.00  0.00    -0.053 A 
ATOM     18  H   UNL A   1      35.667  32.676  27.506  1.00  0.00     0.063 H 
ATOM     19  C   UNL A   1      35.895  29.137  28.936  1.00  0.00    -0.053 A 
ATOM     20  H   UNL A   1      33.962  28.878  28.123  1.00  0.00     0.063 H 
ATOM     21  C   UNL A   1      36.991  30.008  29.046  1.00  0.00    -0.014 A 
ATOM     22  H   UNL A   1      37.741  31.909  28.496  1.00  0.00     0.063 H 
ATOM     23  H   UNL A   1      35.932  28.204  29.376  1.00  0.00     0.063 H 
BRANCH  21  24
ATOM     24  C   UNL A   1      38.172  29.649  29.867  1.00  0.00     0.031 A 
ATOM     25  C   UNL A   1      38.376  30.223  31.237  1.00  0.00     0.074 A 
ATOM     26  C   UNL A   1      39.073  28.795  29.342  1.00  0.00     0.049 A 
ATOM     27  N   UNL A   1      39.375  30.043  32.064  1.00  0.00    -0.248 NA
ATOM     28  C   UNL A   1      37.332  31.124  31.746  1.00  0.00    -0.034 C 
ATOM     29  C   UNL A   1      38.979  28.188  28.011  1.00  0.00    -0.036 A 
ATOM     30  N   UNL A   1      40.241  28.291  29.853  1.00  0.00    -0.354 N 
ATOM     31  C   UNL A   1      39.093  30.821  33.179  1.00  0.00     0.074 A 
ATOM     32  C   UNL A   1      37.837  31.490  32.918  1.00  0.00    -0.034 C 
ATOM     33  H   UNL A   1      36.439  31.400  31.307  1.00  0.00     0.065 H 
ATOM     34  C   UNL A   1      40.028  27.376  27.820  1.00  0.00    -0.036 A 
ATOM     35  H   UNL A   1      38.224  28.358  27.329  1.00  0.00     0.065 H 
ATOM     36  C   UNL A   1      40.906  27.464  28.980  1.00  0.00     0.049 A 
ATOM     37  H   UNL A   1      40.572  28.501  30.755  1.00  0.00     0.167 HD
ATOM     38  C   UNL A   1      39.822  30.955  34.313  1.00  0.00     0.037 A 
ATOM     39  H   UNL A   1      37.391  32.165  33.559  1.00  0.00     0.065 H 
ATOM     40  H   UNL A   1      40.188  26.787  26.989  1.00  0.00     0.065 H 
ATOM     41  C   UNL A   1      42.109  26.872  29.084  1.00  0.00     0.037 A 
ATOM     42  C   UNL A   1      41.066  30.270  34.561  1.00  0.00     0.049 A 
ATOM     43  C   UNL A   1      42.912  27.078  30.336  1.00  0.00     0.074 A 
ATOM     44  C   UNL A   1      41.844  30.287  35.705  1.00  0.00    -0.036 A 
ATOM     45  N   UNL A   1      41.720  29.458  33.646  1.00  0.00    -0.354 N 
ATOM     46  N   UNL A   1      42.603  27.762  31.411  1.00  0.00    -0.248 NA
ATOM     47  C   UNL A   1      44.232  26.437  30.389  1.00  0.00    -0.034 C 
ATOM     48  C   UNL A   1      43.002  29.544  35.459  1.00  0.00    -0.036 A 
ATOM     49  H   UNL A   1      41.610  30.767  36.589  1.00  0.00     0.065 H 
ATOM     50  C   UNL A   1      42.916  29.007  34.185  1.00  0.00     0.049 A 
ATOM     51  H   UNL A   1      41.385  29.235  32.747  1.00  0.00     0.167 HD
ATOM     52  C   UNL A   1      43.680  27.620  32.274  1.00  0.00     0.074 A 
ATOM     53  C   UNL A   1      44.639  26.764  31.607  1.00  0.00    -0.034 C 
ATOM     54  H   UNL A   1      44.714  25.879  29.668  1.00  0.00     0.065 H 
ATOM     55  H   UNL A   1      43.789  29.417  36.115  1.00  0.00     0.065 H 
ATOM     56  C   UNL A   1      43.860  28.154  33.506  1.00  0.00     0.037 A 
ATOM     57  H   UNL A   1      45.527  26.448  32.026  1.00  0.00     0.065 H 
BRANCH  38  58
ATOM     58  C   UNL A   1      39.320  31.897  35.370  1.00  0.00     0.064 A 
ATOM     59  C   UNL A   1      38.503  31.465  36.424  1.00  0.00     0.173 A 
ATOM     60  C   UNL A   1      39.728  33.242  35.368  1.00  0.00     0.173 A 
ATOM     61  F   UNL A   1      38.079  30.193  36.471  1.00  0.00    -0.203 F 
ATOM     62  C   UNL A   1      38.099  32.345  37.426  1.00  0.00     0.198 A 
ATOM     63  C   UNL A   1      39.347  34.111  36.386  1.00  0.00     0.198 A 
ATOM     64  F   UNL A   1      40.517  33.707  34.387  1.00  0.00    -0.203 F 
ATOM     65  F   UNL A   1      37.290  31.916  38.405  1.00  0.00    -0.200 F 
ATOM     66  C   UNL A   1      38.529  33.663  37.412  1.00  0.00     0.200 A 
ATOM     67  F   UNL A   1      39.777  35.380  36.378  1.00  0.00    -0.200 F 
ATOM     68  F   UNL A   1      38.153  34.503  38.386  1.00  0.00    -0.200 F 
ENDBRANCH  38  58
BRANCH  41  69
ATOM     69  C   UNL A   1      42.637  26.063  27.955  1.00  0.00     0.064 A 
ATOM     70  C   UNL A   1      42.330  24.701  27.832  1.00  0.00     0.173 A 
ATOM     71  C   UNL A   1      43.464  26.635  26.974  1.00  0.00     0.173 A 
ATOM     72  F   UNL A   1      41.557  24.104  28.751  1.00  0.00    -0.203 F 
ATOM     73  C   UNL A   1      42.850  23.938  26.788  1.00  0.00     0.198 A 
ATOM     74  C   UNL A   1      43.953  25.881  25.913  1.00  0.00     0.198 A 
ATOM     75  F   UNL A   1      43.782  27.937  27.040  1.00  0.00    -0.203 F 
ATOM     76  F   UNL A   1      42.585  22.627  26.726  1.00  0.00    -0.200 F 
ATOM     77  C   UNL A   1      43.655  24.530  25.827  1.00  0.00     0.200 A 
ATOM     78  F   UNL A   1      44.713  26.462  24.974  1.00  0.00    -0.200 F 
ATOM     79  F   UNL A   1      44.151  23.795  24.822  1.00  0.00    -0.200 F 
ENDBRANCH  41  69
BRANCH  56  80
ATOM     80  C   UNL A   1      45.132  27.809  34.224  1.00  0.00     0.064 A 
ATOM     81  C   UNL A   1      46.282  28.603  34.104  1.00  0.00     0.173 A 
ATOM     82  C   UNL A   1      45.188  26.697  35.076  1.00  0.00     0.173 A 
ATOM     83  F   UNL A   1      46.286  29.667  33.286  1.00  0.00    -0.203 F 
ATOM     84  C   UNL A   1      47.447  28.282  34.795  1.00  0.00     0.198 A 
ATOM     85  C   UNL A   1      46.343  26.398  35.791  1.00  0.00     0.198 A 
ATOM     86  F   UNL A   1      44.113  25.907  35.228  1.00  0.00    -0.203 F 
ATOM     87  F   UNL A   1      48.549  29.027  34.627  1.00  0.00    -0.200 F 
ATOM     88  C   UNL A   1      47.474  27.187  35.645  1.00  0.00     0.200 A 
ATOM     89  F   UNL A   1      46.362  25.348  36.623  1.00  0.00    -0.200 F 
ATOM     90  F   UNL A   1      48.593  26.887  36.319  1.00  0.00    -0.200 F 
ENDBRANCH  56  80
ENDBRANCH  21  24
ENDBRANCH  12  14
ENDBRANCH   7  10
ENDBRANCH   4   7
ENDBRANCH   1   4
BRANCH   1  91
ATOM     91  C   UNL A   1      30.759  27.626  23.931  1.00  0.00    -0.052 C 
ATOM     92  H   UNL A   1      31.283  26.881  23.370  1.00  0.00     0.027 H 
ATOM     93  H   UNL A   1      29.788  27.848  23.540  1.00  0.00     0.027 H 
BRANCH  91  94
ATOM     94  C   UNL A   1      30.537  27.086  25.349  1.00  0.00    -0.036 C 
ATOM     95  H   UNL A   1      30.038  27.839  25.921  1.00  0.00     0.028 H 
ATOM     96  H   UNL A   1      31.503  26.841  25.740  1.00  0.00     0.028 H 
BRANCH  94  97
ATOM     97  C   UNL A   1      29.703  25.808  25.407  1.00  0.00     0.017 C 
ATOM     98  H   UNL A   1      29.813  25.276  24.487  1.00  0.00     0.049 H 
ATOM     99  H   UNL A   1      28.679  26.074  25.566  1.00  0.00     0.049 H 
BRANCH  97 100
ATOM    100  N   UNL A   1      30.134  24.959  26.500  1.00  0.00    -0.356 N 
ATOM    101  C   UNL A   1      30.881  23.820  26.487  1.00  0.00     0.229 C 
ATOM    102  H   UNL A   1      29.841  25.252  27.393  1.00  0.00     0.163 HD
ATOM    103  O   UNL A   1      30.981  23.191  27.542  1.00  0.00    -0.274 OA
BRANCH 101 104
ATOM    104  C   UNL A   1      31.536  23.371  25.189  1.00  0.00     0.080 C 
ATOM    105  C   UNL A   1      31.945  21.883  25.253  1.00  0.00    -0.018 C 
ATOM    106  C   UNL A   1      32.840  24.046  24.968  1.00  0.00     0.031 A 
ATOM    107  H   UNL A   1      30.810  23.587  24.433  1.00  0.00     0.047 H 
ATOM    108  C   UNL A   1      33.296  21.794  24.526  1.00  0.00     0.024 C 
ATOM    109  H   UNL A   1      31.215  21.273  24.761  1.00  0.00     0.030 H 
ATOM    110  H   UNL A   1      32.015  21.533  26.262  1.00  0.00     0.030 H 
ATOM    111  N   UNL A   1      33.801  23.156  24.577  1.00  0.00    -0.341 N 
ATOM    112  C   UNL A   1      33.395  25.292  25.034  1.00  0.00    -0.040 A 
ATOM    113  H   UNL A   1      33.166  21.473  23.514  1.00  0.00     0.050 H 
ATOM    114  H   UNL A   1      33.963  21.087  24.972  1.00  0.00     0.050 H 
ATOM    115  C   UNL A   1      34.989  23.779  24.343  1.00  0.00     0.090 A 
ATOM    116  C   UNL A   1      34.750  25.123  24.647  1.00  0.00    -0.033 A 
ATOM    117  H   UNL A   1      32.927  26.170  25.309  1.00  0.00     0.064 H 
ATOM    118  H   UNL A   1      35.453  25.878  24.598  1.00  0.00     0.065 H 
BRANCH 115 119
ATOM    119  C   UNL A   1      36.270  23.231  23.926  1.00  0.00     0.209 C 
ATOM    120  O   UNL A   1      36.527  22.953  22.755  1.00  0.00    -0.287 OA
BRANCH 119 121
ATOM    121  C   UNL A   1      37.354  22.996  24.902  1.00  0.00     0.024 A 
ATOM    122  C   UNL A   1      37.889  21.708  25.001  1.00  0.00    -0.051 A 
ATOM    123  C   UNL A   1      37.802  24.014  25.749  1.00  0.00    -0.051 A 
ATOM    124  C   UNL A   1      38.913  21.451  25.912  1.00  0.00    -0.062 A 
ATOM    125  H   UNL A   1      37.529  20.950  24.401  1.00  0.00     0.063 H 
ATOM    126  C   UNL A   1      38.836  23.756  26.650  1.00  0.00    -0.062 A 
ATOM    127  H   UNL A   1      37.371  24.951  25.708  1.00  0.00     0.063 H 
ATOM    128  C   UNL A   1      39.392  22.478  26.727  1.00  0.00    -0.062 A 
ATOM    129  H   UNL A   1      39.315  20.504  25.984  1.00  0.00     0.062 H 
ATOM    130  H   UNL A   1      39.190  24.510  27.260  1.00  0.00     0.062 H 
ATOM    131  H   UNL A   1      40.162  22.291  27.390  1.00  0.00     0.062 H 
ENDBRANCH 119 121
ENDBRANCH 115 119
ENDBRANCH 101 104
ENDBRANCH  97 100
ENDBRANCH  94  97
ENDBRANCH  91  94
ENDBRANCH   1  91
TORSDOF 15
ENDMDL
MODEL 8
REMARK VINA RESULT:     -12.6      1.765      2.787
REMARK SMILES O=C(NCCCCCCNC(=O)[C@@H]1CCn2c(C(=O)c3ccccc3)ccc21)c1ccc(-c2c3nc(c(-c4c(F)c(F)c(F)c(F)c4F)c4ccc([nH]4)c(-c4c(F)c(F)c(F)c(F)c4F)c4nc(c(-c5c(F)c(F)c(F)c(F)c5F)c5ccc2[nH]5)C=C4)C=C3)cc1
REMARK SMILES IDX 6 1 5 4 4 7 3 10 1 11 2 12 29 14 30 15 91 16 31 17 90 19
REMARK SMILES IDX 32 21 33 24 34 25 84 26 35 27 89 28 83 29 85 30 36 31 88 32
REMARK SMILES IDX 82 34 81 36 37 38 69 41 49 42 68 43 50 44 53 45 67 46 86 47
REMARK SMILES IDX 51 48 52 50 66 52 87 53 54 56 38 58 39 59 47 60 40 61 41 62
REMARK SMILES IDX 45 63 48 64 42 65 43 66 46 67 44 68 70 69 71 70 79 71 72 72
REMARK SMILES IDX 73 73 77 74 80 75 74 76 75 77 78 78 76 79 55 80 56 81 64 82
REMARK SMILES IDX 57 83 58 84 62 85 65 86 59 87 60 88 63 89 61 90 7 91 8 94
REMARK SMILES IDX 9 97 10 100 11 101 12 103 13 104 14 105 28 106 15 108 16 111
REMARK SMILES IDX 27 112 17 115 26 116 18 119 19 120 20 121 21 122 25 123
REMARK SMILES IDX 22 124 24 126 23 128
REMARK H PARENT 6 2 6 3 5 5 5 6 4 8 4 9 3 13 30 18 91 20 31 22 90 23 89 33
REMARK H PARENT 83 35 85 37 88 39 82 40 50 49 53 51 86 54 51 55 87 57 7 92
REMARK H PARENT 7 93 8 95 8 96 9 98 9 99 10 102 13 107 14 109 14 110 15 113
REMARK H PARENT 15 114 27 117 26 118 21 125 25 127 22 129 24 130 23 131
REMARK Flexibility Score: inf
ROOT
ATOM      1  C   UNL A   1      31.778  30.726  26.874  1.00  0.00    -0.052 C 
ATOM      2  H   UNL A   1      31.040  30.275  27.504  1.00  0.00     0.027 H 
ATOM      3  H   UNL A   1      32.779  30.575  27.222  1.00  0.00     0.027 H 
ENDROOT
BRANCH   1   4
ATOM      4  C   UNL A   1      31.546  32.237  26.879  1.00  0.00    -0.036 C 
ATOM      5  H   UNL A   1      31.105  32.511  25.943  1.00  0.00     0.028 H 
ATOM      6  H   UNL A   1      30.910  32.448  27.713  1.00  0.00     0.028 H 
BRANCH   4   7
ATOM      7  C   UNL A   1      32.810  33.060  27.072  1.00  0.00     0.018 C 
ATOM      8  H   UNL A   1      33.464  32.536  27.737  1.00  0.00     0.049 H 
ATOM      9  H   UNL A   1      33.264  33.198  26.113  1.00  0.00     0.049 H 
BRANCH   7  10
ATOM     10  N   UNL A   1      32.528  34.373  27.627  1.00  0.00    -0.352 N 
ATOM     11  O   UNL A   1      32.575  35.996  29.199  1.00  0.00    -0.269 OA
ATOM     12  C   UNL A   1      33.058  34.962  28.746  1.00  0.00     0.251 C 
ATOM     13  H   UNL A   1      31.867  34.911  27.135  1.00  0.00     0.163 HD
BRANCH  12  14
ATOM     14  C   UNL A   1      34.215  34.333  29.413  1.00  0.00     0.039 A 
ATOM     15  C   UNL A   1      34.020  33.485  30.508  1.00  0.00    -0.049 A 
ATOM     16  C   UNL A   1      35.503  34.584  28.934  1.00  0.00    -0.049 A 
ATOM     17  C   UNL A   1      35.117  32.984  31.197  1.00  0.00    -0.053 A 
ATOM     18  H   UNL A   1      33.063  33.234  30.803  1.00  0.00     0.063 H 
ATOM     19  C   UNL A   1      36.601  34.004  29.572  1.00  0.00    -0.053 A 
ATOM     20  H   UNL A   1      35.641  35.194  28.114  1.00  0.00     0.063 H 
ATOM     21  C   UNL A   1      36.416  33.210  30.716  1.00  0.00    -0.014 A 
ATOM     22  H   UNL A   1      34.975  32.444  32.065  1.00  0.00     0.063 H 
ATOM     23  H   UNL A   1      37.552  34.161  29.203  1.00  0.00     0.063 H 
BRANCH  21  24
ATOM     24  C   UNL A   1      37.557  32.510  31.352  1.00  0.00     0.031 A 
ATOM     25  C   UNL A   1      38.243  31.359  30.677  1.00  0.00     0.074 A 
ATOM     26  C   UNL A   1      37.958  32.927  32.569  1.00  0.00     0.049 A 
ATOM     27  N   UNL A   1      39.227  30.616  31.118  1.00  0.00    -0.248 NA
ATOM     28  C   UNL A   1      37.762  30.985  29.340  1.00  0.00    -0.034 C 
ATOM     29  C   UNL A   1      37.350  34.029  33.322  1.00  0.00    -0.036 A 
ATOM     30  N   UNL A   1      38.962  32.482  33.389  1.00  0.00    -0.354 N 
ATOM     31  C   UNL A   1      39.468  29.675  30.126  1.00  0.00     0.074 A 
ATOM     32  C   UNL A   1      38.517  29.929  29.065  1.00  0.00    -0.034 C 
ATOM     33  H   UNL A   1      37.028  31.429  28.764  1.00  0.00     0.065 H 
ATOM     34  C   UNL A   1      38.007  34.189  34.478  1.00  0.00    -0.036 A 
ATOM     35  H   UNL A   1      36.544  34.592  33.010  1.00  0.00     0.065 H 
ATOM     36  C   UNL A   1      39.031  33.157  34.584  1.00  0.00     0.049 A 
ATOM     37  H   UNL A   1      39.574  31.751  33.146  1.00  0.00     0.167 HD
ATOM     38  C   UNL A   1      40.403  28.694  30.111  1.00  0.00     0.037 A 
ATOM     39  H   UNL A   1      38.436  29.362  28.206  1.00  0.00     0.065 H 
ATOM     40  H   UNL A   1      37.820  34.923  35.179  1.00  0.00     0.065 H 
ATOM     41  C   UNL A   1      39.804  32.945  35.663  1.00  0.00     0.037 A 
ATOM     42  C   UNL A   1      41.352  28.464  31.172  1.00  0.00     0.049 A 
ATOM     43  C   UNL A   1      40.799  31.820  35.631  1.00  0.00     0.074 A 
ATOM     44  C   UNL A   1      42.381  27.541  31.220  1.00  0.00    -0.036 A 
ATOM     45  N   UNL A   1      41.376  29.153  32.376  1.00  0.00    -0.354 N 
ATOM     46  N   UNL A   1      41.064  30.981  34.660  1.00  0.00    -0.248 NA
ATOM     47  C   UNL A   1      41.598  31.608  36.844  1.00  0.00    -0.034 C 
ATOM     48  C   UNL A   1      42.983  27.622  32.479  1.00  0.00    -0.036 A 
ATOM     49  H   UNL A   1      42.656  26.901  30.458  1.00  0.00     0.065 H 
ATOM     50  C   UNL A   1      42.375  28.642  33.192  1.00  0.00     0.049 A 
ATOM     51  H   UNL A   1      40.775  29.895  32.616  1.00  0.00     0.167 HD
ATOM     52  C   UNL A   1      42.070  30.153  35.136  1.00  0.00     0.074 A 
ATOM     53  C   UNL A   1      42.386  30.609  36.474  1.00  0.00    -0.034 C 
ATOM     54  H   UNL A   1      41.557  32.108  37.746  1.00  0.00     0.065 H 
ATOM     55  H   UNL A   1      43.752  27.023  32.820  1.00  0.00     0.065 H 
ATOM     56  C   UNL A   1      42.676  29.107  34.523  1.00  0.00     0.037 A 
ATOM     57  H   UNL A   1      43.129  30.206  37.066  1.00  0.00     0.065 H 
BRANCH  38  58
ATOM     58  C   UNL A   1      40.439  27.769  28.928  1.00  0.00     0.064 A 
ATOM     59  C   UNL A   1      39.656  26.607  28.869  1.00  0.00     0.173 A 
ATOM     60  C   UNL A   1      41.214  28.094  27.802  1.00  0.00     0.173 A 
ATOM     61  F   UNL A   1      38.903  26.247  29.918  1.00  0.00    -0.203 F 
ATOM     62  C   UNL A   1      39.661  25.796  27.736  1.00  0.00     0.198 A 
ATOM     63  C   UNL A   1      41.194  27.297  26.661  1.00  0.00     0.198 A 
ATOM     64  F   UNL A   1      41.975  29.199  27.802  1.00  0.00    -0.203 F 
ATOM     65  F   UNL A   1      38.931  24.672  27.716  1.00  0.00    -0.200 F 
ATOM     66  C   UNL A   1      40.421  26.146  26.630  1.00  0.00     0.200 A 
ATOM     67  F   UNL A   1      41.917  27.647  25.588  1.00  0.00    -0.200 F 
ATOM     68  F   UNL A   1      40.412  25.374  25.536  1.00  0.00    -0.200 F 
ENDBRANCH  38  58
BRANCH  41  69
ATOM     69  C   UNL A   1      39.638  33.792  36.872  1.00  0.00     0.064 A 
ATOM     70  C   UNL A   1      38.803  33.396  37.926  1.00  0.00     0.173 A 
ATOM     71  C   UNL A   1      40.310  35.018  36.999  1.00  0.00     0.173 A 
ATOM     72  F   UNL A   1      38.127  32.241  37.845  1.00  0.00    -0.203 F 
ATOM     73  C   UNL A   1      38.625  34.206  39.045  1.00  0.00     0.198 A 
ATOM     74  C   UNL A   1      40.161  35.809  38.135  1.00  0.00     0.198 A 
ATOM     75  F   UNL A   1      41.129  35.440  36.024  1.00  0.00    -0.203 F 
ATOM     76  F   UNL A   1      37.778  33.829  40.012  1.00  0.00    -0.200 F 
ATOM     77  C   UNL A   1      39.309  35.408  39.152  1.00  0.00     0.200 A 
ATOM     78  F   UNL A   1      40.841  36.959  38.242  1.00  0.00    -0.200 F 
ATOM     79  F   UNL A   1      39.140  36.183  40.231  1.00  0.00    -0.200 F 
ENDBRANCH  41  69
BRANCH  56  80
ATOM     80  C   UNL A   1      43.757  28.398  35.284  1.00  0.00     0.064 A 
ATOM     81  C   UNL A   1      45.092  28.822  35.230  1.00  0.00     0.173 A 
ATOM     82  C   UNL A   1      43.445  27.310  36.113  1.00  0.00     0.173 A 
ATOM     83  F   UNL A   1      45.445  29.845  34.437  1.00  0.00    -0.203 F 
ATOM     84  C   UNL A   1      46.080  28.168  35.962  1.00  0.00     0.198 A 
ATOM     85  C   UNL A   1      44.429  26.680  36.868  1.00  0.00     0.198 A 
ATOM     86  F   UNL A   1      42.182  26.868  36.203  1.00  0.00    -0.203 F 
ATOM     87  F   UNL A   1      47.358  28.559  35.857  1.00  0.00    -0.200 F 
ATOM     88  C   UNL A   1      45.747  27.105  36.788  1.00  0.00     0.200 A 
ATOM     89  F   UNL A   1      44.102  25.663  37.677  1.00  0.00    -0.200 F 
ATOM     90  F   UNL A   1      46.697  26.485  37.501  1.00  0.00    -0.200 F 
ENDBRANCH  56  80
ENDBRANCH  21  24
ENDBRANCH  12  14
ENDBRANCH   7  10
ENDBRANCH   4   7
ENDBRANCH   1   4
BRANCH   1  91
ATOM     91  C   UNL A   1      31.696  30.066  25.494  1.00  0.00    -0.052 C 
ATOM     92  H   UNL A   1      31.537  30.836  24.768  1.00  0.00     0.027 H 
ATOM     93  H   UNL A   1      30.893  29.360  25.548  1.00  0.00     0.027 H 
BRANCH  91  94
ATOM     94  C   UNL A   1      32.940  29.271  25.081  1.00  0.00    -0.036 C 
ATOM     95  H   UNL A   1      33.108  28.508  25.813  1.00  0.00     0.028 H 
ATOM     96  H   UNL A   1      33.747  29.970  25.020  1.00  0.00     0.028 H 
BRANCH  94  97
ATOM     97  C   UNL A   1      32.830  28.606  23.711  1.00  0.00     0.017 C 
ATOM     98  H   UNL A   1      32.617  27.566  23.843  1.00  0.00     0.049 H 
ATOM     99  H   UNL A   1      33.758  28.735  23.193  1.00  0.00     0.049 H 
BRANCH  97 100
ATOM    100  N   UNL A   1      31.774  29.211  22.926  1.00  0.00    -0.356 N 
ATOM    101  C   UNL A   1      30.648  28.660  22.392  1.00  0.00     0.229 C 
ATOM    102  H   UNL A   1      31.888  30.173  22.750  1.00  0.00     0.163 HD
ATOM    103  O   UNL A   1      29.981  29.356  21.626  1.00  0.00    -0.274 OA
BRANCH 101 104
ATOM    104  C   UNL A   1      30.279  27.227  22.746  1.00  0.00     0.080 C 
ATOM    105  C   UNL A   1      30.234  27.020  24.276  1.00  0.00    -0.018 C 
ATOM    106  C   UNL A   1      31.333  26.267  22.329  1.00  0.00     0.031 A 
ATOM    107  H   UNL A   1      29.339  27.064  22.261  1.00  0.00     0.047 H 
ATOM    108  C   UNL A   1      30.828  25.624  24.521  1.00  0.00     0.024 C 
ATOM    109  H   UNL A   1      29.225  27.064  24.629  1.00  0.00     0.030 H 
ATOM    110  H   UNL A   1      30.781  27.779  24.795  1.00  0.00     0.030 H 
ATOM    111  N   UNL A   1      31.609  25.369  23.322  1.00  0.00    -0.341 N 
ATOM    112  C   UNL A   1      32.131  25.994  21.254  1.00  0.00    -0.040 A 
ATOM    113  H   UNL A   1      30.054  24.894  24.635  1.00  0.00     0.050 H 
ATOM    114  H   UNL A   1      31.412  25.571  25.416  1.00  0.00     0.050 H 
ATOM    115  C   UNL A   1      32.553  24.469  22.930  1.00  0.00     0.090 A 
ATOM    116  C   UNL A   1      32.903  24.866  21.636  1.00  0.00    -0.033 A 
ATOM    117  H   UNL A   1      32.164  26.501  20.357  1.00  0.00     0.064 H 
ATOM    118  H   UNL A   1      33.616  24.407  21.046  1.00  0.00     0.065 H 
BRANCH 115 119
ATOM    119  C   UNL A   1      33.149  23.359  23.656  1.00  0.00     0.209 C 
ATOM    120  O   UNL A   1      32.533  22.327  23.920  1.00  0.00    -0.287 OA
BRANCH 119 121
ATOM    121  C   UNL A   1      34.557  23.408  24.102  1.00  0.00     0.024 A 
ATOM    122  C   UNL A   1      34.843  24.014  25.329  1.00  0.00    -0.051 A 
ATOM    123  C   UNL A   1      35.590  22.913  23.300  1.00  0.00    -0.051 A 
ATOM    124  C   UNL A   1      36.160  24.078  25.780  1.00  0.00    -0.062 A 
ATOM    125  H   UNL A   1      34.081  24.412  25.900  1.00  0.00     0.063 H 
ATOM    126  C   UNL A   1      36.907  22.967  23.761  1.00  0.00    -0.062 A 
ATOM    127  H   UNL A   1      35.381  22.510  22.373  1.00  0.00     0.063 H 
ATOM    128  C   UNL A   1      37.188  23.545  25.001  1.00  0.00    -0.062 A 
ATOM    129  H   UNL A   1      36.375  24.520  26.687  1.00  0.00     0.062 H 
ATOM    130  H   UNL A   1      37.671  22.580  23.187  1.00  0.00     0.062 H 
ATOM    131  H   UNL A   1      38.162  23.577  25.343  1.00  0.00     0.062 H 
ENDBRANCH 119 121
ENDBRANCH 115 119
ENDBRANCH 101 104
ENDBRANCH  97 100
ENDBRANCH  94  97
ENDBRANCH  91  94
ENDBRANCH   1  91
TORSDOF 15
ENDMDL
MODEL 9
REMARK VINA RESULT:     -12.5      1.988      7.840
REMARK SMILES O=C(NCCCCCCNC(=O)[C@@H]1CCn2c(C(=O)c3ccccc3)ccc21)c1ccc(-c2c3nc(c(-c4c(F)c(F)c(F)c(F)c4F)c4ccc([nH]4)c(-c4c(F)c(F)c(F)c(F)c4F)c4nc(c(-c5c(F)c(F)c(F)c(F)c5F)c5ccc2[nH]5)C=C4)C=C3)cc1
REMARK SMILES IDX 6 1 5 4 4 7 3 10 1 11 2 12 29 14 30 15 91 16 31 17 90 19
REMARK SMILES IDX 32 21 33 24 34 25 84 26 35 27 89 28 83 29 85 30 36 31 88 32
REMARK SMILES IDX 82 34 81 36 37 38 69 41 49 42 68 43 50 44 53 45 67 46 86 47
REMARK SMILES IDX 51 48 52 50 66 52 87 53 54 56 38 58 39 59 47 60 40 61 41 62
REMARK SMILES IDX 45 63 48 64 42 65 43 66 46 67 44 68 70 69 71 70 79 71 72 72
REMARK SMILES IDX 73 73 77 74 80 75 74 76 75 77 78 78 76 79 55 80 56 81 64 82
REMARK SMILES IDX 57 83 58 84 62 85 65 86 59 87 60 88 63 89 61 90 7 91 8 94
REMARK SMILES IDX 9 97 10 100 11 101 12 103 13 104 14 105 28 106 15 108 16 111
REMARK SMILES IDX 27 112 17 115 26 116 18 119 19 120 20 121 21 122 25 123
REMARK SMILES IDX 22 124 24 126 23 128
REMARK H PARENT 6 2 6 3 5 5 5 6 4 8 4 9 3 13 30 18 91 20 31 22 90 23 89 33
REMARK H PARENT 83 35 85 37 88 39 82 40 50 49 53 51 86 54 51 55 87 57 7 92
REMARK H PARENT 7 93 8 95 8 96 9 98 9 99 10 102 13 107 14 109 14 110 15 113
REMARK H PARENT 15 114 27 117 26 118 21 125 25 127 22 129 24 130 23 131
REMARK Flexibility Score: inf
ROOT
ATOM      1  C   UNL A   1      34.623  33.887  29.024  1.00  0.00    -0.052 C 
ATOM      2  H   UNL A   1      35.075  33.965  29.992  1.00  0.00     0.027 H 
ATOM      3  H   UNL A   1      35.182  34.379  28.257  1.00  0.00     0.027 H 
ENDROOT
BRANCH   1   4
ATOM      4  C   UNL A   1      33.263  34.582  29.079  1.00  0.00    -0.036 C 
ATOM      5  H   UNL A   1      32.834  34.559  28.099  1.00  0.00     0.028 H 
ATOM      6  H   UNL A   1      32.675  34.054  29.801  1.00  0.00     0.028 H 
BRANCH   4   7
ATOM      7  C   UNL A   1      33.323  36.031  29.540  1.00  0.00     0.018 C 
ATOM      8  H   UNL A   1      34.337  36.274  29.781  1.00  0.00     0.049 H 
ATOM      9  H   UNL A   1      32.956  36.646  28.745  1.00  0.00     0.049 H 
BRANCH   7  10
ATOM     10  N   UNL A   1      32.493  36.267  30.709  1.00  0.00    -0.352 N 
ATOM     11  O   UNL A   1      31.717  35.877  32.795  1.00  0.00    -0.269 OA
ATOM     12  C   UNL A   1      32.611  35.735  31.967  1.00  0.00     0.251 C 
ATOM     13  H   UNL A   1      31.745  36.894  30.581  1.00  0.00     0.163 HD
BRANCH  12  14
ATOM     14  C   UNL A   1      33.826  34.972  32.315  1.00  0.00     0.039 A 
ATOM     15  C   UNL A   1      35.081  35.588  32.271  1.00  0.00    -0.049 A 
ATOM     16  C   UNL A   1      33.709  33.634  32.699  1.00  0.00    -0.049 A 
ATOM     17  C   UNL A   1      36.227  34.836  32.494  1.00  0.00    -0.053 A 
ATOM     18  H   UNL A   1      35.154  36.598  32.072  1.00  0.00     0.063 H 
ATOM     19  C   UNL A   1      34.857  32.903  33.013  1.00  0.00    -0.053 A 
ATOM     20  H   UNL A   1      32.781  33.188  32.749  1.00  0.00     0.063 H 
ATOM     21  C   UNL A   1      36.125  33.497  32.901  1.00  0.00    -0.014 A 
ATOM     22  H   UNL A   1      37.157  35.265  32.361  1.00  0.00     0.063 H 
ATOM     23  H   UNL A   1      34.774  31.924  33.327  1.00  0.00     0.063 H 
BRANCH  21  24
ATOM     24  C   UNL A   1      37.348  32.771  33.319  1.00  0.00     0.031 A 
ATOM     25  C   UNL A   1      38.041  33.086  34.612  1.00  0.00     0.074 A 
ATOM     26  C   UNL A   1      37.834  31.821  32.496  1.00  0.00     0.049 A 
ATOM     27  N   UNL A   1      39.141  32.571  35.101  1.00  0.00    -0.248 NA
ATOM     28  C   UNL A   1      37.430  34.116  35.464  1.00  0.00    -0.034 C 
ATOM     29  C   UNL A   1      37.244  31.445  31.207  1.00  0.00    -0.036 A 
ATOM     30  N   UNL A   1      38.927  31.002  32.611  1.00  0.00    -0.354 N 
ATOM     31  C   UNL A   1      39.367  33.227  36.303  1.00  0.00     0.074 A 
ATOM     32  C   UNL A   1      38.299  34.190  36.465  1.00  0.00    -0.034 C 
ATOM     33  H   UNL A   1      36.555  34.643  35.322  1.00  0.00     0.065 H 
ATOM     34  C   UNL A   1      37.965  30.455  30.664  1.00  0.00    -0.036 A 
ATOM     35  H   UNL A   1      36.406  31.874  30.786  1.00  0.00     0.065 H 
ATOM     36  C   UNL A   1      39.108  30.179  31.525  1.00  0.00     0.049 A 
ATOM     37  H   UNL A   1      39.523  31.002  33.393  1.00  0.00     0.167 HD
ATOM     38  C   UNL A   1      40.376  33.033  37.186  1.00  0.00     0.037 A 
ATOM     39  H   UNL A   1      38.223  34.850  37.255  1.00  0.00     0.065 H 
ATOM     40  H   UNL A   1      37.748  29.968  29.781  1.00  0.00     0.065 H 
ATOM     41  C   UNL A   1      40.105  29.325  31.235  1.00  0.00     0.037 A 
ATOM     42  C   UNL A   1      41.426  32.059  37.015  1.00  0.00     0.049 A 
ATOM     43  C   UNL A   1      41.232  29.167  32.214  1.00  0.00     0.074 A 
ATOM     44  C   UNL A   1      42.454  31.740  37.885  1.00  0.00    -0.036 A 
ATOM     45  N   UNL A   1      41.590  31.260  35.893  1.00  0.00    -0.354 N 
ATOM     46  N   UNL A   1      41.398  29.743  33.380  1.00  0.00    -0.248 NA
ATOM     47  C   UNL A   1      42.313  28.247  31.839  1.00  0.00    -0.034 C 
ATOM     48  C   UNL A   1      43.279  30.799  37.262  1.00  0.00    -0.036 A 
ATOM     49  H   UNL A   1      42.588  32.130  38.831  1.00  0.00     0.065 H 
ATOM     50  C   UNL A   1      42.730  30.481  36.030  1.00  0.00     0.049 A 
ATOM     51  H   UNL A   1      40.987  31.247  35.115  1.00  0.00     0.167 HD
ATOM     52  C   UNL A   1      42.590  29.244  33.885  1.00  0.00     0.074 A 
ATOM     53  C   UNL A   1      43.092  28.299  32.909  1.00  0.00    -0.034 C 
ATOM     54  H   UNL A   1      42.432  27.703  30.970  1.00  0.00     0.065 H 
ATOM     55  H   UNL A   1      44.151  30.409  37.653  1.00  0.00     0.065 H 
ATOM     56  C   UNL A   1      43.216  29.545  35.049  1.00  0.00     0.037 A 
ATOM     57  H   UNL A   1      43.949  27.737  33.031  1.00  0.00     0.065 H 
BRANCH  38  58
ATOM     58  C   UNL A   1      40.424  33.904  38.409  1.00  0.00     0.064 A 
ATOM     59  C   UNL A   1      41.135  35.113  38.434  1.00  0.00     0.173 A 
ATOM     60  C   UNL A   1      39.681  33.559  39.550  1.00  0.00     0.173 A 
ATOM     61  F   UNL A   1      41.866  35.487  37.373  1.00  0.00    -0.203 F 
ATOM     62  C   UNL A   1      41.115  35.934  39.560  1.00  0.00     0.198 A 
ATOM     63  C   UNL A   1      39.640  34.396  40.662  1.00  0.00     0.198 A 
ATOM     64  F   UNL A   1      38.976  32.418  39.578  1.00  0.00    -0.203 F 
ATOM     65  F   UNL A   1      41.830  37.068  39.572  1.00  0.00    -0.200 F 
ATOM     66  C   UNL A   1      40.361  35.580  40.668  1.00  0.00     0.200 A 
ATOM     67  F   UNL A   1      38.897  34.059  41.726  1.00  0.00    -0.200 F 
ATOM     68  F   UNL A   1      40.330  36.379  41.743  1.00  0.00    -0.200 F 
ENDBRANCH  38  58
BRANCH  41  69
ATOM     69  C   UNL A   1      40.097  28.587  29.945  1.00  0.00     0.064 A 
ATOM     70  C   UNL A   1      39.489  27.329  29.833  1.00  0.00     0.173 A 
ATOM     71  C   UNL A   1      40.700  29.124  28.796  1.00  0.00     0.173 A 
ATOM     72  F   UNL A   1      38.913  26.767  30.905  1.00  0.00    -0.203 F 
ATOM     73  C   UNL A   1      39.509  26.626  28.630  1.00  0.00     0.198 A 
ATOM     74  C   UNL A   1      40.687  28.437  27.586  1.00  0.00     0.198 A 
ATOM     75  F   UNL A   1      41.289  30.328  28.846  1.00  0.00    -0.203 F 
ATOM     76  F   UNL A   1      38.968  25.402  28.566  1.00  0.00    -0.200 F 
ATOM     77  C   UNL A   1      40.101  27.183  27.507  1.00  0.00     0.200 A 
ATOM     78  F   UNL A   1      41.242  28.988  26.498  1.00  0.00    -0.200 F 
ATOM     79  F   UNL A   1      40.115  26.507  26.350  1.00  0.00    -0.200 F 
ENDBRANCH  41  69
BRANCH  56  80
ATOM     80  C   UNL A   1      44.500  28.826  35.342  1.00  0.00     0.064 A 
ATOM     81  C   UNL A   1      45.743  29.364  34.978  1.00  0.00     0.173 A 
ATOM     82  C   UNL A   1      44.489  27.607  36.036  1.00  0.00     0.173 A 
ATOM     83  F   UNL A   1      45.806  30.518  34.296  1.00  0.00    -0.203 F 
ATOM     84  C   UNL A   1      46.927  28.696  35.279  1.00  0.00     0.198 A 
ATOM     85  C   UNL A   1      45.675  26.959  36.364  1.00  0.00     0.198 A 
ATOM     86  F   UNL A   1      43.326  27.052  36.410  1.00  0.00    -0.203 F 
ATOM     87  F   UNL A   1      48.101  29.205  34.879  1.00  0.00    -0.200 F 
ATOM     88  C   UNL A   1      46.893  27.500  35.980  1.00  0.00     0.200 A 
ATOM     89  F   UNL A   1      45.641  25.811  37.055  1.00  0.00    -0.200 F 
ATOM     90  F   UNL A   1      48.034  26.865  36.281  1.00  0.00    -0.200 F 
ENDBRANCH  56  80
ENDBRANCH  21  24
ENDBRANCH  12  14
ENDBRANCH   7  10
ENDBRANCH   4   7
ENDBRANCH   1   4
BRANCH   1  91
ATOM     91  C   UNL A   1      34.572  32.405  28.639  1.00  0.00    -0.052 C 
ATOM     92  H   UNL A   1      34.384  31.838  29.527  1.00  0.00     0.027 H 
ATOM     93  H   UNL A   1      35.515  32.182  28.184  1.00  0.00     0.027 H 
BRANCH  91  94
ATOM     94  C   UNL A   1      33.500  32.041  27.605  1.00  0.00    -0.036 C 
ATOM     95  H   UNL A   1      33.687  32.605  26.715  1.00  0.00     0.028 H 
ATOM     96  H   UNL A   1      32.554  32.269  28.049  1.00  0.00     0.028 H 
BRANCH  94  97
ATOM     97  C   UNL A   1      33.466  30.559  27.235  1.00  0.00     0.017 C 
ATOM     98  H   UNL A   1      33.485  29.975  28.130  1.00  0.00     0.049 H 
ATOM     99  H   UNL A   1      34.318  30.339  26.626  1.00  0.00     0.049 H 
BRANCH  97 100
ATOM    100  N   UNL A   1      32.268  30.242  26.485  1.00  0.00    -0.356 N 
ATOM    101  C   UNL A   1      32.123  29.627  25.279  1.00  0.00     0.229 C 
ATOM    102  H   UNL A   1      31.426  30.515  26.916  1.00  0.00     0.163 HD
ATOM    103  O   UNL A   1      30.998  29.613  24.777  1.00  0.00    -0.274 OA
BRANCH 101 104
ATOM    104  C   UNL A   1      33.338  29.006  24.605  1.00  0.00     0.080 C 
ATOM    105  C   UNL A   1      33.158  28.942  23.073  1.00  0.00    -0.018 C 
ATOM    106  C   UNL A   1      33.494  27.574  24.963  1.00  0.00     0.031 A 
ATOM    107  H   UNL A   1      34.159  29.616  24.918  1.00  0.00     0.047 H 
ATOM    108  C   UNL A   1      33.771  27.601  22.640  1.00  0.00     0.024 C 
ATOM    109  H   UNL A   1      33.670  29.756  22.602  1.00  0.00     0.030 H 
ATOM    110  H   UNL A   1      32.128  29.016  22.790  1.00  0.00     0.030 H 
ATOM    111  N   UNL A   1      33.757  26.811  23.861  1.00  0.00    -0.341 N 
ATOM    112  C   UNL A   1      33.455  26.761  26.061  1.00  0.00    -0.040 A 
ATOM    113  H   UNL A   1      34.770  27.734  22.283  1.00  0.00     0.050 H 
ATOM    114  H   UNL A   1      33.235  27.137  21.839  1.00  0.00     0.050 H 
ATOM    115  C   UNL A   1      33.933  25.501  24.192  1.00  0.00     0.090 A 
ATOM    116  C   UNL A   1      33.725  25.456  25.574  1.00  0.00    -0.033 A 
ATOM    117  H   UNL A   1      33.268  27.039  27.037  1.00  0.00     0.064 H 
ATOM    118  H   UNL A   1      33.762  24.602  26.153  1.00  0.00     0.065 H 
BRANCH 115 119
ATOM    119  C   UNL A   1      34.216  24.350  23.350  1.00  0.00     0.209 C 
ATOM    120  O   UNL A   1      33.869  24.285  22.171  1.00  0.00    -0.287 OA
BRANCH 119 121
ATOM    121  C   UNL A   1      34.969  23.191  23.871  1.00  0.00     0.024 A 
ATOM    122  C   UNL A   1      36.366  23.257  23.878  1.00  0.00    -0.051 A 
ATOM    123  C   UNL A   1      34.314  22.031  24.296  1.00  0.00    -0.051 A 
ATOM    124  C   UNL A   1      37.107  22.180  24.362  1.00  0.00    -0.062 A 
ATOM    125  H   UNL A   1      36.847  24.099  23.528  1.00  0.00     0.063 H 
ATOM    126  C   UNL A   1      35.060  20.961  24.792  1.00  0.00    -0.062 A 
ATOM    127  H   UNL A   1      33.285  21.967  24.244  1.00  0.00     0.063 H 
ATOM    128  C   UNL A   1      36.453  21.039  24.828  1.00  0.00    -0.062 A 
ATOM    129  H   UNL A   1      38.138  22.226  24.374  1.00  0.00     0.062 H 
ATOM    130  H   UNL A   1      34.582  20.112  25.132  1.00  0.00     0.062 H 
ATOM    131  H   UNL A   1      37.002  20.248  25.202  1.00  0.00     0.062 H 
ENDBRANCH 119 121
ENDBRANCH 115 119
ENDBRANCH 101 104
ENDBRANCH  97 100
ENDBRANCH  94  97
ENDBRANCH  91  94
ENDBRANCH   1  91
TORSDOF 15
ENDMDL
MODEL 10
REMARK VINA RESULT:     -12.5      2.203      3.653
REMARK SMILES O=C(NCCCCCCNC(=O)[C@@H]1CCn2c(C(=O)c3ccccc3)ccc21)c1ccc(-c2c3nc(c(-c4c(F)c(F)c(F)c(F)c4F)c4ccc([nH]4)c(-c4c(F)c(F)c(F)c(F)c4F)c4nc(c(-c5c(F)c(F)c(F)c(F)c5F)c5ccc2[nH]5)C=C4)C=C3)cc1
REMARK SMILES IDX 6 1 5 4 4 7 3 10 1 11 2 12 29 14 30 15 91 16 31 17 90 19
REMARK SMILES IDX 32 21 33 24 34 25 84 26 35 27 89 28 83 29 85 30 36 31 88 32
REMARK SMILES IDX 82 34 81 36 37 38 69 41 49 42 68 43 50 44 53 45 67 46 86 47
REMARK SMILES IDX 51 48 52 50 66 52 87 53 54 56 38 58 39 59 47 60 40 61 41 62
REMARK SMILES IDX 45 63 48 64 42 65 43 66 46 67 44 68 70 69 71 70 79 71 72 72
REMARK SMILES IDX 73 73 77 74 80 75 74 76 75 77 78 78 76 79 55 80 56 81 64 82
REMARK SMILES IDX 57 83 58 84 62 85 65 86 59 87 60 88 63 89 61 90 7 91 8 94
REMARK SMILES IDX 9 97 10 100 11 101 12 103 13 104 14 105 28 106 15 108 16 111
REMARK SMILES IDX 27 112 17 115 26 116 18 119 19 120 20 121 21 122 25 123
REMARK SMILES IDX 22 124 24 126 23 128
REMARK H PARENT 6 2 6 3 5 5 5 6 4 8 4 9 3 13 30 18 91 20 31 22 90 23 89 33
REMARK H PARENT 83 35 85 37 88 39 82 40 50 49 53 51 86 54 51 55 87 57 7 92
REMARK H PARENT 7 93 8 95 8 96 9 98 9 99 10 102 13 107 14 109 14 110 15 113
REMARK H PARENT 15 114 27 117 26 118 21 125 25 127 22 129 24 130 23 131
REMARK Flexibility Score: inf
ROOT
ATOM      1  C   UNL A   1      31.406  28.795  23.910  1.00  0.00    -0.052 C 
ATOM      2  H   UNL A   1      31.111  29.223  22.974  1.00  0.00     0.027 H 
ATOM      3  H   UNL A   1      31.061  29.352  24.756  1.00  0.00     0.027 H 
ENDROOT
BRANCH   1   4
ATOM      4  C   UNL A   1      32.933  28.813  23.977  1.00  0.00    -0.036 C 
ATOM      5  H   UNL A   1      33.292  27.834  23.737  1.00  0.00     0.028 H 
ATOM      6  H   UNL A   1      33.263  29.558  23.283  1.00  0.00     0.028 H 
BRANCH   4   7
ATOM      7  C   UNL A   1      33.491  29.205  25.337  1.00  0.00     0.018 C 
ATOM      8  H   UNL A   1      33.269  28.428  26.038  1.00  0.00     0.049 H 
ATOM      9  H   UNL A   1      34.547  29.343  25.234  1.00  0.00     0.049 H 
BRANCH   7  10
ATOM     10  N   UNL A   1      32.922  30.451  25.823  1.00  0.00    -0.352 N 
ATOM     11  O   UNL A   1      32.595  32.124  27.307  1.00  0.00    -0.269 OA
ATOM     12  C   UNL A   1      33.298  31.199  26.909  1.00  0.00     0.251 C 
ATOM     13  H   UNL A   1      32.165  30.805  25.303  1.00  0.00     0.163 HD
BRANCH  12  14
ATOM     14  C   UNL A   1      34.557  30.874  27.608  1.00  0.00     0.039 A 
ATOM     15  C   UNL A   1      35.540  31.854  27.779  1.00  0.00    -0.049 A 
ATOM     16  C   UNL A   1      34.750  29.583  28.105  1.00  0.00    -0.049 A 
ATOM     17  C   UNL A   1      36.763  31.513  28.341  1.00  0.00    -0.053 A 
ATOM     18  H   UNL A   1      35.356  32.827  27.488  1.00  0.00     0.063 H 
ATOM     19  C   UNL A   1      35.946  29.266  28.753  1.00  0.00    -0.053 A 
ATOM     20  H   UNL A   1      34.015  28.869  27.995  1.00  0.00     0.063 H 
ATOM     21  C   UNL A   1      36.966  30.227  28.865  1.00  0.00    -0.014 A 
ATOM     22  H   UNL A   1      37.525  32.209  28.374  1.00  0.00     0.063 H 
ATOM     23  H   UNL A   1      36.082  28.324  29.150  1.00  0.00     0.063 H 
BRANCH  21  24
ATOM     24  C   UNL A   1      38.204  29.941  29.629  1.00  0.00     0.031 A 
ATOM     25  C   UNL A   1      39.275  29.049  29.076  1.00  0.00     0.074 A 
ATOM     26  C   UNL A   1      38.338  30.498  30.849  1.00  0.00     0.049 A 
ATOM     27  N   UNL A   1      40.396  28.667  29.634  1.00  0.00    -0.248 NA
ATOM     28  C   UNL A   1      39.061  28.505  27.727  1.00  0.00    -0.034 C 
ATOM     29  C   UNL A   1      37.349  31.371  31.488  1.00  0.00    -0.036 A 
ATOM     30  N   UNL A   1      39.350  30.416  31.770  1.00  0.00    -0.354 N 
ATOM     31  C   UNL A   1      41.010  27.824  28.719  1.00  0.00     0.074 A 
ATOM     32  C   UNL A   1      40.131  27.734  27.573  1.00  0.00    -0.034 C 
ATOM     33  H   UNL A   1      38.283  28.677  27.071  1.00  0.00     0.065 H 
ATOM     34  C   UNL A   1      37.812  31.763  32.682  1.00  0.00    -0.036 A 
ATOM     35  H   UNL A   1      36.441  31.642  31.081  1.00  0.00     0.065 H 
ATOM     36  C   UNL A   1      39.093  31.111  32.927  1.00  0.00     0.049 A 
ATOM     37  H   UNL A   1      40.180  29.909  31.618  1.00  0.00     0.167 HD
ATOM     38  C   UNL A   1      42.202  27.189  28.833  1.00  0.00     0.037 A 
ATOM     39  H   UNL A   1      40.312  27.147  26.744  1.00  0.00     0.065 H 
ATOM     40  H   UNL A   1      37.341  32.419  33.324  1.00  0.00     0.065 H 
ATOM     41  C   UNL A   1      39.789  31.184  34.074  1.00  0.00     0.037 A 
ATOM     42  C   UNL A   1      43.072  27.300  29.978  1.00  0.00     0.049 A 
ATOM     43  C   UNL A   1      41.084  30.431  34.185  1.00  0.00     0.074 A 
ATOM     44  C   UNL A   1      44.329  26.751  30.160  1.00  0.00    -0.036 A 
ATOM     45  N   UNL A   1      42.767  27.994  31.140  1.00  0.00    -0.354 N 
ATOM     46  N   UNL A   1      41.687  29.692  33.286  1.00  0.00    -0.248 NA
ATOM     47  C   UNL A   1      41.792  30.517  35.468  1.00  0.00    -0.034 C 
ATOM     48  C   UNL A   1      44.755  27.054  31.457  1.00  0.00    -0.036 A 
ATOM     49  H   UNL A   1      44.860  26.210  29.460  1.00  0.00     0.065 H 
ATOM     50  C   UNL A   1      43.795  27.848  32.061  1.00  0.00     0.049 A 
ATOM     51  H   UNL A   1      41.944  28.514  31.290  1.00  0.00     0.167 HD
ATOM     52  C   UNL A   1      42.853  29.239  33.887  1.00  0.00     0.074 A 
ATOM     53  C   UNL A   1      42.883  29.808  35.218  1.00  0.00    -0.034 C 
ATOM     54  H   UNL A   1      41.513  31.002  36.335  1.00  0.00     0.065 H 
ATOM     55  H   UNL A   1      45.637  26.737  31.891  1.00  0.00     0.065 H 
ATOM     56  C   UNL A   1      43.809  28.421  33.383  1.00  0.00     0.037 A 
ATOM     57  H   UNL A   1      43.657  29.677  35.889  1.00  0.00     0.065 H 
BRANCH  38  58
ATOM     58  C   UNL A   1      42.636  26.290  27.711  1.00  0.00     0.064 A 
ATOM     59  C   UNL A   1      43.448  26.748  26.663  1.00  0.00     0.173 A 
ATOM     60  C   UNL A   1      42.295  24.927  27.726  1.00  0.00     0.173 A 
ATOM     61  F   UNL A   1      43.797  28.042  26.596  1.00  0.00    -0.203 F 
ATOM     62  C   UNL A   1      43.887  25.882  25.665  1.00  0.00     0.198 A 
ATOM     63  C   UNL A   1      42.761  24.058  26.743  1.00  0.00     0.198 A 
ATOM     64  F   UNL A   1      41.527  24.434  28.710  1.00  0.00    -0.203 F 
ATOM     65  F   UNL A   1      44.634  26.350  24.655  1.00  0.00    -0.200 F 
ATOM     66  C   UNL A   1      43.552  24.537  25.710  1.00  0.00     0.200 A 
ATOM     67  F   UNL A   1      42.448  22.756  26.799  1.00  0.00    -0.200 F 
ATOM     68  F   UNL A   1      43.990  23.702  24.759  1.00  0.00    -0.200 F 
ENDBRANCH  38  58
BRANCH  41  69
ATOM     69  C   UNL A   1      39.254  31.968  35.218  1.00  0.00     0.064 A 
ATOM     70  C   UNL A   1      38.495  31.357  36.224  1.00  0.00     0.173 A 
ATOM     71  C   UNL A   1      39.490  33.348  35.326  1.00  0.00     0.173 A 
ATOM     72  F   UNL A   1      38.228  30.045  36.157  1.00  0.00    -0.203 F 
ATOM     73  C   UNL A   1      37.969  32.100  37.279  1.00  0.00     0.198 A 
ATOM     74  C   UNL A   1      38.996  34.082  36.400  1.00  0.00     0.198 A 
ATOM     75  F   UNL A   1      40.219  33.981  34.395  1.00  0.00    -0.203 F 
ATOM     76  F   UNL A   1      37.200  31.500  38.197  1.00  0.00    -0.200 F 
ATOM     77  C   UNL A   1      38.225  33.460  37.369  1.00  0.00     0.200 A 
ATOM     78  F   UNL A   1      39.265  35.392  36.495  1.00  0.00    -0.200 F 
ATOM     79  F   UNL A   1      37.722  34.172  38.387  1.00  0.00    -0.200 F 
ENDBRANCH  41  69
BRANCH  56  80
ATOM     80  C   UNL A   1      44.982  28.112  34.267  1.00  0.00     0.064 A 
ATOM     81  C   UNL A   1      46.109  28.945  34.311  1.00  0.00     0.173 A 
ATOM     82  C   UNL A   1      44.958  26.993  35.113  1.00  0.00     0.173 A 
ATOM     83  F   UNL A   1      46.189  30.016  33.507  1.00  0.00    -0.203 F 
ATOM     84  C   UNL A   1      47.178  28.657  35.154  1.00  0.00     0.198 A 
ATOM     85  C   UNL A   1      46.013  26.727  35.979  1.00  0.00     0.198 A 
ATOM     86  F   UNL A   1      43.901  26.167  35.112  1.00  0.00    -0.203 F 
ATOM     87  F   UNL A   1      48.267  29.440  35.145  1.00  0.00    -0.200 F 
ATOM     88  C   UNL A   1      47.126  27.554  35.995  1.00  0.00     0.200 A 
ATOM     89  F   UNL A   1      45.954  25.670  36.801  1.00  0.00    -0.200 F 
ATOM     90  F   UNL A   1      48.151  27.286  36.816  1.00  0.00    -0.200 F 
ENDBRANCH  56  80
ENDBRANCH  21  24
ENDBRANCH  12  14
ENDBRANCH   7  10
ENDBRANCH   4   7
ENDBRANCH   1   4
BRANCH   1  91
ATOM     91  C   UNL A   1      30.774  27.404  24.020  1.00  0.00    -0.052 C 
ATOM     92  H   UNL A   1      31.467  26.693  23.621  1.00  0.00     0.027 H 
ATOM     93  H   UNL A   1      29.853  27.451  23.477  1.00  0.00     0.027 H 
BRANCH  91  94
ATOM     94  C   UNL A   1      30.411  26.969  25.444  1.00  0.00    -0.036 C 
ATOM     95  H   UNL A   1      29.847  27.755  25.902  1.00  0.00     0.028 H 
ATOM     96  H   UNL A   1      31.333  26.773  25.951  1.00  0.00     0.028 H 
BRANCH  94  97
ATOM     97  C   UNL A   1      29.589  25.684  25.515  1.00  0.00     0.017 C 
ATOM     98  H   UNL A   1      29.672  25.164  24.584  1.00  0.00     0.049 H 
ATOM     99  H   UNL A   1      28.568  25.941  25.710  1.00  0.00     0.049 H 
BRANCH  97 100
ATOM    100  N   UNL A   1      30.062  24.826  26.582  1.00  0.00    -0.356 N 
ATOM    101  C   UNL A   1      30.845  23.712  26.534  1.00  0.00     0.229 C 
ATOM    102  H   UNL A   1      29.771  25.089  27.485  1.00  0.00     0.163 HD
ATOM    103  O   UNL A   1      30.979  23.064  27.572  1.00  0.00    -0.274 OA
BRANCH 101 104
ATOM    104  C   UNL A   1      31.496  23.314  25.218  1.00  0.00     0.080 C 
ATOM    105  C   UNL A   1      31.891  21.821  25.216  1.00  0.00    -0.018 C 
ATOM    106  C   UNL A   1      32.808  23.985  25.027  1.00  0.00     0.031 A 
ATOM    107  H   UNL A   1      30.774  23.570  24.471  1.00  0.00     0.047 H 
ATOM    108  C   UNL A   1      33.241  21.750  24.487  1.00  0.00     0.024 C 
ATOM    109  H   UNL A   1      31.155  21.241  24.697  1.00  0.00     0.030 H 
ATOM    110  H   UNL A   1      31.956  21.426  26.209  1.00  0.00     0.030 H 
ATOM    111  N   UNL A   1      33.760  23.104  24.598  1.00  0.00    -0.341 N 
ATOM    112  C   UNL A   1      33.375  25.222  25.149  1.00  0.00    -0.040 A 
ATOM    113  H   UNL A   1      33.109  21.475  23.462  1.00  0.00     0.050 H 
ATOM    114  H   UNL A   1      33.901  21.017  24.902  1.00  0.00     0.050 H 
ATOM    115  C   UNL A   1      34.955  23.724  24.393  1.00  0.00     0.090 A 
ATOM    116  C   UNL A   1      34.729  25.056  24.755  1.00  0.00    -0.033 A 
ATOM    117  H   UNL A   1      32.916  26.092  25.461  1.00  0.00     0.064 H 
ATOM    118  H   UNL A   1      35.439  25.805  24.740  1.00  0.00     0.065 H 
BRANCH 115 119
ATOM    119  C   UNL A   1      36.230  23.182  23.953  1.00  0.00     0.209 C 
ATOM    120  O   UNL A   1      36.471  22.916  22.775  1.00  0.00    -0.287 OA
BRANCH 119 121
ATOM    121  C   UNL A   1      37.328  22.938  24.911  1.00  0.00     0.024 A 
ATOM    122  C   UNL A   1      37.853  21.645  25.002  1.00  0.00    -0.051 A 
ATOM    123  C   UNL A   1      37.799  23.953  25.750  1.00  0.00    -0.051 A 
ATOM    124  C   UNL A   1      38.888  21.380  25.897  1.00  0.00    -0.062 A 
ATOM    125  H   UNL A   1      37.476  20.890  24.409  1.00  0.00     0.063 H 
ATOM    126  C   UNL A   1      38.844  23.686  26.635  1.00  0.00    -0.062 A 
ATOM    127  H   UNL A   1      37.376  24.894  25.714  1.00  0.00     0.063 H 
ATOM    128  C   UNL A   1      39.390  22.403  26.703  1.00  0.00    -0.062 A 
ATOM    129  H   UNL A   1      39.283  20.429  25.964  1.00  0.00     0.062 H 
ATOM    130  H   UNL A   1      39.215  24.437  27.237  1.00  0.00     0.062 H 
ATOM    131  H   UNL A   1      40.169  22.210  27.354  1.00  0.00     0.062 H 
ENDBRANCH 119 121
ENDBRANCH 115 119
ENDBRANCH 101 104
ENDBRANCH  97 100
ENDBRANCH  94  97
ENDBRANCH  91  94
ENDBRANCH   1  91
TORSDOF 15
ENDMDL
