MODEL 1
REMARK VINA RESULT:     -12.6      0.000      0.000
REMARK SMILES Cc1cc2cc(-c3ccc([C@@H](C)C(=O)NCCCCCCNC(=O)c4ccc(-c5c6nc(c(-c7c(F)c(F)c(F)c(F)c7F)c7ccc([nH]7)c(-c7c(F)c(F)c(F)c(F)c7F)c7nc(c(-c8c(F)c(F)c(F)c(F)c8F)c8ccc5[nH]8)C=C7)C=C6)cc4)cc3)ccc2[nH]1
REMARK SMILES IDX 18 1 17 4 16 7 15 10 13 11 14 12 11 14 10 16 7 17 8 18 89 19
REMARK SMILES IDX 9 20 88 22 6 26 2 27 3 28 93 29 4 30 92 32 5 34 91 35 90 37
REMARK SMILES IDX 1 40 12 44 19 48 20 51 21 54 22 57 23 58 24 60 25 61 26 62
REMARK SMILES IDX 87 63 27 64 86 66 28 68 29 71 30 72 80 73 31 74 85 75 79 76
REMARK SMILES IDX 81 77 32 78 84 79 78 81 77 83 33 85 65 88 45 89 64 90 46 91
REMARK SMILES IDX 49 92 63 93 82 94 47 95 48 97 62 99 83 100 50 103 34 105
REMARK SMILES IDX 35 106 43 107 36 108 37 109 41 110 44 111 38 112 39 113
REMARK SMILES IDX 42 114 40 115 66 116 67 117 75 118 68 119 69 120 73 121
REMARK SMILES IDX 76 122 70 123 71 124 74 125 72 126 51 127 52 128 60 129
REMARK SMILES IDX 53 130 54 131 58 132 61 133 55 134 56 135 59 136 57 137
REMARK H PARENT 18 2 18 3 17 5 17 6 16 8 16 9 15 13 11 15 8 21 89 23 9 24
REMARK H PARENT 88 25 3 31 93 33 5 36 91 38 90 39 1 41 1 42 1 43 12 45 12 46
REMARK H PARENT 12 47 19 49 19 50 20 52 20 53 21 55 21 56 22 59 26 65 87 67
REMARK H PARENT 27 69 86 70 85 80 79 82 81 84 84 86 78 87 46 96 49 98 82 101
REMARK H PARENT 47 102 83 104
REMARK Flexibility Score: inf
ROOT
ATOM      1  C   UNL A   1      34.029  25.692  23.921  1.00  0.00    -0.052 C 
ATOM      2  H   UNL A   1      33.519  24.845  23.512  1.00  0.00     0.027 H 
ATOM      3  H   UNL A   1      34.971  25.889  23.455  1.00  0.00     0.027 H 
ENDROOT
BRANCH   1   4
ATOM      4  C   UNL A   1      34.337  25.394  25.392  1.00  0.00    -0.036 C 
ATOM      5  H   UNL A   1      35.122  26.049  25.711  1.00  0.00     0.028 H 
ATOM      6  H   UNL A   1      33.429  25.546  25.936  1.00  0.00     0.028 H 
BRANCH   4   7
ATOM      7  C   UNL A   1      34.777  23.952  25.656  1.00  0.00     0.017 C 
ATOM      8  H   UNL A   1      34.497  23.347  24.819  1.00  0.00     0.049 H 
ATOM      9  H   UNL A   1      35.837  23.949  25.797  1.00  0.00     0.049 H 
BRANCH   7  10
ATOM     10  N   UNL A   1      34.163  23.410  26.850  1.00  0.00    -0.356 N 
ATOM     11  C   UNL A   1      32.990  22.750  27.048  1.00  0.00     0.227 C 
ATOM     12  O   UNL A   1      32.701  22.483  28.221  1.00  0.00    -0.274 OA
ATOM     13  H   UNL A   1      34.693  23.544  27.670  1.00  0.00     0.163 HD
BRANCH  11  14
ATOM     14  C   UNL A   1      32.048  22.321  25.912  1.00  0.00     0.060 C 
ATOM     15  H   UNL A   1      31.306  21.700  26.371  1.00  0.00     0.045 H 
BRANCH  14  16
ATOM     16  C   UNL A   1      31.234  23.466  25.333  1.00  0.00    -0.036 A 
ATOM     17  C   UNL A   1      29.786  25.706  24.303  1.00  0.00    -0.018 A 
ATOM     18  C   UNL A   1      30.292  24.701  23.464  1.00  0.00    -0.054 A 
ATOM     19  C   UNL A   1      30.010  25.557  25.679  1.00  0.00    -0.054 A 
ATOM     20  C   UNL A   1      30.968  23.587  23.970  1.00  0.00    -0.058 A 
ATOM     21  H   UNL A   1      30.161  24.785  22.444  1.00  0.00     0.063 H 
ATOM     22  C   UNL A   1      30.737  24.468  26.183  1.00  0.00    -0.058 A 
ATOM     23  H   UNL A   1      29.636  26.262  26.332  1.00  0.00     0.063 H 
ATOM     24  H   UNL A   1      31.276  22.844  23.324  1.00  0.00     0.063 H 
ATOM     25  H   UNL A   1      30.909  24.401  27.199  1.00  0.00     0.063 H 
BRANCH  17  26
ATOM     26  C   UNL A   1      29.051  26.856  23.729  1.00  0.00    -0.018 A 
ATOM     27  C   UNL A   1      28.423  30.962  21.634  1.00  0.00     0.013 A 
ATOM     28  C   UNL A   1      29.520  30.147  21.820  1.00  0.00    -0.034 A 
ATOM     29  N   UNL A   1      27.340  30.323  22.190  1.00  0.00    -0.359 N 
ATOM     30  C   UNL A   1      29.089  28.991  22.522  1.00  0.00     0.000 A 
ATOM     31  H   UNL A   1      30.482  30.342  21.504  1.00  0.00     0.065 H 
ATOM     32  C   UNL A   1      27.723  29.125  22.749  1.00  0.00     0.046 A 
ATOM     33  H   UNL A   1      26.420  30.672  22.188  1.00  0.00     0.166 HD
ATOM     34  C   UNL A   1      29.744  27.841  22.995  1.00  0.00    -0.045 A 
ATOM     35  C   UNL A   1      26.982  28.156  23.434  1.00  0.00    -0.037 A 
ATOM     36  H   UNL A   1      30.751  27.715  22.803  1.00  0.00     0.064 H 
ATOM     37  C   UNL A   1      27.671  27.034  23.924  1.00  0.00    -0.052 A 
ATOM     38  H   UNL A   1      25.965  28.263  23.574  1.00  0.00     0.065 H 
ATOM     39  H   UNL A   1      27.146  26.316  24.444  1.00  0.00     0.063 H 
BRANCH  27  40
ATOM     40  C   UNL A   1      28.308  32.285  20.976  1.00  0.00    -0.024 C 
ATOM     41  H   UNL A   1      28.805  33.023  21.571  1.00  0.00     0.029 H 
ATOM     42  H   UNL A   1      27.275  32.545  20.876  1.00  0.00     0.029 H 
ATOM     43  H   UNL A   1      28.760  32.243  20.009  1.00  0.00     0.029 H 
ENDBRANCH  27  40
ENDBRANCH  17  26
ENDBRANCH  14  16
BRANCH  14  44
ATOM     44  C   UNL A   1      32.692  21.377  24.895  1.00  0.00    -0.049 C 
ATOM     45  H   UNL A   1      33.549  21.850  24.463  1.00  0.00     0.024 H 
ATOM     46  H   UNL A   1      31.985  21.146  24.125  1.00  0.00     0.024 H 
ATOM     47  H   UNL A   1      32.992  20.475  25.386  1.00  0.00     0.024 H 
ENDBRANCH  14  44
ENDBRANCH  11  14
ENDBRANCH   7  10
ENDBRANCH   4   7
ENDBRANCH   1   4
BRANCH   1  48
ATOM     48  C   UNL A   1      33.162  26.933  23.672  1.00  0.00    -0.052 C 
ATOM     49  H   UNL A   1      32.204  26.602  23.331  1.00  0.00     0.027 H 
ATOM     50  H   UNL A   1      33.696  27.525  22.958  1.00  0.00     0.027 H 
BRANCH  48  51
ATOM     51  C   UNL A   1      32.943  27.842  24.886  1.00  0.00    -0.036 C 
ATOM     52  H   UNL A   1      33.210  27.293  25.765  1.00  0.00     0.028 H 
ATOM     53  H   UNL A   1      31.912  28.129  24.863  1.00  0.00     0.028 H 
BRANCH  51  54
ATOM     54  C   UNL A   1      33.749  29.139  24.873  1.00  0.00     0.018 C 
ATOM     55  H   UNL A   1      33.961  29.403  23.858  1.00  0.00     0.049 H 
ATOM     56  H   UNL A   1      34.649  28.974  25.426  1.00  0.00     0.049 H 
BRANCH  54  57
ATOM     57  N   UNL A   1      33.028  30.233  25.503  1.00  0.00    -0.352 N 
ATOM     58  C   UNL A   1      33.243  30.850  26.710  1.00  0.00     0.251 C 
ATOM     59  H   UNL A   1      32.269  30.587  24.983  1.00  0.00     0.163 HD
ATOM     60  O   UNL A   1      32.399  31.611  27.170  1.00  0.00    -0.269 OA
BRANCH  58  61
ATOM     61  C   UNL A   1      34.487  30.594  27.468  1.00  0.00     0.039 A 
ATOM     62  C   UNL A   1      35.413  31.631  27.615  1.00  0.00    -0.049 A 
ATOM     63  C   UNL A   1      34.762  29.329  27.994  1.00  0.00    -0.049 A 
ATOM     64  C   UNL A   1      36.592  31.413  28.333  1.00  0.00    -0.053 A 
ATOM     65  H   UNL A   1      35.226  32.554  27.193  1.00  0.00     0.063 H 
ATOM     66  C   UNL A   1      35.907  29.130  28.763  1.00  0.00    -0.053 A 
ATOM     67  H   UNL A   1      34.118  28.543  27.814  1.00  0.00     0.063 H 
ATOM     68  C   UNL A   1      36.835  30.169  28.934  1.00  0.00    -0.014 A 
ATOM     69  H   UNL A   1      37.285  32.172  28.422  1.00  0.00     0.063 H 
ATOM     70  H   UNL A   1      36.073  28.215  29.209  1.00  0.00     0.063 H 
BRANCH  68  71
ATOM     71  C   UNL A   1      38.062  29.929  29.736  1.00  0.00     0.031 A 
ATOM     72  C   UNL A   1      39.143  29.028  29.207  1.00  0.00     0.074 A 
ATOM     73  C   UNL A   1      38.175  30.473  30.962  1.00  0.00     0.049 A 
ATOM     74  N   UNL A   1      40.249  28.632  29.786  1.00  0.00    -0.248 NA
ATOM     75  C   UNL A   1      38.944  28.482  27.856  1.00  0.00    -0.034 C 
ATOM     76  C   UNL A   1      37.178  31.334  31.599  1.00  0.00    -0.036 A 
ATOM     77  N   UNL A   1      39.174  30.372  31.897  1.00  0.00    -0.354 N 
ATOM     78  C   UNL A   1      40.867  27.782  28.879  1.00  0.00     0.074 A 
ATOM     79  C   UNL A   1      39.992  27.680  27.731  1.00  0.00    -0.034 C 
ATOM     80  H   UNL A   1      38.186  28.672  27.182  1.00  0.00     0.065 H 
ATOM     81  C   UNL A   1      37.624  31.698  32.813  1.00  0.00    -0.036 A 
ATOM     82  H   UNL A   1      36.277  31.616  31.183  1.00  0.00     0.065 H 
ATOM     83  C   UNL A   1      38.919  31.068  33.052  1.00  0.00     0.049 A 
ATOM     84  H   UNL A   1      39.997  29.851  31.752  1.00  0.00     0.167 HD
ATOM     85  C   UNL A   1      42.066  27.161  28.984  1.00  0.00     0.037 A 
ATOM     86  H   UNL A   1      40.161  27.064  26.921  1.00  0.00     0.065 H 
ATOM     87  H   UNL A   1      37.129  32.321  33.470  1.00  0.00     0.065 H 
ATOM     88  C   UNL A   1      39.645  31.179  34.181  1.00  0.00     0.037 A 
ATOM     89  C   UNL A   1      42.946  27.283  30.116  1.00  0.00     0.049 A 
ATOM     90  C   UNL A   1      40.969  30.472  34.275  1.00  0.00     0.074 A 
ATOM     91  C   UNL A   1      44.202  26.730  30.299  1.00  0.00    -0.036 A 
ATOM     92  N   UNL A   1      42.660  28.012  31.261  1.00  0.00    -0.354 N 
ATOM     93  N   UNL A   1      41.568  29.714  33.389  1.00  0.00    -0.248 NA
ATOM     94  C   UNL A   1      41.723  30.641  35.526  1.00  0.00    -0.034 C 
ATOM     95  C   UNL A   1      44.661  27.096  31.569  1.00  0.00    -0.036 A 
ATOM     96  H   UNL A   1      44.712  26.149  29.616  1.00  0.00     0.065 H 
ATOM     97  C   UNL A   1      43.710  27.912  32.160  1.00  0.00     0.049 A 
ATOM     98  H   UNL A   1      41.834  28.526  31.412  1.00  0.00     0.167 HD
ATOM     99  C   UNL A   1      42.778  29.342  33.960  1.00  0.00     0.074 A 
ATOM    100  C   UNL A   1      42.833  29.967  35.266  1.00  0.00    -0.034 C 
ATOM    101  H   UNL A   1      41.456  31.152  36.383  1.00  0.00     0.065 H 
ATOM    102  H   UNL A   1      45.556  26.807  31.993  1.00  0.00     0.065 H 
ATOM    103  C   UNL A   1      43.754  28.552  33.450  1.00  0.00     0.037 A 
ATOM    104  H   UNL A   1      43.635  29.896  35.911  1.00  0.00     0.065 H 
BRANCH  85 105
ATOM    105  C   UNL A   1      42.501  26.296  27.837  1.00  0.00     0.064 A 
ATOM    106  C   UNL A   1      42.059  24.969  27.711  1.00  0.00     0.173 A 
ATOM    107  C   UNL A   1      43.339  26.805  26.835  1.00  0.00     0.173 A 
ATOM    108  F   UNL A   1      41.265  24.431  28.649  1.00  0.00    -0.203 F 
ATOM    109  C   UNL A   1      42.464  24.177  26.640  1.00  0.00     0.198 A 
ATOM    110  C   UNL A   1      43.720  26.019  25.749  1.00  0.00     0.198 A 
ATOM    111  F   UNL A   1      43.785  28.068  26.903  1.00  0.00    -0.203 F 
ATOM    112  F   UNL A   1      42.067  22.900  26.566  1.00  0.00    -0.200 F 
ATOM    113  C   UNL A   1      43.288  24.704  25.657  1.00  0.00     0.200 A 
ATOM    114  F   UNL A   1      44.506  26.534  24.794  1.00  0.00    -0.200 F 
ATOM    115  F   UNL A   1      43.672  23.942  24.624  1.00  0.00    -0.200 F 
ENDBRANCH  85 105
BRANCH  88 116
ATOM    116  C   UNL A   1      39.149  32.015  35.305  1.00  0.00     0.064 A 
ATOM    117  C   UNL A   1      39.417  33.391  35.348  1.00  0.00     0.173 A 
ATOM    118  C   UNL A   1      38.407  31.461  36.357  1.00  0.00     0.173 A 
ATOM    119  F   UNL A   1      40.142  33.961  34.375  1.00  0.00    -0.203 F 
ATOM    120  C   UNL A   1      38.980  34.176  36.411  1.00  0.00     0.198 A 
ATOM    121  C   UNL A   1      37.947  32.253  37.407  1.00  0.00     0.198 A 
ATOM    122  F   UNL A   1      38.120  30.151  36.361  1.00  0.00    -0.203 F 
ATOM    123  F   UNL A   1      39.290  35.479  36.450  1.00  0.00    -0.200 F 
ATOM    124  C   UNL A   1      38.241  33.608  37.438  1.00  0.00     0.200 A 
ATOM    125  F   UNL A   1      37.222  31.703  38.391  1.00  0.00    -0.200 F 
ATOM    126  F   UNL A   1      37.819  34.364  38.460  1.00  0.00    -0.200 F 
ENDBRANCH  88 116
BRANCH 103 127
ATOM    127  C   UNL A   1      44.983  28.352  34.287  1.00  0.00     0.064 A 
ATOM    128  C   UNL A   1      46.069  29.236  34.219  1.00  0.00     0.173 A 
ATOM    129  C   UNL A   1      45.057  27.284  35.193  1.00  0.00     0.173 A 
ATOM    130  F   UNL A   1      46.052  30.262  33.356  1.00  0.00    -0.203 F 
ATOM    131  C   UNL A   1      47.197  29.043  35.013  1.00  0.00     0.198 A 
ATOM    132  C   UNL A   1      46.174  27.111  36.005  1.00  0.00     0.198 A 
ATOM    133  F   UNL A   1      44.041  26.415  35.299  1.00  0.00    -0.203 F 
ATOM    134  F   UNL A   1      48.242  29.874  34.901  1.00  0.00    -0.200 F 
ATOM    135  C   UNL A   1      47.245  27.987  35.910  1.00  0.00     0.200 A 
ATOM    136  F   UNL A   1      46.214  26.096  36.880  1.00  0.00    -0.200 F 
ATOM    137  F   UNL A   1      48.329  27.806  36.678  1.00  0.00    -0.200 F 
ENDBRANCH 103 127
ENDBRANCH  68  71
ENDBRANCH  58  61
ENDBRANCH  54  57
ENDBRANCH  51  54
ENDBRANCH  48  51
ENDBRANCH   1  48
TORSDOF 17
ENDMDL
MODEL 2
REMARK VINA RESULT:     -12.2      0.279      2.004
REMARK SMILES Cc1cc2cc(-c3ccc([C@@H](C)C(=O)NCCCCCCNC(=O)c4ccc(-c5c6nc(c(-c7c(F)c(F)c(F)c(F)c7F)c7ccc([nH]7)c(-c7c(F)c(F)c(F)c(F)c7F)c7nc(c(-c8c(F)c(F)c(F)c(F)c8F)c8ccc5[nH]8)C=C7)C=C6)cc4)cc3)ccc2[nH]1
REMARK SMILES IDX 18 1 17 4 16 7 15 10 13 11 14 12 11 14 10 16 7 17 8 18 89 19
REMARK SMILES IDX 9 20 88 22 6 26 2 27 3 28 93 29 4 30 92 32 5 34 91 35 90 37
REMARK SMILES IDX 1 40 12 44 19 48 20 51 21 54 22 57 23 58 24 60 25 61 26 62
REMARK SMILES IDX 87 63 27 64 86 66 28 68 29 71 30 72 80 73 31 74 85 75 79 76
REMARK SMILES IDX 81 77 32 78 84 79 78 81 77 83 33 85 65 88 45 89 64 90 46 91
REMARK SMILES IDX 49 92 63 93 82 94 47 95 48 97 62 99 83 100 50 103 34 105
REMARK SMILES IDX 35 106 43 107 36 108 37 109 41 110 44 111 38 112 39 113
REMARK SMILES IDX 42 114 40 115 66 116 67 117 75 118 68 119 69 120 73 121
REMARK SMILES IDX 76 122 70 123 71 124 74 125 72 126 51 127 52 128 60 129
REMARK SMILES IDX 53 130 54 131 58 132 61 133 55 134 56 135 59 136 57 137
REMARK H PARENT 18 2 18 3 17 5 17 6 16 8 16 9 15 13 11 15 8 21 89 23 9 24
REMARK H PARENT 88 25 3 31 93 33 5 36 91 38 90 39 1 41 1 42 1 43 12 45 12 46
REMARK H PARENT 12 47 19 49 19 50 20 52 20 53 21 55 21 56 22 59 26 65 87 67
REMARK H PARENT 27 69 86 70 85 80 79 82 81 84 84 86 78 87 46 96 49 98 82 101
REMARK H PARENT 47 102 83 104
REMARK Flexibility Score: inf
ROOT
ATOM      1  C   UNL A   1      34.558  25.805  25.474  1.00  0.00    -0.052 C 
ATOM      2  H   UNL A   1      35.218  26.442  24.924  1.00  0.00     0.027 H 
ATOM      3  H   UNL A   1      34.989  25.413  26.370  1.00  0.00     0.027 H 
ENDROOT
BRANCH   1   4
ATOM      4  C   UNL A   1      34.229  24.593  24.596  1.00  0.00    -0.036 C 
ATOM      5  H   UNL A   1      33.166  24.543  24.474  1.00  0.00     0.028 H 
ATOM      6  H   UNL A   1      34.743  24.733  23.668  1.00  0.00     0.028 H 
BRANCH   4   7
ATOM      7  C   UNL A   1      34.710  23.259  25.172  1.00  0.00     0.017 C 
ATOM      8  H   UNL A   1      34.395  22.468  24.524  1.00  0.00     0.049 H 
ATOM      9  H   UNL A   1      35.777  23.294  25.246  1.00  0.00     0.049 H 
BRANCH   7  10
ATOM     10  N   UNL A   1      34.177  23.019  26.497  1.00  0.00    -0.356 N 
ATOM     11  C   UNL A   1      32.932  22.672  26.924  1.00  0.00     0.227 C 
ATOM     12  O   UNL A   1      32.767  22.621  28.150  1.00  0.00    -0.274 OA
ATOM     13  H   UNL A   1      34.836  23.127  27.221  1.00  0.00     0.163 HD
BRANCH  11  14
ATOM     14  C   UNL A   1      31.767  22.335  25.981  1.00  0.00     0.060 C 
ATOM     15  H   UNL A   1      31.009  21.902  26.601  1.00  0.00     0.045 H 
BRANCH  14  16
ATOM     16  C   UNL A   1      31.081  23.561  25.401  1.00  0.00    -0.036 A 
ATOM     17  C   UNL A   1      29.712  25.785  24.237  1.00  0.00    -0.018 A 
ATOM     18  C   UNL A   1      29.822  25.626  25.628  1.00  0.00    -0.054 A 
ATOM     19  C   UNL A   1      30.319  24.807  23.437  1.00  0.00    -0.054 A 
ATOM     20  C   UNL A   1      30.521  24.559  26.197  1.00  0.00    -0.058 A 
ATOM     21  H   UNL A   1      29.373  26.318  26.248  1.00  0.00     0.063 H 
ATOM     22  C   UNL A   1      30.975  23.705  24.007  1.00  0.00    -0.058 A 
ATOM     23  H   UNL A   1      30.281  24.898  22.410  1.00  0.00     0.063 H 
ATOM     24  H   UNL A   1      30.625  24.509  27.222  1.00  0.00     0.063 H 
ATOM     25  H   UNL A   1      31.388  22.988  23.391  1.00  0.00     0.063 H 
BRANCH  17  26
ATOM     26  C   UNL A   1      28.985  26.945  23.674  1.00  0.00    -0.018 A 
ATOM     27  C   UNL A   1      28.386  31.080  21.629  1.00  0.00     0.013 A 
ATOM     28  C   UNL A   1      29.478  30.258  21.809  1.00  0.00    -0.034 A 
ATOM     29  N   UNL A   1      27.297  30.440  22.171  1.00  0.00    -0.359 N 
ATOM     30  C   UNL A   1      29.038  29.095  22.494  1.00  0.00     0.000 A 
ATOM     31  H   UNL A   1      30.443  30.453  21.501  1.00  0.00     0.065 H 
ATOM     32  C   UNL A   1      27.672  29.233  22.717  1.00  0.00     0.046 A 
ATOM     33  H   UNL A   1      26.379  30.793  22.169  1.00  0.00     0.166 HD
ATOM     34  C   UNL A   1      29.686  27.936  22.956  1.00  0.00    -0.045 A 
ATOM     35  C   UNL A   1      26.923  28.259  23.386  1.00  0.00    -0.037 A 
ATOM     36  H   UNL A   1      30.693  27.809  22.767  1.00  0.00     0.064 H 
ATOM     37  C   UNL A   1      27.605  27.128  23.865  1.00  0.00    -0.052 A 
ATOM     38  H   UNL A   1      25.907  28.369  23.523  1.00  0.00     0.065 H 
ATOM     39  H   UNL A   1      27.074  26.405  24.373  1.00  0.00     0.063 H 
BRANCH  27  40
ATOM     40  C   UNL A   1      28.280  32.412  20.987  1.00  0.00    -0.024 C 
ATOM     41  H   UNL A   1      27.487  32.400  20.269  1.00  0.00     0.029 H 
ATOM     42  H   UNL A   1      29.202  32.645  20.496  1.00  0.00     0.029 H 
ATOM     43  H   UNL A   1      28.076  33.152  21.731  1.00  0.00     0.029 H 
ENDBRANCH  27  40
ENDBRANCH  17  26
ENDBRANCH  14  16
BRANCH  14  44
ATOM     44  C   UNL A   1      32.075  21.210  24.991  1.00  0.00    -0.049 C 
ATOM     45  H   UNL A   1      32.852  21.523  24.327  1.00  0.00     0.024 H 
ATOM     46  H   UNL A   1      31.194  20.980  24.428  1.00  0.00     0.024 H 
ATOM     47  H   UNL A   1      32.392  20.340  25.528  1.00  0.00     0.024 H 
ENDBRANCH  14  44
ENDBRANCH  11  14
ENDBRANCH   7  10
ENDBRANCH   4   7
ENDBRANCH   1   4
BRANCH   1  48
ATOM     48  C   UNL A   1      33.348  26.641  25.913  1.00  0.00    -0.052 C 
ATOM     49  H   UNL A   1      33.598  27.120  26.836  1.00  0.00     0.027 H 
ATOM     50  H   UNL A   1      32.530  25.956  25.987  1.00  0.00     0.027 H 
BRANCH  48  51
ATOM     51  C   UNL A   1      32.899  27.724  24.927  1.00  0.00    -0.036 C 
ATOM     52  H   UNL A   1      31.896  28.005  25.175  1.00  0.00     0.028 H 
ATOM     53  H   UNL A   1      32.989  27.296  23.950  1.00  0.00     0.028 H 
BRANCH  51  54
ATOM     54  C   UNL A   1      33.757  28.987  24.922  1.00  0.00     0.018 C 
ATOM     55  H   UNL A   1      34.015  29.226  23.912  1.00  0.00     0.049 H 
ATOM     56  H   UNL A   1      34.631  28.794  25.509  1.00  0.00     0.049 H 
BRANCH  54  57
ATOM     57  N   UNL A   1      33.061  30.119  25.510  1.00  0.00    -0.352 N 
ATOM     58  C   UNL A   1      33.300  30.786  26.686  1.00  0.00     0.251 C 
ATOM     59  H   UNL A   1      32.302  30.463  24.983  1.00  0.00     0.163 HD
ATOM     60  O   UNL A   1      32.473  31.580  27.121  1.00  0.00    -0.269 OA
BRANCH  58  61
ATOM     61  C   UNL A   1      34.547  30.544  27.442  1.00  0.00     0.039 A 
ATOM     62  C   UNL A   1      35.461  31.592  27.589  1.00  0.00    -0.049 A 
ATOM     63  C   UNL A   1      34.839  29.282  27.965  1.00  0.00    -0.049 A 
ATOM     64  C   UNL A   1      36.643  31.387  28.305  1.00  0.00    -0.053 A 
ATOM     65  H   UNL A   1      35.262  32.514  27.170  1.00  0.00     0.063 H 
ATOM     66  C   UNL A   1      35.988  29.095  28.732  1.00  0.00    -0.053 A 
ATOM     67  H   UNL A   1      34.205  28.488  27.784  1.00  0.00     0.063 H 
ATOM     68  C   UNL A   1      36.903  30.144  28.904  1.00  0.00    -0.014 A 
ATOM     69  H   UNL A   1      37.328  32.154  28.395  1.00  0.00     0.063 H 
ATOM     70  H   UNL A   1      36.166  28.181  29.176  1.00  0.00     0.063 H 
BRANCH  68  71
ATOM     71  C   UNL A   1      38.134  29.918  29.703  1.00  0.00     0.031 A 
ATOM     72  C   UNL A   1      39.221  29.023  29.176  1.00  0.00     0.074 A 
ATOM     73  C   UNL A   1      38.246  30.469  30.926  1.00  0.00     0.049 A 
ATOM     74  N   UNL A   1      40.331  28.639  29.754  1.00  0.00    -0.248 NA
ATOM     75  C   UNL A   1      39.022  28.468  27.828  1.00  0.00    -0.034 C 
ATOM     76  C   UNL A   1      37.245  31.326  31.562  1.00  0.00    -0.036 A 
ATOM     77  N   UNL A   1      39.249  30.381  31.859  1.00  0.00    -0.354 N 
ATOM     78  C   UNL A   1      40.953  27.789  28.849  1.00  0.00     0.074 A 
ATOM     79  C   UNL A   1      40.076  27.674  27.704  1.00  0.00    -0.034 C 
ATOM     80  H   UNL A   1      38.261  28.650  27.155  1.00  0.00     0.065 H 
ATOM     81  C   UNL A   1      37.691  31.699  32.773  1.00  0.00    -0.036 A 
ATOM     82  H   UNL A   1      36.340  31.599  31.147  1.00  0.00     0.065 H 
ATOM     83  C   UNL A   1      38.991  31.081  33.012  1.00  0.00     0.049 A 
ATOM     84  H   UNL A   1      40.075  29.865  31.715  1.00  0.00     0.167 HD
ATOM     85  C   UNL A   1      42.157  27.178  28.953  1.00  0.00     0.037 A 
ATOM     86  H   UNL A   1      40.248  27.056  26.896  1.00  0.00     0.065 H 
ATOM     87  H   UNL A   1      37.193  32.322  33.429  1.00  0.00     0.065 H 
ATOM     88  C   UNL A   1      39.720  31.203  34.137  1.00  0.00     0.037 A 
ATOM     89  C   UNL A   1      43.039  27.313  30.083  1.00  0.00     0.049 A 
ATOM     90  C   UNL A   1      41.050  30.507  34.231  1.00  0.00     0.074 A 
ATOM     91  C   UNL A   1      44.300  26.770  30.265  1.00  0.00    -0.036 A 
ATOM     92  N   UNL A   1      42.751  28.045  31.225  1.00  0.00    -0.354 N 
ATOM     93  N   UNL A   1      41.652  29.749  33.348  1.00  0.00    -0.248 NA
ATOM     94  C   UNL A   1      41.805  30.688  35.480  1.00  0.00    -0.034 C 
ATOM     95  C   UNL A   1      44.760  27.146  31.532  1.00  0.00    -0.036 A 
ATOM     96  H   UNL A   1      44.813  26.190  29.584  1.00  0.00     0.065 H 
ATOM     97  C   UNL A   1      43.804  27.958  32.121  1.00  0.00     0.049 A 
ATOM     98  H   UNL A   1      41.921  28.553  31.376  1.00  0.00     0.167 HD
ATOM     99  C   UNL A   1      42.866  29.389  33.917  1.00  0.00     0.074 A 
ATOM    100  C   UNL A   1      42.920  30.021  35.219  1.00  0.00    -0.034 C 
ATOM    101  H   UNL A   1      41.537  31.201  36.335  1.00  0.00     0.065 H 
ATOM    102  H   UNL A   1      45.659  26.866  31.955  1.00  0.00     0.065 H 
ATOM    103  C   UNL A   1      43.847  28.605  33.408  1.00  0.00     0.037 A 
ATOM    104  H   UNL A   1      43.725  29.959  35.863  1.00  0.00     0.065 H 
BRANCH  85 105
ATOM    105  C   UNL A   1      42.595  26.310  27.810  1.00  0.00     0.064 A 
ATOM    106  C   UNL A   1      43.468  26.788  26.820  1.00  0.00     0.173 A 
ATOM    107  C   UNL A   1      42.168  24.977  27.719  1.00  0.00     0.173 A 
ATOM    108  F   UNL A   1      43.897  28.058  26.855  1.00  0.00    -0.203 F 
ATOM    109  C   UNL A   1      43.873  25.972  25.766  1.00  0.00     0.198 A 
ATOM    110  C   UNL A   1      42.597  24.155  26.680  1.00  0.00     0.198 A 
ATOM    111  F   UNL A   1      41.338  24.468  28.642  1.00  0.00    -0.203 F 
ATOM    112  F   UNL A   1      44.669  26.465  24.808  1.00  0.00    -0.200 F 
ATOM    113  C   UNL A   1      43.443  24.656  25.700  1.00  0.00     0.200 A 
ATOM    114  F   UNL A   1      42.190  22.880  26.624  1.00  0.00    -0.200 F 
ATOM    115  F   UNL A   1      43.838  23.870  24.689  1.00  0.00    -0.200 F 
ENDBRANCH  85 105
BRANCH  88 116
ATOM    116  C   UNL A   1      39.220  32.041  35.258  1.00  0.00     0.064 A 
ATOM    117  C   UNL A   1      38.479  31.472  36.304  1.00  0.00     0.173 A 
ATOM    118  C   UNL A   1      39.465  33.421  35.306  1.00  0.00     0.173 A 
ATOM    119  F   UNL A   1      38.202  30.160  36.290  1.00  0.00    -0.203 F 
ATOM    120  C   UNL A   1      37.983  32.255  37.343  1.00  0.00     0.198 A 
ATOM    121  C   UNL A   1      38.991  34.199  36.360  1.00  0.00     0.198 A 
ATOM    122  F   UNL A   1      40.171  34.012  34.333  1.00  0.00    -0.203 F 
ATOM    123  F   UNL A   1      37.240  31.693  38.306  1.00  0.00    -0.200 F 
ATOM    124  C   UNL A   1      38.244  33.617  37.374  1.00  0.00     0.200 A 
ATOM    125  F   UNL A   1      39.255  35.512  36.393  1.00  0.00    -0.200 F 
ATOM    126  F   UNL A   1      37.769  34.369  38.375  1.00  0.00    -0.200 F 
ENDBRANCH  88 116
BRANCH 103 127
ATOM    127  C   UNL A   1      45.080  28.418  34.242  1.00  0.00     0.064 A 
ATOM    128  C   UNL A   1      45.203  27.351  35.142  1.00  0.00     0.173 A 
ATOM    129  C   UNL A   1      46.164  29.298  34.110  1.00  0.00     0.173 A 
ATOM    130  F   UNL A   1      44.187  26.492  35.315  1.00  0.00    -0.203 F 
ATOM    131  C   UNL A   1      46.361  27.184  35.898  1.00  0.00     0.198 A 
ATOM    132  C   UNL A   1      47.330  29.113  34.847  1.00  0.00     0.198 A 
ATOM    133  F   UNL A   1      46.097  30.332  33.258  1.00  0.00    -0.203 F 
ATOM    134  F   UNL A   1      46.441  26.182  36.785  1.00  0.00    -0.200 F 
ATOM    135  C   UNL A   1      47.425  28.060  35.745  1.00  0.00     0.200 A 
ATOM    136  F   UNL A   1      48.362  29.954  34.689  1.00  0.00    -0.200 F 
ATOM    137  F   UNL A   1      48.541  27.895  36.469  1.00  0.00    -0.200 F 
ENDBRANCH 103 127
ENDBRANCH  68  71
ENDBRANCH  58  61
ENDBRANCH  54  57
ENDBRANCH  51  54
ENDBRANCH  48  51
ENDBRANCH   1  48
TORSDOF 17
ENDMDL
MODEL 3
REMARK VINA RESULT:     -12.2      2.331      7.447
REMARK SMILES Cc1cc2cc(-c3ccc([C@@H](C)C(=O)NCCCCCCNC(=O)c4ccc(-c5c6nc(c(-c7c(F)c(F)c(F)c(F)c7F)c7ccc([nH]7)c(-c7c(F)c(F)c(F)c(F)c7F)c7nc(c(-c8c(F)c(F)c(F)c(F)c8F)c8ccc5[nH]8)C=C7)C=C6)cc4)cc3)ccc2[nH]1
REMARK SMILES IDX 18 1 17 4 16 7 15 10 13 11 14 12 11 14 10 16 7 17 8 18 89 19
REMARK SMILES IDX 9 20 88 22 6 26 2 27 3 28 93 29 4 30 92 32 5 34 91 35 90 37
REMARK SMILES IDX 1 40 12 44 19 48 20 51 21 54 22 57 23 58 24 60 25 61 26 62
REMARK SMILES IDX 87 63 27 64 86 66 28 68 29 71 30 72 80 73 31 74 85 75 79 76
REMARK SMILES IDX 81 77 32 78 84 79 78 81 77 83 33 85 65 88 45 89 64 90 46 91
REMARK SMILES IDX 49 92 63 93 82 94 47 95 48 97 62 99 83 100 50 103 34 105
REMARK SMILES IDX 35 106 43 107 36 108 37 109 41 110 44 111 38 112 39 113
REMARK SMILES IDX 42 114 40 115 66 116 67 117 75 118 68 119 69 120 73 121
REMARK SMILES IDX 76 122 70 123 71 124 74 125 72 126 51 127 52 128 60 129
REMARK SMILES IDX 53 130 54 131 58 132 61 133 55 134 56 135 59 136 57 137
REMARK H PARENT 18 2 18 3 17 5 17 6 16 8 16 9 15 13 11 15 8 21 89 23 9 24
REMARK H PARENT 88 25 3 31 93 33 5 36 91 38 90 39 1 41 1 42 1 43 12 45 12 46
REMARK H PARENT 12 47 19 49 19 50 20 52 20 53 21 55 21 56 22 59 26 65 87 67
REMARK H PARENT 27 69 86 70 85 80 79 82 81 84 84 86 78 87 46 96 49 98 82 101
REMARK H PARENT 47 102 83 104
REMARK Flexibility Score: inf
ROOT
ATOM      1  C   UNL A   1      34.076  25.718  25.734  1.00  0.00    -0.052 C 
ATOM      2  H   UNL A   1      34.594  26.294  26.472  1.00  0.00     0.027 H 
ATOM      3  H   UNL A   1      33.310  25.092  26.140  1.00  0.00     0.027 H 
ENDROOT
BRANCH   1   4
ATOM      4  C   UNL A   1      35.087  24.775  25.073  1.00  0.00    -0.036 C 
ATOM      5  H   UNL A   1      35.112  24.989  24.024  1.00  0.00     0.028 H 
ATOM      6  H   UNL A   1      36.029  24.947  25.549  1.00  0.00     0.028 H 
BRANCH   4   7
ATOM      7  C   UNL A   1      34.763  23.290  25.254  1.00  0.00     0.017 C 
ATOM      8  H   UNL A   1      34.026  23.007  24.531  1.00  0.00     0.049 H 
ATOM      9  H   UNL A   1      35.667  22.734  25.120  1.00  0.00     0.049 H 
BRANCH   7  10
ATOM     10  N   UNL A   1      34.253  23.006  26.579  1.00  0.00    -0.356 N 
ATOM     11  C   UNL A   1      33.023  22.617  27.012  1.00  0.00     0.227 C 
ATOM     12  O   UNL A   1      32.876  22.534  28.239  1.00  0.00    -0.274 OA
ATOM     13  H   UNL A   1      34.918  23.114  27.297  1.00  0.00     0.163 HD
BRANCH  11  14
ATOM     14  C   UNL A   1      31.855  22.272  26.077  1.00  0.00     0.060 C 
ATOM     15  H   UNL A   1      31.098  21.846  26.703  1.00  0.00     0.045 H 
BRANCH  14  16
ATOM     16  C   UNL A   1      31.169  23.493  25.484  1.00  0.00    -0.036 A 
ATOM     17  C   UNL A   1      29.800  25.705  24.302  1.00  0.00    -0.018 A 
ATOM     18  C   UNL A   1      29.928  25.570  25.693  1.00  0.00    -0.054 A 
ATOM     19  C   UNL A   1      30.388  24.709  23.510  1.00  0.00    -0.054 A 
ATOM     20  C   UNL A   1      30.628  24.508  26.271  1.00  0.00    -0.058 A 
ATOM     21  H   UNL A   1      29.493  26.275  26.308  1.00  0.00     0.063 H 
ATOM     22  C   UNL A   1      31.045  23.613  24.091  1.00  0.00    -0.058 A 
ATOM     23  H   UNL A   1      30.337  24.783  22.483  1.00  0.00     0.063 H 
ATOM     24  H   UNL A   1      30.746  24.475  27.296  1.00  0.00     0.063 H 
ATOM     25  H   UNL A   1      31.444  22.882  23.481  1.00  0.00     0.063 H 
BRANCH  17  26
ATOM     26  C   UNL A   1      29.073  26.861  23.729  1.00  0.00    -0.018 A 
ATOM     27  C   UNL A   1      28.475  31.006  21.704  1.00  0.00     0.013 A 
ATOM     28  C   UNL A   1      29.572  30.197  21.908  1.00  0.00    -0.034 A 
ATOM     29  N   UNL A   1      27.380  30.347  22.210  1.00  0.00    -0.359 N 
ATOM     30  C   UNL A   1      29.130  29.023  22.570  1.00  0.00     0.000 A 
ATOM     31  H   UNL A   1      30.543  30.408  21.628  1.00  0.00     0.065 H 
ATOM     32  C   UNL A   1      27.756  29.140  22.756  1.00  0.00     0.046 A 
ATOM     33  H   UNL A   1      26.457  30.688  22.186  1.00  0.00     0.166 HD
ATOM     34  C   UNL A   1      29.780  27.868  23.040  1.00  0.00    -0.045 A 
ATOM     35  C   UNL A   1      27.003  28.150  23.396  1.00  0.00    -0.037 A 
ATOM     36  H   UNL A   1      30.794  27.756  22.877  1.00  0.00     0.064 H 
ATOM     37  C   UNL A   1      27.686  27.024  23.883  1.00  0.00    -0.052 A 
ATOM     38  H   UNL A   1      25.981  28.245  23.505  1.00  0.00     0.065 H 
ATOM     39  H   UNL A   1      27.151  26.289  24.370  1.00  0.00     0.063 H 
BRANCH  27  40
ATOM     40  C   UNL A   1      28.369  32.343  21.072  1.00  0.00    -0.024 C 
ATOM     41  H   UNL A   1      28.377  33.098  21.830  1.00  0.00     0.029 H 
ATOM     42  H   UNL A   1      27.455  32.404  20.518  1.00  0.00     0.029 H 
ATOM     43  H   UNL A   1      29.196  32.491  20.411  1.00  0.00     0.029 H 
ENDBRANCH  27  40
ENDBRANCH  17  26
ENDBRANCH  14  16
BRANCH  14  44
ATOM     44  C   UNL A   1      32.159  21.136  25.098  1.00  0.00    -0.049 C 
ATOM     45  H   UNL A   1      31.523  20.302  25.311  1.00  0.00     0.024 H 
ATOM     46  H   UNL A   1      33.182  20.841  25.200  1.00  0.00     0.024 H 
ATOM     47  H   UNL A   1      31.983  21.472  24.097  1.00  0.00     0.024 H 
ENDBRANCH  14  44
ENDBRANCH  11  14
ENDBRANCH   7  10
ENDBRANCH   4   7
ENDBRANCH   1   4
BRANCH   1  48
ATOM     48  C   UNL A   1      33.371  26.692  24.782  1.00  0.00    -0.052 C 
ATOM     49  H   UNL A   1      32.493  26.209  24.408  1.00  0.00     0.027 H 
ATOM     50  H   UNL A   1      34.088  26.933  24.025  1.00  0.00     0.027 H 
BRANCH  48  51
ATOM     51  C   UNL A   1      32.947  28.030  25.397  1.00  0.00    -0.036 C 
ATOM     52  H   UNL A   1      31.895  27.990  25.589  1.00  0.00     0.028 H 
ATOM     53  H   UNL A   1      33.220  28.785  24.689  1.00  0.00     0.028 H 
BRANCH  51  54
ATOM     54  C   UNL A   1      33.654  28.391  26.701  1.00  0.00     0.018 C 
ATOM     55  H   UNL A   1      34.694  28.154  26.608  1.00  0.00     0.049 H 
ATOM     56  H   UNL A   1      33.199  27.829  27.490  1.00  0.00     0.049 H 
BRANCH  54  57
ATOM     57  N   UNL A   1      33.521  29.802  27.020  1.00  0.00    -0.352 N 
ATOM     58  C   UNL A   1      34.328  30.615  27.777  1.00  0.00     0.251 C 
ATOM     59  H   UNL A   1      32.730  30.245  26.632  1.00  0.00     0.163 HD
ATOM     60  O   UNL A   1      33.938  31.728  28.111  1.00  0.00    -0.269 OA
BRANCH  58  61
ATOM     61  C   UNL A   1      35.666  30.151  28.202  1.00  0.00     0.039 A 
ATOM     62  C   UNL A   1      36.726  30.225  27.295  1.00  0.00    -0.049 A 
ATOM     63  C   UNL A   1      35.868  29.604  29.472  1.00  0.00    -0.049 A 
ATOM     64  C   UNL A   1      38.001  29.799  27.678  1.00  0.00    -0.053 A 
ATOM     65  H   UNL A   1      36.568  30.594  26.344  1.00  0.00     0.063 H 
ATOM     66  C   UNL A   1      37.150  29.237  29.875  1.00  0.00    -0.053 A 
ATOM     67  H   UNL A   1      35.068  29.472  30.111  1.00  0.00     0.063 H 
ATOM     68  C   UNL A   1      38.227  29.326  28.980  1.00  0.00    -0.014 A 
ATOM     69  H   UNL A   1      38.778  29.833  27.001  1.00  0.00     0.063 H 
ATOM     70  H   UNL A   1      37.309  28.899  30.837  1.00  0.00     0.063 H 
BRANCH  68  71
ATOM     71  C   UNL A   1      39.581  28.906  29.421  1.00  0.00     0.031 A 
ATOM     72  C   UNL A   1      40.376  29.779  30.351  1.00  0.00     0.074 A 
ATOM     73  C   UNL A   1      40.118  27.770  28.936  1.00  0.00     0.049 A 
ATOM     74  N   UNL A   1      41.602  29.626  30.786  1.00  0.00    -0.248 NA
ATOM     75  C   UNL A   1      39.713  30.998  30.839  1.00  0.00    -0.034 C 
ATOM     76  C   UNL A   1      39.461  26.858  28.000  1.00  0.00    -0.036 A 
ATOM     77  N   UNL A   1      41.345  27.195  29.156  1.00  0.00    -0.354 N 
ATOM     78  C   UNL A   1      41.859  30.733  31.584  1.00  0.00     0.074 A 
ATOM     79  C   UNL A   1      40.682  31.574  31.536  1.00  0.00    -0.034 C 
ATOM     80  H   UNL A   1      38.745  31.321  30.681  1.00  0.00     0.065 H 
ATOM     81  C   UNL A   1      40.284  25.829  27.738  1.00  0.00    -0.036 A 
ATOM     82  H   UNL A   1      38.517  26.985  27.603  1.00  0.00     0.065 H 
ATOM     83  C   UNL A   1      41.537  26.027  28.460  1.00  0.00     0.049 A 
ATOM     84  H   UNL A   1      42.023  27.584  29.755  1.00  0.00     0.167 HD
ATOM     85  C   UNL A   1      42.968  31.012  32.311  1.00  0.00     0.037 A 
ATOM     86  H   UNL A   1      40.607  32.500  31.984  1.00  0.00     0.065 H 
ATOM     87  H   UNL A   1      40.065  25.028  27.125  1.00  0.00     0.065 H 
ATOM     88  C   UNL A   1      42.607  25.212  28.406  1.00  0.00     0.037 A 
ATOM     89  C   UNL A   1      44.128  30.163  32.377  1.00  0.00     0.049 A 
ATOM     90  C   UNL A   1      43.830  25.549  29.216  1.00  0.00     0.074 A 
ATOM     91  C   UNL A   1      45.284  30.335  33.119  1.00  0.00    -0.036 A 
ATOM     92  N   UNL A   1      44.279  28.978  31.672  1.00  0.00    -0.354 N 
ATOM     93  N   UNL A   1      44.042  26.571  30.009  1.00  0.00    -0.248 NA
ATOM     94  C   UNL A   1      44.962  24.615  29.126  1.00  0.00    -0.034 C 
ATOM     95  C   UNL A   1      46.149  29.271  32.837  1.00  0.00    -0.036 A 
ATOM     96  H   UNL A   1      45.475  31.112  33.770  1.00  0.00     0.065 H 
ATOM     97  C   UNL A   1      45.514  28.415  31.952  1.00  0.00     0.049 A 
ATOM     98  H   UNL A   1      43.607  28.592  31.064  1.00  0.00     0.167 HD
ATOM     99  C   UNL A   1      45.313  26.388  30.536  1.00  0.00     0.074 A 
ATOM    100  C   UNL A   1      45.821  25.151  29.980  1.00  0.00    -0.034 C 
ATOM    101  H   UNL A   1      45.060  23.765  28.549  1.00  0.00     0.065 H 
ATOM    102  H   UNL A   1      47.098  29.147  33.223  1.00  0.00     0.065 H 
ATOM    103  C   UNL A   1      45.998  27.175  31.400  1.00  0.00     0.037 A 
ATOM    104  H   UNL A   1      46.737  24.740  30.219  1.00  0.00     0.065 H 
BRANCH  85 105
ATOM    105  C   UNL A   1      42.976  32.289  33.099  1.00  0.00     0.064 A 
ATOM    106  C   UNL A   1      42.519  32.334  34.426  1.00  0.00     0.173 A 
ATOM    107  C   UNL A   1      43.478  33.473  32.539  1.00  0.00     0.173 A 
ATOM    108  F   UNL A   1      42.020  31.232  35.005  1.00  0.00    -0.203 F 
ATOM    109  C   UNL A   1      42.537  33.523  35.151  1.00  0.00     0.198 A 
ATOM    110  C   UNL A   1      43.521  34.654  33.275  1.00  0.00     0.198 A 
ATOM    111  F   UNL A   1      43.933  33.484  31.277  1.00  0.00    -0.203 F 
ATOM    112  F   UNL A   1      42.051  33.552  36.399  1.00  0.00    -0.200 F 
ATOM    113  C   UNL A   1      43.043  34.680  34.578  1.00  0.00     0.200 A 
ATOM    114  F   UNL A   1      44.021  35.768  32.724  1.00  0.00    -0.200 F 
ATOM    115  F   UNL A   1      43.065  35.822  35.278  1.00  0.00    -0.200 F 
ENDBRANCH  85 105
BRANCH  88 116
ATOM    116  C   UNL A   1      42.563  23.981  27.575  1.00  0.00     0.064 A 
ATOM    117  C   UNL A   1      42.118  22.766  28.116  1.00  0.00     0.173 A 
ATOM    118  C   UNL A   1      42.968  23.989  26.233  1.00  0.00     0.173 A 
ATOM    119  F   UNL A   1      41.740  22.706  29.402  1.00  0.00    -0.203 F 
ATOM    120  C   UNL A   1      42.099  21.602  27.353  1.00  0.00     0.198 A 
ATOM    121  C   UNL A   1      42.924  22.829  25.462  1.00  0.00     0.198 A 
ATOM    122  F   UNL A   1      43.399  25.125  25.668  1.00  0.00    -0.203 F 
ATOM    123  F   UNL A   1      41.712  20.446  27.908  1.00  0.00    -0.200 F 
ATOM    124  C   UNL A   1      42.497  21.634  26.025  1.00  0.00     0.200 A 
ATOM    125  F   UNL A   1      43.298  22.867  24.176  1.00  0.00    -0.200 F 
ATOM    126  F   UNL A   1      42.478  20.515  25.290  1.00  0.00    -0.200 F 
ENDBRANCH  88 116
BRANCH 103 127
ATOM    127  C   UNL A   1      47.355  26.703  31.831  1.00  0.00     0.064 A 
ATOM    128  C   UNL A   1      47.520  25.843  32.927  1.00  0.00     0.173 A 
ATOM    129  C   UNL A   1      48.499  27.086  31.116  1.00  0.00     0.173 A 
ATOM    130  F   UNL A   1      46.458  25.463  33.652  1.00  0.00    -0.203 F 
ATOM    131  C   UNL A   1      48.786  25.403  33.305  1.00  0.00     0.198 A 
ATOM    132  C   UNL A   1      49.760  26.621  31.480  1.00  0.00     0.198 A 
ATOM    133  F   UNL A   1      48.393  27.902  30.057  1.00  0.00    -0.203 F 
ATOM    134  F   UNL A   1      48.925  24.617  34.382  1.00  0.00    -0.200 F 
ATOM    135  C   UNL A   1      49.902  25.786  32.577  1.00  0.00     0.200 A 
ATOM    136  F   UNL A   1      50.837  26.983  30.768  1.00  0.00    -0.200 F 
ATOM    137  F   UNL A   1      51.120  25.355  32.939  1.00  0.00    -0.200 F 
ENDBRANCH 103 127
ENDBRANCH  68  71
ENDBRANCH  58  61
ENDBRANCH  54  57
ENDBRANCH  51  54
ENDBRANCH  48  51
ENDBRANCH   1  48
TORSDOF 17
ENDMDL
MODEL 4
REMARK VINA RESULT:     -12.2      3.920      7.415
REMARK SMILES Cc1cc2cc(-c3ccc([C@@H](C)C(=O)NCCCCCCNC(=O)c4ccc(-c5c6nc(c(-c7c(F)c(F)c(F)c(F)c7F)c7ccc([nH]7)c(-c7c(F)c(F)c(F)c(F)c7F)c7nc(c(-c8c(F)c(F)c(F)c(F)c8F)c8ccc5[nH]8)C=C7)C=C6)cc4)cc3)ccc2[nH]1
REMARK SMILES IDX 18 1 17 4 16 7 15 10 13 11 14 12 11 14 10 16 7 17 8 18 89 19
REMARK SMILES IDX 9 20 88 22 6 26 2 27 3 28 93 29 4 30 92 32 5 34 91 35 90 37
REMARK SMILES IDX 1 40 12 44 19 48 20 51 21 54 22 57 23 58 24 60 25 61 26 62
REMARK SMILES IDX 87 63 27 64 86 66 28 68 29 71 30 72 80 73 31 74 85 75 79 76
REMARK SMILES IDX 81 77 32 78 84 79 78 81 77 83 33 85 65 88 45 89 64 90 46 91
REMARK SMILES IDX 49 92 63 93 82 94 47 95 48 97 62 99 83 100 50 103 34 105
REMARK SMILES IDX 35 106 43 107 36 108 37 109 41 110 44 111 38 112 39 113
REMARK SMILES IDX 42 114 40 115 66 116 67 117 75 118 68 119 69 120 73 121
REMARK SMILES IDX 76 122 70 123 71 124 74 125 72 126 51 127 52 128 60 129
REMARK SMILES IDX 53 130 54 131 58 132 61 133 55 134 56 135 59 136 57 137
REMARK H PARENT 18 2 18 3 17 5 17 6 16 8 16 9 15 13 11 15 8 21 89 23 9 24
REMARK H PARENT 88 25 3 31 93 33 5 36 91 38 90 39 1 41 1 42 1 43 12 45 12 46
REMARK H PARENT 12 47 19 49 19 50 20 52 20 53 21 55 21 56 22 59 26 65 87 67
REMARK H PARENT 27 69 86 70 85 80 79 82 81 84 84 86 78 87 46 96 49 98 82 101
REMARK H PARENT 47 102 83 104
REMARK Flexibility Score: inf
ROOT
ATOM      1  C   UNL A   1      34.307  25.559  25.309  1.00  0.00    -0.052 C 
ATOM      2  H   UNL A   1      35.367  25.680  25.385  1.00  0.00     0.027 H 
ATOM      3  H   UNL A   1      33.938  25.637  24.308  1.00  0.00     0.027 H 
ENDROOT
BRANCH   1   4
ATOM      4  C   UNL A   1      33.642  26.694  26.095  1.00  0.00    -0.036 C 
ATOM      5  H   UNL A   1      32.998  26.261  26.832  1.00  0.00     0.028 H 
ATOM      6  H   UNL A   1      34.430  27.274  26.527  1.00  0.00     0.028 H 
BRANCH   4   7
ATOM      7  C   UNL A   1      32.813  27.646  25.230  1.00  0.00     0.017 C 
ATOM      8  H   UNL A   1      31.886  27.170  24.983  1.00  0.00     0.049 H 
ATOM      9  H   UNL A   1      32.648  28.544  25.789  1.00  0.00     0.049 H 
BRANCH   7  10
ATOM     10  N   UNL A   1      33.498  28.000  24.005  1.00  0.00    -0.356 N 
ATOM     11  C   UNL A   1      33.243  27.697  22.703  1.00  0.00     0.227 C 
ATOM     12  O   UNL A   1      34.077  28.087  21.876  1.00  0.00    -0.274 OA
ATOM     13  H   UNL A   1      34.295  28.563  24.139  1.00  0.00     0.163 HD
BRANCH  11  14
ATOM     14  C   UNL A   1      31.997  26.933  22.230  1.00  0.00     0.060 C 
ATOM     15  H   UNL A   1      31.992  27.019  21.164  1.00  0.00     0.045 H 
BRANCH  14  16
ATOM     16  C   UNL A   1      32.082  25.432  22.458  1.00  0.00    -0.036 A 
ATOM     17  C   UNL A   1      32.119  22.599  22.834  1.00  0.00    -0.018 A 
ATOM     18  C   UNL A   1      33.122  23.264  22.113  1.00  0.00    -0.054 A 
ATOM     19  C   UNL A   1      31.097  23.390  23.378  1.00  0.00    -0.054 A 
ATOM     20  C   UNL A   1      33.125  24.653  21.959  1.00  0.00    -0.058 A 
ATOM     21  H   UNL A   1      33.881  22.712  21.683  1.00  0.00     0.063 H 
ATOM     22  C   UNL A   1      31.068  24.779  23.178  1.00  0.00    -0.058 A 
ATOM     23  H   UNL A   1      30.352  22.943  23.934  1.00  0.00     0.063 H 
ATOM     24  H   UNL A   1      33.910  25.109  21.469  1.00  0.00     0.063 H 
ATOM     25  H   UNL A   1      30.288  25.330  23.568  1.00  0.00     0.063 H 
BRANCH  17  26
ATOM     26  C   UNL A   1      32.168  21.128  22.997  1.00  0.00    -0.018 A 
ATOM     27  C   UNL A   1      32.822  17.044  25.126  1.00  0.00     0.013 A 
ATOM     28  C   UNL A   1      32.765  18.348  25.568  1.00  0.00    -0.034 A 
ATOM     29  N   UNL A   1      32.594  17.061  23.771  1.00  0.00    -0.359 N 
ATOM     30  C   UNL A   1      32.511  19.178  24.445  1.00  0.00     0.000 A 
ATOM     31  H   UNL A   1      32.885  18.666  26.543  1.00  0.00     0.065 H 
ATOM     32  C   UNL A   1      32.414  18.353  23.330  1.00  0.00     0.046 A 
ATOM     33  H   UNL A   1      32.562  16.263  23.196  1.00  0.00     0.166 HD
ATOM     34  C   UNL A   1      32.364  20.566  24.275  1.00  0.00    -0.045 A 
ATOM     35  C   UNL A   1      32.179  18.857  22.046  1.00  0.00    -0.037 A 
ATOM     36  H   UNL A   1      32.400  21.185  25.102  1.00  0.00     0.064 H 
ATOM     37  C   UNL A   1      32.069  20.250  21.904  1.00  0.00    -0.052 A 
ATOM     38  H   UNL A   1      32.088  18.227  21.234  1.00  0.00     0.065 H 
ATOM     39  H   UNL A   1      31.909  20.643  20.964  1.00  0.00     0.063 H 
BRANCH  27  40
ATOM     40  C   UNL A   1      33.068  15.786  25.870  1.00  0.00    -0.024 C 
ATOM     41  H   UNL A   1      32.164  15.215  25.915  1.00  0.00     0.029 H 
ATOM     42  H   UNL A   1      33.394  16.017  26.863  1.00  0.00     0.029 H 
ATOM     43  H   UNL A   1      33.824  15.218  25.371  1.00  0.00     0.029 H 
ENDBRANCH  27  40
ENDBRANCH  17  26
ENDBRANCH  14  16
BRANCH  14  44
ATOM     44  C   UNL A   1      30.676  27.595  22.627  1.00  0.00    -0.049 C 
ATOM     45  H   UNL A   1      30.240  27.059  23.444  1.00  0.00     0.024 H 
ATOM     46  H   UNL A   1      30.005  27.580  21.793  1.00  0.00     0.024 H 
ATOM     47  H   UNL A   1      30.858  28.607  22.920  1.00  0.00     0.024 H 
ENDBRANCH  14  44
ENDBRANCH  11  14
ENDBRANCH   7  10
ENDBRANCH   4   7
ENDBRANCH   1   4
BRANCH   1  48
ATOM     48  C   UNL A   1      33.956  24.142  25.782  1.00  0.00    -0.052 C 
ATOM     49  H   UNL A   1      33.172  23.771  25.157  1.00  0.00     0.027 H 
ATOM     50  H   UNL A   1      33.680  24.238  26.812  1.00  0.00     0.027 H 
BRANCH  48  51
ATOM     51  C   UNL A   1      35.105  23.129  25.750  1.00  0.00    -0.036 C 
ATOM     52  H   UNL A   1      35.002  22.538  24.863  1.00  0.00     0.028 H 
ATOM     53  H   UNL A   1      35.026  22.558  26.651  1.00  0.00     0.028 H 
BRANCH  51  54
ATOM     54  C   UNL A   1      36.503  23.742  25.751  1.00  0.00     0.018 C 
ATOM     55  H   UNL A   1      36.572  24.443  26.557  1.00  0.00     0.049 H 
ATOM     56  H   UNL A   1      36.654  24.223  24.808  1.00  0.00     0.049 H 
BRANCH  54  57
ATOM     57  N   UNL A   1      37.538  22.735  25.914  1.00  0.00    -0.352 N 
ATOM     58  C   UNL A   1      38.845  22.871  26.311  1.00  0.00     0.251 C 
ATOM     59  H   UNL A   1      37.259  21.812  25.709  1.00  0.00     0.163 HD
ATOM     60  O   UNL A   1      39.627  21.936  26.181  1.00  0.00    -0.269 OA
BRANCH  58  61
ATOM     61  C   UNL A   1      39.322  24.146  26.888  1.00  0.00     0.039 A 
ATOM     62  C   UNL A   1      40.007  25.045  26.065  1.00  0.00    -0.049 A 
ATOM     63  C   UNL A   1      39.135  24.438  28.242  1.00  0.00    -0.049 A 
ATOM     64  C   UNL A   1      40.461  26.259  26.588  1.00  0.00    -0.053 A 
ATOM     65  H   UNL A   1      40.178  24.812  25.074  1.00  0.00     0.063 H 
ATOM     66  C   UNL A   1      39.532  25.674  28.747  1.00  0.00    -0.053 A 
ATOM     67  H   UNL A   1      38.705  23.739  28.866  1.00  0.00     0.063 H 
ATOM     68  C   UNL A   1      40.203  26.593  27.927  1.00  0.00    -0.014 A 
ATOM     69  H   UNL A   1      40.986  26.912  25.987  1.00  0.00     0.063 H 
ATOM     70  H   UNL A   1      39.331  25.915  29.730  1.00  0.00     0.063 H 
BRANCH  68  71
ATOM     71  C   UNL A   1      40.641  27.895  28.492  1.00  0.00     0.031 A 
ATOM     72  C   UNL A   1      42.084  28.113  28.852  1.00  0.00     0.074 A 
ATOM     73  C   UNL A   1      39.731  28.857  28.735  1.00  0.00     0.049 A 
ATOM     74  N   UNL A   1      42.648  29.145  29.427  1.00  0.00    -0.248 NA
ATOM     75  C   UNL A   1      43.014  27.014  28.547  1.00  0.00    -0.034 C 
ATOM     76  C   UNL A   1      38.298  28.752  28.462  1.00  0.00    -0.036 A 
ATOM     77  N   UNL A   1      39.876  30.109  29.278  1.00  0.00    -0.354 N 
ATOM     78  C   UNL A   1      43.990  28.815  29.565  1.00  0.00     0.074 A 
ATOM     79  C   UNL A   1      44.148  27.469  29.058  1.00  0.00    -0.034 C 
ATOM     80  H   UNL A   1      42.830  26.122  28.061  1.00  0.00     0.065 H 
ATOM     81  C   UNL A   1      37.697  29.897  28.823  1.00  0.00    -0.036 A 
ATOM     82  H   UNL A   1      37.824  27.928  28.058  1.00  0.00     0.065 H 
ATOM     83  C   UNL A   1      38.696  30.802  29.382  1.00  0.00     0.049 A 
ATOM     84  H   UNL A   1      40.744  30.475  29.565  1.00  0.00     0.167 HD
ATOM     85  C   UNL A   1      45.002  29.574  30.048  1.00  0.00     0.037 A 
ATOM     86  H   UNL A   1      45.029  26.933  29.090  1.00  0.00     0.065 H 
ATOM     87  H   UNL A   1      36.690  30.104  28.720  1.00  0.00     0.065 H 
ATOM     88  C   UNL A   1      38.447  32.028  29.881  1.00  0.00     0.037 A 
ATOM     89  C   UNL A   1      44.847  30.922  30.529  1.00  0.00     0.049 A 
ATOM     90  C   UNL A   1      39.588  32.847  30.420  1.00  0.00     0.074 A 
ATOM     91  C   UNL A   1      45.817  31.790  30.997  1.00  0.00    -0.036 A 
ATOM     92  N   UNL A   1      43.637  31.597  30.603  1.00  0.00    -0.354 N 
ATOM     93  N   UNL A   1      40.862  32.546  30.496  1.00  0.00    -0.248 NA
ATOM     94  C   UNL A   1      39.257  34.183  30.940  1.00  0.00    -0.034 C 
ATOM     95  C   UNL A   1      45.191  32.979  31.387  1.00  0.00    -0.036 A 
ATOM     96  H   UNL A   1      46.829  31.595  31.049  1.00  0.00     0.065 H 
ATOM     97  C   UNL A   1      43.836  32.867  31.121  1.00  0.00     0.049 A 
ATOM     98  H   UNL A   1      42.767  31.230  30.326  1.00  0.00     0.167 HD
ATOM     99  C   UNL A   1      41.487  33.659  31.039  1.00  0.00     0.074 A 
ATOM    100  C   UNL A   1      40.454  34.649  31.265  1.00  0.00    -0.034 C 
ATOM    101  H   UNL A   1      38.334  34.637  31.027  1.00  0.00     0.065 H 
ATOM    102  H   UNL A   1      45.660  33.800  31.801  1.00  0.00     0.065 H 
ATOM    103  C   UNL A   1      42.798  33.845  31.327  1.00  0.00     0.037 A 
ATOM    104  H   UNL A   1      40.628  35.598  31.633  1.00  0.00     0.065 H 
BRANCH  85 105
ATOM    105  C   UNL A   1      46.373  28.965  30.075  1.00  0.00     0.064 A 
ATOM    106  C   UNL A   1      46.840  28.258  31.195  1.00  0.00     0.173 A 
ATOM    107  C   UNL A   1      47.218  29.056  28.959  1.00  0.00     0.173 A 
ATOM    108  F   UNL A   1      46.075  28.152  32.291  1.00  0.00    -0.203 F 
ATOM    109  C   UNL A   1      48.112  27.692  31.206  1.00  0.00     0.198 A 
ATOM    110  C   UNL A   1      48.479  28.464  28.963  1.00  0.00     0.198 A 
ATOM    111  F   UNL A   1      46.819  29.714  27.860  1.00  0.00    -0.203 F 
ATOM    112  F   UNL A   1      48.553  27.063  32.304  1.00  0.00    -0.200 F 
ATOM    113  C   UNL A   1      48.927  27.789  30.089  1.00  0.00     0.200 A 
ATOM    114  F   UNL A   1      49.261  28.549  27.878  1.00  0.00    -0.200 F 
ATOM    115  F   UNL A   1      50.149  27.238  30.099  1.00  0.00    -0.200 F 
ENDBRANCH  85 105
BRANCH  88 116
ATOM    116  C   UNL A   1      37.063  32.569  29.870  1.00  0.00     0.064 A 
ATOM    117  C   UNL A   1      36.585  33.294  28.769  1.00  0.00     0.173 A 
ATOM    118  C   UNL A   1      36.196  32.381  30.955  1.00  0.00     0.173 A 
ATOM    119  F   UNL A   1      37.387  33.517  27.717  1.00  0.00    -0.203 F 
ATOM    120  C   UNL A   1      35.299  33.827  28.762  1.00  0.00     0.198 A 
ATOM    121  C   UNL A   1      34.900  32.893  30.936  1.00  0.00     0.198 A 
ATOM    122  F   UNL A   1      36.603  31.693  32.031  1.00  0.00    -0.203 F 
ATOM    123  F   UNL A   1      34.884  34.554  27.716  1.00  0.00    -0.200 F 
ATOM    124  C   UNL A   1      34.455  33.623  29.843  1.00  0.00     0.200 A 
ATOM    125  F   UNL A   1      34.083  32.683  31.977  1.00  0.00    -0.200 F 
ATOM    126  F   UNL A   1      33.218  34.135  29.835  1.00  0.00    -0.200 F 
ENDBRANCH  88 116
BRANCH 103 127
ATOM    127  C   UNL A   1      43.197  35.181  31.879  1.00  0.00     0.064 A 
ATOM    128  C   UNL A   1      43.659  36.212  31.048  1.00  0.00     0.173 A 
ATOM    129  C   UNL A   1      43.081  35.444  33.252  1.00  0.00     0.173 A 
ATOM    130  F   UNL A   1      43.803  36.003  29.730  1.00  0.00    -0.203 F 
ATOM    131  C   UNL A   1      44.012  37.451  31.575  1.00  0.00     0.198 A 
ATOM    132  C   UNL A   1      43.409  36.693  33.772  1.00  0.00     0.198 A 
ATOM    133  F   UNL A   1      42.640  34.493  34.088  1.00  0.00    -0.203 F 
ATOM    134  F   UNL A   1      44.493  38.407  30.768  1.00  0.00    -0.200 F 
ATOM    135  C   UNL A   1      43.880  37.692  32.934  1.00  0.00     0.200 A 
ATOM    136  F   UNL A   1      43.270  36.928  35.084  1.00  0.00    -0.200 F 
ATOM    137  F   UNL A   1      44.215  38.888  33.439  1.00  0.00    -0.200 F 
ENDBRANCH 103 127
ENDBRANCH  68  71
ENDBRANCH  58  61
ENDBRANCH  54  57
ENDBRANCH  51  54
ENDBRANCH  48  51
ENDBRANCH   1  48
TORSDOF 17
ENDMDL
MODEL 5
REMARK VINA RESULT:     -12.2      3.999      9.654
REMARK SMILES Cc1cc2cc(-c3ccc([C@@H](C)C(=O)NCCCCCCNC(=O)c4ccc(-c5c6nc(c(-c7c(F)c(F)c(F)c(F)c7F)c7ccc([nH]7)c(-c7c(F)c(F)c(F)c(F)c7F)c7nc(c(-c8c(F)c(F)c(F)c(F)c8F)c8ccc5[nH]8)C=C7)C=C6)cc4)cc3)ccc2[nH]1
REMARK SMILES IDX 18 1 17 4 16 7 15 10 13 11 14 12 11 14 10 16 7 17 8 18 89 19
REMARK SMILES IDX 9 20 88 22 6 26 2 27 3 28 93 29 4 30 92 32 5 34 91 35 90 37
REMARK SMILES IDX 1 40 12 44 19 48 20 51 21 54 22 57 23 58 24 60 25 61 26 62
REMARK SMILES IDX 87 63 27 64 86 66 28 68 29 71 30 72 80 73 31 74 85 75 79 76
REMARK SMILES IDX 81 77 32 78 84 79 78 81 77 83 33 85 65 88 45 89 64 90 46 91
REMARK SMILES IDX 49 92 63 93 82 94 47 95 48 97 62 99 83 100 50 103 34 105
REMARK SMILES IDX 35 106 43 107 36 108 37 109 41 110 44 111 38 112 39 113
REMARK SMILES IDX 42 114 40 115 66 116 67 117 75 118 68 119 69 120 73 121
REMARK SMILES IDX 76 122 70 123 71 124 74 125 72 126 51 127 52 128 60 129
REMARK SMILES IDX 53 130 54 131 58 132 61 133 55 134 56 135 59 136 57 137
REMARK H PARENT 18 2 18 3 17 5 17 6 16 8 16 9 15 13 11 15 8 21 89 23 9 24
REMARK H PARENT 88 25 3 31 93 33 5 36 91 38 90 39 1 41 1 42 1 43 12 45 12 46
REMARK H PARENT 12 47 19 49 19 50 20 52 20 53 21 55 21 56 22 59 26 65 87 67
REMARK H PARENT 27 69 86 70 85 80 79 82 81 84 84 86 78 87 46 96 49 98 82 101
REMARK H PARENT 47 102 83 104
REMARK Flexibility Score: inf
ROOT
ATOM      1  C   UNL A   1      33.705  25.043  25.706  1.00  0.00    -0.052 C 
ATOM      2  H   UNL A   1      32.827  24.894  25.112  1.00  0.00     0.027 H 
ATOM      3  H   UNL A   1      33.678  24.531  26.645  1.00  0.00     0.027 H 
ENDROOT
BRANCH   1   4
ATOM      4  C   UNL A   1      33.802  26.535  26.040  1.00  0.00    -0.036 C 
ATOM      5  H   UNL A   1      33.546  26.667  27.072  1.00  0.00     0.028 H 
ATOM      6  H   UNL A   1      34.805  26.837  25.824  1.00  0.00     0.028 H 
BRANCH   4   7
ATOM      7  C   UNL A   1      32.881  27.422  25.199  1.00  0.00     0.017 C 
ATOM      8  H   UNL A   1      31.999  26.868  24.952  1.00  0.00     0.049 H 
ATOM      9  H   UNL A   1      32.642  28.292  25.774  1.00  0.00     0.049 H 
BRANCH   7  10
ATOM     10  N   UNL A   1      33.520  27.856  23.974  1.00  0.00    -0.356 N 
ATOM     11  C   UNL A   1      33.229  27.617  22.666  1.00  0.00     0.227 C 
ATOM     12  O   UNL A   1      34.028  28.069  21.836  1.00  0.00    -0.274 OA
ATOM     13  H   UNL A   1      34.309  28.428  24.113  1.00  0.00     0.163 HD
BRANCH  11  14
ATOM     14  C   UNL A   1      31.984  26.852  22.191  1.00  0.00     0.060 C 
ATOM     15  H   UNL A   1      31.975  26.947  21.125  1.00  0.00     0.045 H 
BRANCH  14  16
ATOM     16  C   UNL A   1      32.076  25.350  22.406  1.00  0.00    -0.036 A 
ATOM     17  C   UNL A   1      32.121  22.515  22.772  1.00  0.00    -0.018 A 
ATOM     18  C   UNL A   1      33.053  23.172  21.953  1.00  0.00    -0.054 A 
ATOM     19  C   UNL A   1      31.168  23.315  23.418  1.00  0.00    -0.054 A 
ATOM     20  C   UNL A   1      33.054  24.561  21.802  1.00  0.00    -0.058 A 
ATOM     21  H   UNL A   1      33.758  22.614  21.448  1.00  0.00     0.063 H 
ATOM     22  C   UNL A   1      31.134  24.705  23.225  1.00  0.00    -0.058 A 
ATOM     23  H   UNL A   1      30.479  22.874  24.046  1.00  0.00     0.063 H 
ATOM     24  H   UNL A   1      33.790  25.010  21.235  1.00  0.00     0.063 H 
ATOM     25  H   UNL A   1      30.404  25.263  23.693  1.00  0.00     0.063 H 
BRANCH  17  26
ATOM     26  C   UNL A   1      32.171  21.043  22.926  1.00  0.00    -0.018 A 
ATOM     27  C   UNL A   1      32.862  16.947  25.020  1.00  0.00     0.013 A 
ATOM     28  C   UNL A   1      32.817  18.250  25.470  1.00  0.00    -0.034 A 
ATOM     29  N   UNL A   1      32.605  16.972  23.670  1.00  0.00    -0.359 N 
ATOM     30  C   UNL A   1      32.540  19.085  24.357  1.00  0.00     0.000 A 
ATOM     31  H   UNL A   1      32.958  18.562  26.444  1.00  0.00     0.065 H 
ATOM     32  C   UNL A   1      32.419  18.266  23.239  1.00  0.00     0.046 A 
ATOM     33  H   UNL A   1      32.559  16.176  23.092  1.00  0.00     0.166 HD
ATOM     34  C   UNL A   1      32.393  20.474  24.197  1.00  0.00    -0.045 A 
ATOM     35  C   UNL A   1      32.156  18.777  21.964  1.00  0.00    -0.037 A 
ATOM     36  H   UNL A   1      32.448  21.089  25.025  1.00  0.00     0.064 H 
ATOM     37  C   UNL A   1      32.046  20.171  21.831  1.00  0.00    -0.052 A 
ATOM     38  H   UNL A   1      32.047  18.152  21.151  1.00  0.00     0.065 H 
ATOM     39  H   UNL A   1      31.868  20.570  20.897  1.00  0.00     0.063 H 
BRANCH  27  40
ATOM     40  C   UNL A   1      33.122  15.685  25.752  1.00  0.00    -0.024 C 
ATOM     41  H   UNL A   1      33.889  15.846  26.481  1.00  0.00     0.029 H 
ATOM     42  H   UNL A   1      33.438  14.931  25.062  1.00  0.00     0.029 H 
ATOM     43  H   UNL A   1      32.226  15.366  26.242  1.00  0.00     0.029 H 
ENDBRANCH  27  40
ENDBRANCH  17  26
ENDBRANCH  14  16
BRANCH  14  44
ATOM     44  C   UNL A   1      30.662  27.505  22.598  1.00  0.00    -0.049 C 
ATOM     45  H   UNL A   1      30.056  27.655  21.729  1.00  0.00     0.024 H 
ATOM     46  H   UNL A   1      30.858  28.448  23.064  1.00  0.00     0.024 H 
ATOM     47  H   UNL A   1      30.147  26.868  23.286  1.00  0.00     0.024 H 
ENDBRANCH  14  44
ENDBRANCH  11  14
ENDBRANCH   7  10
ENDBRANCH   4   7
ENDBRANCH   1   4
BRANCH   1  48
ATOM     48  C   UNL A   1      34.901  24.465  24.939  1.00  0.00    -0.052 C 
ATOM     49  H   UNL A   1      35.788  24.929  25.314  1.00  0.00     0.027 H 
ATOM     50  H   UNL A   1      34.710  24.665  23.905  1.00  0.00     0.027 H 
BRANCH  48  51
ATOM     51  C   UNL A   1      35.084  22.947  25.043  1.00  0.00    -0.036 C 
ATOM     52  H   UNL A   1      35.629  22.618  24.183  1.00  0.00     0.028 H 
ATOM     53  H   UNL A   1      34.100  22.530  25.106  1.00  0.00     0.028 H 
BRANCH  51  54
ATOM     54  C   UNL A   1      35.831  22.473  26.288  1.00  0.00     0.018 C 
ATOM     55  H   UNL A   1      35.120  22.103  26.997  1.00  0.00     0.049 H 
ATOM     56  H   UNL A   1      36.375  23.305  26.683  1.00  0.00     0.049 H 
BRANCH  54  57
ATOM     57  N   UNL A   1      36.783  21.418  25.982  1.00  0.00    -0.352 N 
ATOM     58  C   UNL A   1      38.147  21.474  25.851  1.00  0.00     0.251 C 
ATOM     59  H   UNL A   1      36.388  20.525  25.848  1.00  0.00     0.163 HD
ATOM     60  O   UNL A   1      38.759  20.523  25.377  1.00  0.00    -0.269 OA
BRANCH  58  61
ATOM     61  C   UNL A   1      38.889  22.682  26.271  1.00  0.00     0.039 A 
ATOM     62  C   UNL A   1      39.907  22.554  27.221  1.00  0.00    -0.049 A 
ATOM     63  C   UNL A   1      38.557  23.943  25.768  1.00  0.00    -0.049 A 
ATOM     64  C   UNL A   1      40.625  23.682  27.628  1.00  0.00    -0.053 A 
ATOM     65  H   UNL A   1      40.126  21.628  27.622  1.00  0.00     0.063 H 
ATOM     66  C   UNL A   1      39.313  25.056  26.126  1.00  0.00    -0.053 A 
ATOM     67  H   UNL A   1      37.751  24.049  25.131  1.00  0.00     0.063 H 
ATOM     68  C   UNL A   1      40.350  24.937  27.063  1.00  0.00    -0.014 A 
ATOM     69  H   UNL A   1      41.360  23.590  28.346  1.00  0.00     0.063 H 
ATOM     70  H   UNL A   1      39.111  25.974  25.699  1.00  0.00     0.063 H 
BRANCH  68  71
ATOM     71  C   UNL A   1      41.128  26.141  27.452  1.00  0.00     0.031 A 
ATOM     72  C   UNL A   1      40.466  27.252  28.218  1.00  0.00     0.074 A 
ATOM     73  C   UNL A   1      42.412  26.260  27.063  1.00  0.00     0.049 A 
ATOM     74  N   UNL A   1      40.951  28.413  28.580  1.00  0.00    -0.248 NA
ATOM     75  C   UNL A   1      39.065  27.038  28.610  1.00  0.00    -0.034 C 
ATOM     76  C   UNL A   1      43.154  25.267  26.285  1.00  0.00    -0.036 A 
ATOM     77  N   UNL A   1      43.316  27.273  27.259  1.00  0.00    -0.354 N 
ATOM     78  C   UNL A   1      39.913  29.070  29.226  1.00  0.00     0.074 A 
ATOM     79  C   UNL A   1      38.758  28.201  29.166  1.00  0.00    -0.034 C 
ATOM     80  H   UNL A   1      38.474  26.201  28.485  1.00  0.00     0.065 H 
ATOM     81  C   UNL A   1      44.406  25.713  26.085  1.00  0.00    -0.036 A 
ATOM     82  H   UNL A   1      42.777  24.369  25.945  1.00  0.00     0.065 H 
ATOM     83  C   UNL A   1      44.542  27.034  26.689  1.00  0.00     0.049 A 
ATOM     84  H   UNL A   1      43.105  28.094  27.760  1.00  0.00     0.167 HD
ATOM     85  C   UNL A   1      39.928  30.280  29.836  1.00  0.00     0.037 A 
ATOM     86  H   UNL A   1      37.819  28.453  29.510  1.00  0.00     0.065 H 
ATOM     87  H   UNL A   1      45.150  25.202  25.584  1.00  0.00     0.065 H 
ATOM     88  C   UNL A   1      45.649  27.800  26.652  1.00  0.00     0.037 A 
ATOM     89  C   UNL A   1      41.085  31.133  29.916  1.00  0.00     0.049 A 
ATOM     90  C   UNL A   1      45.637  29.143  27.329  1.00  0.00     0.074 A 
ATOM     91  C   UNL A   1      41.215  32.357  30.550  1.00  0.00    -0.036 A 
ATOM     92  N   UNL A   1      42.315  30.848  29.342  1.00  0.00    -0.354 N 
ATOM     93  N   UNL A   1      44.666  29.732  27.984  1.00  0.00    -0.248 NA
ATOM     94  C   UNL A   1      46.879  29.928  27.267  1.00  0.00    -0.034 C 
ATOM     95  C   UNL A   1      42.513  32.829  30.330  1.00  0.00    -0.036 A 
ATOM     96  H   UNL A   1      40.481  32.838  31.092  1.00  0.00     0.065 H 
ATOM     97  C   UNL A   1      43.205  31.880  29.595  1.00  0.00     0.049 A 
ATOM     98  H   UNL A   1      42.525  30.033  28.831  1.00  0.00     0.167 HD
ATOM     99  C   UNL A   1      45.186  30.937  28.437  1.00  0.00     0.074 A 
ATOM    100  C   UNL A   1      46.563  30.991  27.991  1.00  0.00    -0.034 C 
ATOM    101  H   UNL A   1      47.765  29.707  26.785  1.00  0.00     0.065 H 
ATOM    102  H   UNL A   1      42.891  33.731  30.659  1.00  0.00     0.065 H 
ATOM    103  C   UNL A   1      44.577  31.911  29.155  1.00  0.00     0.037 A 
ATOM    104  H   UNL A   1      47.215  31.761  28.210  1.00  0.00     0.065 H 
BRANCH  85 105
ATOM    105  C   UNL A   1      38.653  30.752  30.471  1.00  0.00     0.064 A 
ATOM    106  C   UNL A   1      38.426  30.614  31.850  1.00  0.00     0.173 A 
ATOM    107  C   UNL A   1      37.661  31.379  29.704  1.00  0.00     0.173 A 
ATOM    108  F   UNL A   1      39.340  30.011  32.626  1.00  0.00    -0.203 F 
ATOM    109  C   UNL A   1      37.242  31.060  32.430  1.00  0.00     0.198 A 
ATOM    110  C   UNL A   1      36.489  31.850  30.292  1.00  0.00     0.198 A 
ATOM    111  F   UNL A   1      37.829  31.542  28.383  1.00  0.00    -0.203 F 
ATOM    112  F   UNL A   1      37.028  30.875  33.739  1.00  0.00    -0.200 F 
ATOM    113  C   UNL A   1      36.278  31.683  31.653  1.00  0.00     0.200 A 
ATOM    114  F   UNL A   1      35.564  32.462  29.541  1.00  0.00    -0.200 F 
ATOM    115  F   UNL A   1      35.141  32.118  32.213  1.00  0.00    -0.200 F 
ENDBRANCH  85 105
BRANCH  88 116
ATOM    116  C   UNL A   1      46.874  27.303  25.972  1.00  0.00     0.064 A 
ATOM    117  C   UNL A   1      47.851  26.593  26.683  1.00  0.00     0.173 A 
ATOM    118  C   UNL A   1      47.097  27.533  24.607  1.00  0.00     0.173 A 
ATOM    119  F   UNL A   1      47.691  26.368  27.996  1.00  0.00    -0.203 F 
ATOM    120  C   UNL A   1      49.014  26.148  26.060  1.00  0.00     0.198 A 
ATOM    121  C   UNL A   1      48.249  27.065  23.979  1.00  0.00     0.198 A 
ATOM    122  F   UNL A   1      46.192  28.205  23.882  1.00  0.00    -0.203 F 
ATOM    123  F   UNL A   1      49.952  25.511  26.774  1.00  0.00    -0.200 F 
ATOM    124  C   UNL A   1      49.211  26.380  24.707  1.00  0.00     0.200 A 
ATOM    125  F   UNL A   1      48.429  27.280  22.669  1.00  0.00    -0.200 F 
ATOM    126  F   UNL A   1      50.328  25.951  24.108  1.00  0.00    -0.200 F 
ENDBRANCH  88 116
BRANCH 103 127
ATOM    127  C   UNL A   1      45.406  33.100  29.540  1.00  0.00     0.064 A 
ATOM    128  C   UNL A   1      46.171  33.114  30.715  1.00  0.00     0.173 A 
ATOM    129  C   UNL A   1      45.463  34.225  28.703  1.00  0.00     0.173 A 
ATOM    130  F   UNL A   1      46.136  32.068  31.555  1.00  0.00    -0.203 F 
ATOM    131  C   UNL A   1      46.947  34.220  31.050  1.00  0.00     0.198 A 
ATOM    132  C   UNL A   1      46.261  35.318  29.028  1.00  0.00     0.198 A 
ATOM    133  F   UNL A   1      44.754  34.258  27.566  1.00  0.00    -0.203 F 
ATOM    134  F   UNL A   1      47.636  34.230  32.200  1.00  0.00    -0.200 F 
ATOM    135  C   UNL A   1      46.997  35.318  30.203  1.00  0.00     0.200 A 
ATOM    136  F   UNL A   1      46.317  36.373  28.203  1.00  0.00    -0.200 F 
ATOM    137  F   UNL A   1      47.749  36.380  30.525  1.00  0.00    -0.200 F 
ENDBRANCH 103 127
ENDBRANCH  68  71
ENDBRANCH  58  61
ENDBRANCH  54  57
ENDBRANCH  51  54
ENDBRANCH  48  51
ENDBRANCH   1  48
TORSDOF 17
ENDMDL
MODEL 6
REMARK VINA RESULT:     -12.1      3.945      7.555
REMARK SMILES Cc1cc2cc(-c3ccc([C@@H](C)C(=O)NCCCCCCNC(=O)c4ccc(-c5c6nc(c(-c7c(F)c(F)c(F)c(F)c7F)c7ccc([nH]7)c(-c7c(F)c(F)c(F)c(F)c7F)c7nc(c(-c8c(F)c(F)c(F)c(F)c8F)c8ccc5[nH]8)C=C7)C=C6)cc4)cc3)ccc2[nH]1
REMARK SMILES IDX 18 1 17 4 16 7 15 10 13 11 14 12 11 14 10 16 7 17 8 18 89 19
REMARK SMILES IDX 9 20 88 22 6 26 2 27 3 28 93 29 4 30 92 32 5 34 91 35 90 37
REMARK SMILES IDX 1 40 12 44 19 48 20 51 21 54 22 57 23 58 24 60 25 61 26 62
REMARK SMILES IDX 87 63 27 64 86 66 28 68 29 71 30 72 80 73 31 74 85 75 79 76
REMARK SMILES IDX 81 77 32 78 84 79 78 81 77 83 33 85 65 88 45 89 64 90 46 91
REMARK SMILES IDX 49 92 63 93 82 94 47 95 48 97 62 99 83 100 50 103 34 105
REMARK SMILES IDX 35 106 43 107 36 108 37 109 41 110 44 111 38 112 39 113
REMARK SMILES IDX 42 114 40 115 66 116 67 117 75 118 68 119 69 120 73 121
REMARK SMILES IDX 76 122 70 123 71 124 74 125 72 126 51 127 52 128 60 129
REMARK SMILES IDX 53 130 54 131 58 132 61 133 55 134 56 135 59 136 57 137
REMARK H PARENT 18 2 18 3 17 5 17 6 16 8 16 9 15 13 11 15 8 21 89 23 9 24
REMARK H PARENT 88 25 3 31 93 33 5 36 91 38 90 39 1 41 1 42 1 43 12 45 12 46
REMARK H PARENT 12 47 19 49 19 50 20 52 20 53 21 55 21 56 22 59 26 65 87 67
REMARK H PARENT 27 69 86 70 85 80 79 82 81 84 84 86 78 87 46 96 49 98 82 101
REMARK H PARENT 47 102 83 104
REMARK Flexibility Score: inf
ROOT
ATOM      1  C   UNL A   1      33.280  24.779  26.080  1.00  0.00    -0.052 C 
ATOM      2  H   UNL A   1      32.360  24.796  25.532  1.00  0.00     0.027 H 
ATOM      3  H   UNL A   1      33.146  24.796  27.140  1.00  0.00     0.027 H 
ENDROOT
BRANCH   1   4
ATOM      4  C   UNL A   1      34.063  26.049  25.730  1.00  0.00    -0.036 C 
ATOM      5  H   UNL A   1      34.559  26.393  26.614  1.00  0.00     0.028 H 
ATOM      6  H   UNL A   1      34.747  25.787  24.951  1.00  0.00     0.028 H 
BRANCH   4   7
ATOM      7  C   UNL A   1      33.193  27.187  25.192  1.00  0.00     0.017 C 
ATOM      8  H   UNL A   1      32.206  26.813  25.013  1.00  0.00     0.049 H 
ATOM      9  H   UNL A   1      33.182  27.970  25.921  1.00  0.00     0.049 H 
BRANCH   7  10
ATOM     10  N   UNL A   1      33.718  27.731  23.956  1.00  0.00    -0.356 N 
ATOM     11  C   UNL A   1      33.316  27.596  22.664  1.00  0.00     0.227 C 
ATOM     12  O   UNL A   1      34.035  28.128  21.808  1.00  0.00    -0.274 OA
ATOM     13  H   UNL A   1      34.511  28.303  24.074  1.00  0.00     0.163 HD
BRANCH  11  14
ATOM     14  C   UNL A   1      32.042  26.851  22.236  1.00  0.00     0.060 C 
ATOM     15  H   UNL A   1      31.998  26.940  21.170  1.00  0.00     0.045 H 
BRANCH  14  16
ATOM     16  C   UNL A   1      32.114  25.348  22.456  1.00  0.00    -0.036 A 
ATOM     17  C   UNL A   1      32.130  22.512  22.808  1.00  0.00    -0.018 A 
ATOM     18  C   UNL A   1      33.191  23.188  22.185  1.00  0.00    -0.054 A 
ATOM     19  C   UNL A   1      31.060  23.294  23.266  1.00  0.00    -0.054 A 
ATOM     20  C   UNL A   1      33.200  24.578  22.045  1.00  0.00    -0.058 A 
ATOM     21  H   UNL A   1      33.987  22.643  21.820  1.00  0.00     0.063 H 
ATOM     22  C   UNL A   1      31.043  24.684  23.077  1.00  0.00    -0.058 A 
ATOM     23  H   UNL A   1      30.271  22.838  23.750  1.00  0.00     0.063 H 
ATOM     24  H   UNL A   1      34.024  25.041  21.631  1.00  0.00     0.063 H 
ATOM     25  H   UNL A   1      30.229  25.229  23.401  1.00  0.00     0.063 H 
BRANCH  17  26
ATOM     26  C   UNL A   1      32.172  21.040  22.961  1.00  0.00    -0.018 A 
ATOM     27  C   UNL A   1      32.805  16.938  25.063  1.00  0.00     0.013 A 
ATOM     28  C   UNL A   1      32.756  18.240  25.514  1.00  0.00    -0.034 A 
ATOM     29  N   UNL A   1      32.576  16.965  23.708  1.00  0.00    -0.359 N 
ATOM     30  C   UNL A   1      32.505  19.078  24.397  1.00  0.00     0.000 A 
ATOM     31  H   UNL A   1      32.878  18.550  26.491  1.00  0.00     0.065 H 
ATOM     32  C   UNL A   1      32.404  18.261  23.276  1.00  0.00     0.046 A 
ATOM     33  H   UNL A   1      32.540  16.171  23.128  1.00  0.00     0.166 HD
ATOM     34  C   UNL A   1      32.366  20.468  24.236  1.00  0.00    -0.045 A 
ATOM     35  C   UNL A   1      32.170  18.775  21.996  1.00  0.00    -0.037 A 
ATOM     36  H   UNL A   1      32.406  21.081  25.066  1.00  0.00     0.064 H 
ATOM     37  C   UNL A   1      32.067  20.170  21.863  1.00  0.00    -0.052 A 
ATOM     38  H   UNL A   1      32.075  18.151  21.179  1.00  0.00     0.065 H 
ATOM     39  H   UNL A   1      31.909  20.570  20.925  1.00  0.00     0.063 H 
BRANCH  27  40
ATOM     40  C   UNL A   1      33.046  15.674  25.799  1.00  0.00    -0.024 C 
ATOM     41  H   UNL A   1      32.361  14.926  25.456  1.00  0.00     0.029 H 
ATOM     42  H   UNL A   1      32.899  15.838  26.846  1.00  0.00     0.029 H 
ATOM     43  H   UNL A   1      34.048  15.346  25.626  1.00  0.00     0.029 H 
ENDBRANCH  27  40
ENDBRANCH  17  26
ENDBRANCH  14  16
BRANCH  14  44
ATOM     44  C   UNL A   1      30.746  27.531  22.683  1.00  0.00    -0.049 C 
ATOM     45  H   UNL A   1      30.220  27.894  21.826  1.00  0.00     0.024 H 
ATOM     46  H   UNL A   1      30.978  28.348  23.334  1.00  0.00     0.024 H 
ATOM     47  H   UNL A   1      30.135  26.823  23.204  1.00  0.00     0.024 H 
ENDBRANCH  14  44
ENDBRANCH  11  14
ENDBRANCH   7  10
ENDBRANCH   4   7
ENDBRANCH   1   4
BRANCH   1  48
ATOM     48  C   UNL A   1      33.996  23.460  25.762  1.00  0.00    -0.052 C 
ATOM     49  H   UNL A   1      34.200  23.441  24.712  1.00  0.00     0.027 H 
ATOM     50  H   UNL A   1      33.338  22.683  26.090  1.00  0.00     0.027 H 
BRANCH  48  51
ATOM     51  C   UNL A   1      35.318  23.229  26.502  1.00  0.00    -0.036 C 
ATOM     52  H   UNL A   1      35.371  22.194  26.772  1.00  0.00     0.028 H 
ATOM     53  H   UNL A   1      35.307  23.886  27.347  1.00  0.00     0.028 H 
BRANCH  51  54
ATOM     54  C   UNL A   1      36.572  23.576  25.704  1.00  0.00     0.018 C 
ATOM     55  H   UNL A   1      36.907  24.550  25.994  1.00  0.00     0.049 H 
ATOM     56  H   UNL A   1      36.320  23.547  24.665  1.00  0.00     0.049 H 
BRANCH  54  57
ATOM     57  N   UNL A   1      37.644  22.622  25.934  1.00  0.00    -0.352 N 
ATOM     58  C   UNL A   1      38.932  22.831  26.358  1.00  0.00     0.251 C 
ATOM     59  H   UNL A   1      37.411  21.681  25.759  1.00  0.00     0.163 HD
ATOM     60  O   UNL A   1      39.758  21.926  26.286  1.00  0.00    -0.269 OA
BRANCH  58  61
ATOM     61  C   UNL A   1      39.338  24.147  26.896  1.00  0.00     0.039 A 
ATOM     62  C   UNL A   1      39.005  24.470  28.215  1.00  0.00    -0.049 A 
ATOM     63  C   UNL A   1      40.003  25.078  26.094  1.00  0.00    -0.049 A 
ATOM     64  C   UNL A   1      39.384  25.706  28.745  1.00  0.00    -0.053 A 
ATOM     65  H   UNL A   1      38.480  23.796  28.795  1.00  0.00     0.063 H 
ATOM     66  C   UNL A   1      40.435  26.285  26.641  1.00  0.00    -0.053 A 
ATOM     67  H   UNL A   1      40.174  24.873  25.097  1.00  0.00     0.063 H 
ATOM     68  C   UNL A   1      40.125  26.612  27.970  1.00  0.00    -0.014 A 
ATOM     69  H   UNL A   1      39.118  25.953  29.711  1.00  0.00     0.063 H 
ATOM     70  H   UNL A   1      40.987  26.941  26.067  1.00  0.00     0.063 H 
BRANCH  68  71
ATOM     71  C   UNL A   1      40.572  27.913  28.527  1.00  0.00     0.031 A 
ATOM     72  C   UNL A   1      42.016  28.123  28.887  1.00  0.00     0.074 A 
ATOM     73  C   UNL A   1      39.669  28.883  28.764  1.00  0.00     0.049 A 
ATOM     74  N   UNL A   1      42.588  29.155  29.456  1.00  0.00    -0.248 NA
ATOM     75  C   UNL A   1      42.938  27.016  28.589  1.00  0.00    -0.034 C 
ATOM     76  C   UNL A   1      38.235  28.787  28.491  1.00  0.00    -0.036 A 
ATOM     77  N   UNL A   1      39.823  30.137  29.299  1.00  0.00    -0.354 N 
ATOM     78  C   UNL A   1      43.926  28.815  29.596  1.00  0.00     0.074 A 
ATOM     79  C   UNL A   1      44.076  27.465  29.098  1.00  0.00    -0.034 C 
ATOM     80  H   UNL A   1      42.747  26.122  28.108  1.00  0.00     0.065 H 
ATOM     81  C   UNL A   1      37.642  29.940  28.844  1.00  0.00    -0.036 A 
ATOM     82  H   UNL A   1      37.755  27.965  28.092  1.00  0.00     0.065 H 
ATOM     83  C   UNL A   1      38.647  30.841  29.399  1.00  0.00     0.049 A 
ATOM     84  H   UNL A   1      40.693  30.499  29.585  1.00  0.00     0.167 HD
ATOM     85  C   UNL A   1      44.945  29.569  30.076  1.00  0.00     0.037 A 
ATOM     86  H   UNL A   1      44.952  26.922  29.134  1.00  0.00     0.065 H 
ATOM     87  H   UNL A   1      36.637  30.153  28.740  1.00  0.00     0.065 H 
ATOM     88  C   UNL A   1      38.408  32.071  29.891  1.00  0.00     0.037 A 
ATOM     89  C   UNL A   1      44.799  30.921  30.549  1.00  0.00     0.049 A 
ATOM     90  C   UNL A   1      39.555  32.885  30.425  1.00  0.00     0.074 A 
ATOM     91  C   UNL A   1      45.776  31.785  31.012  1.00  0.00    -0.036 A 
ATOM     92  N   UNL A   1      43.594  31.606  30.618  1.00  0.00    -0.354 N 
ATOM     93  N   UNL A   1      40.826  32.574  30.503  1.00  0.00    -0.248 NA
ATOM     94  C   UNL A   1      39.233  34.226  30.937  1.00  0.00    -0.034 C 
ATOM     95  C   UNL A   1      45.158  32.981  31.394  1.00  0.00    -0.036 A 
ATOM     96  H   UNL A   1      46.786  31.583  31.065  1.00  0.00     0.065 H 
ATOM     97  C   UNL A   1      43.802  32.877  31.129  1.00  0.00     0.049 A 
ATOM     98  H   UNL A   1      42.721  31.243  30.343  1.00  0.00     0.167 HD
ATOM     99  C   UNL A   1      41.459  33.686  31.040  1.00  0.00     0.074 A 
ATOM    100  C   UNL A   1      40.433  34.685  31.260  1.00  0.00    -0.034 C 
ATOM    101  H   UNL A   1      38.314  34.687  31.021  1.00  0.00     0.065 H 
ATOM    102  H   UNL A   1      45.632  33.801  31.804  1.00  0.00     0.065 H 
ATOM    103  C   UNL A   1      42.771  33.864  31.328  1.00  0.00     0.037 A 
ATOM    104  H   UNL A   1      40.614  35.634  31.623  1.00  0.00     0.065 H 
BRANCH  85 105
ATOM    105  C   UNL A   1      46.311  28.950  30.107  1.00  0.00     0.064 A 
ATOM    106  C   UNL A   1      47.185  29.048  29.013  1.00  0.00     0.173 A 
ATOM    107  C   UNL A   1      46.767  28.281  31.252  1.00  0.00     0.173 A 
ATOM    108  F   UNL A   1      46.793  29.668  27.890  1.00  0.00    -0.203 F 
ATOM    109  C   UNL A   1      48.454  28.475  29.054  1.00  0.00     0.198 A 
ATOM    110  C   UNL A   1      48.047  27.732  31.301  1.00  0.00     0.198 A 
ATOM    111  F   UNL A   1      45.974  28.164  32.328  1.00  0.00    -0.203 F 
ATOM    112  F   UNL A   1      49.252  28.540  27.981  1.00  0.00    -0.200 F 
ATOM    113  C   UNL A   1      48.886  27.824  30.200  1.00  0.00     0.200 A 
ATOM    114  F   UNL A   1      48.467  27.114  32.413  1.00  0.00    -0.200 F 
ATOM    115  F   UNL A   1      50.108  27.277  30.241  1.00  0.00    -0.200 F 
ENDBRANCH  85 105
BRANCH  88 116
ATOM    116  C   UNL A   1      37.028  32.622  29.876  1.00  0.00     0.064 A 
ATOM    117  C   UNL A   1      36.558  33.348  28.773  1.00  0.00     0.173 A 
ATOM    118  C   UNL A   1      36.156  32.442  30.959  1.00  0.00     0.173 A 
ATOM    119  F   UNL A   1      37.363  33.564  27.722  1.00  0.00    -0.203 F 
ATOM    120  C   UNL A   1      35.276  33.892  28.762  1.00  0.00     0.198 A 
ATOM    121  C   UNL A   1      34.865  32.964  30.937  1.00  0.00     0.198 A 
ATOM    122  F   UNL A   1      36.557  31.752  32.036  1.00  0.00    -0.203 F 
ATOM    123  F   UNL A   1      34.868  34.620  27.714  1.00  0.00    -0.200 F 
ATOM    124  C   UNL A   1      34.428  33.695  29.841  1.00  0.00     0.200 A 
ATOM    125  F   UNL A   1      34.044  32.761  31.976  1.00  0.00    -0.200 F 
ATOM    126  F   UNL A   1      33.194  34.216  29.830  1.00  0.00    -0.200 F 
ENDBRANCH  88 116
BRANCH 103 127
ATOM    127  C   UNL A   1      43.181  35.201  31.872  1.00  0.00     0.064 A 
ATOM    128  C   UNL A   1      43.106  35.490  33.242  1.00  0.00     0.173 A 
ATOM    129  C   UNL A   1      43.689  36.189  31.016  1.00  0.00     0.173 A 
ATOM    130  F   UNL A   1      42.611  34.583  34.098  1.00  0.00    -0.203 F 
ATOM    131  C   UNL A   1      43.503  36.731  33.732  1.00  0.00     0.198 A 
ATOM    132  C   UNL A   1      44.111  37.418  31.514  1.00  0.00     0.198 A 
ATOM    133  F   UNL A   1      43.786  35.958  29.699  1.00  0.00    -0.203 F 
ATOM    134  F   UNL A   1      43.382  37.003  35.039  1.00  0.00    -0.200 F 
ATOM    135  C   UNL A   1      44.012  37.690  32.870  1.00  0.00     0.200 A 
ATOM    136  F   UNL A   1      44.613  38.340  30.680  1.00  0.00    -0.200 F 
ATOM    137  F   UNL A   1      44.400  38.883  33.345  1.00  0.00    -0.200 F 
ENDBRANCH 103 127
ENDBRANCH  68  71
ENDBRANCH  58  61
ENDBRANCH  54  57
ENDBRANCH  51  54
ENDBRANCH  48  51
ENDBRANCH   1  48
TORSDOF 17
ENDMDL
MODEL 7
REMARK VINA RESULT:     -12.0      2.783      9.152
REMARK SMILES Cc1cc2cc(-c3ccc([C@@H](C)C(=O)NCCCCCCNC(=O)c4ccc(-c5c6nc(c(-c7c(F)c(F)c(F)c(F)c7F)c7ccc([nH]7)c(-c7c(F)c(F)c(F)c(F)c7F)c7nc(c(-c8c(F)c(F)c(F)c(F)c8F)c8ccc5[nH]8)C=C7)C=C6)cc4)cc3)ccc2[nH]1
REMARK SMILES IDX 18 1 17 4 16 7 15 10 13 11 14 12 11 14 10 16 7 17 8 18 89 19
REMARK SMILES IDX 9 20 88 22 6 26 2 27 3 28 93 29 4 30 92 32 5 34 91 35 90 37
REMARK SMILES IDX 1 40 12 44 19 48 20 51 21 54 22 57 23 58 24 60 25 61 26 62
REMARK SMILES IDX 87 63 27 64 86 66 28 68 29 71 30 72 80 73 31 74 85 75 79 76
REMARK SMILES IDX 81 77 32 78 84 79 78 81 77 83 33 85 65 88 45 89 64 90 46 91
REMARK SMILES IDX 49 92 63 93 82 94 47 95 48 97 62 99 83 100 50 103 34 105
REMARK SMILES IDX 35 106 43 107 36 108 37 109 41 110 44 111 38 112 39 113
REMARK SMILES IDX 42 114 40 115 66 116 67 117 75 118 68 119 69 120 73 121
REMARK SMILES IDX 76 122 70 123 71 124 74 125 72 126 51 127 52 128 60 129
REMARK SMILES IDX 53 130 54 131 58 132 61 133 55 134 56 135 59 136 57 137
REMARK H PARENT 18 2 18 3 17 5 17 6 16 8 16 9 15 13 11 15 8 21 89 23 9 24
REMARK H PARENT 88 25 3 31 93 33 5 36 91 38 90 39 1 41 1 42 1 43 12 45 12 46
REMARK H PARENT 12 47 19 49 19 50 20 52 20 53 21 55 21 56 22 59 26 65 87 67
REMARK H PARENT 27 69 86 70 85 80 79 82 81 84 84 86 78 87 46 96 49 98 82 101
REMARK H PARENT 47 102 83 104
REMARK Flexibility Score: inf
ROOT
ATOM      1  C   UNL A   1      34.338  32.258  29.073  1.00  0.00    -0.052 C 
ATOM      2  H   UNL A   1      34.929  32.078  29.947  1.00  0.00     0.027 H 
ATOM      3  H   UNL A   1      33.295  32.067  29.215  1.00  0.00     0.027 H 
ENDROOT
BRANCH   1   4
ATOM      4  C   UNL A   1      34.802  31.289  27.980  1.00  0.00    -0.036 C 
ATOM      5  H   UNL A   1      35.525  31.791  27.369  1.00  0.00     0.028 H 
ATOM      6  H   UNL A   1      35.207  30.432  28.476  1.00  0.00     0.028 H 
BRANCH   4   7
ATOM      7  C   UNL A   1      33.674  30.786  27.075  1.00  0.00     0.017 C 
ATOM      8  H   UNL A   1      33.049  31.614  26.810  1.00  0.00     0.049 H 
ATOM      9  H   UNL A   1      34.116  30.344  26.207  1.00  0.00     0.049 H 
BRANCH   7  10
ATOM     10  N   UNL A   1      32.865  29.779  27.729  1.00  0.00    -0.356 N 
ATOM     11  C   UNL A   1      32.216  28.684  27.248  1.00  0.00     0.227 C 
ATOM     12  O   UNL A   1      31.527  28.054  28.061  1.00  0.00    -0.274 OA
ATOM     13  H   UNL A   1      32.766  29.912  28.700  1.00  0.00     0.163 HD
BRANCH  11  14
ATOM     14  C   UNL A   1      32.313  28.202  25.793  1.00  0.00     0.060 C 
ATOM     15  H   UNL A   1      33.125  28.750  25.360  1.00  0.00     0.045 H 
BRANCH  14  16
ATOM     16  C   UNL A   1      32.761  26.755  25.661  1.00  0.00    -0.036 A 
ATOM     17  C   UNL A   1      33.529  24.026  25.299  1.00  0.00    -0.018 A 
ATOM     18  C   UNL A   1      34.478  25.050  25.452  1.00  0.00    -0.054 A 
ATOM     19  C   UNL A   1      32.179  24.399  25.345  1.00  0.00    -0.054 A 
ATOM     20  C   UNL A   1      34.103  26.379  25.665  1.00  0.00    -0.058 A 
ATOM     21  H   UNL A   1      35.482  24.815  25.406  1.00  0.00     0.063 H 
ATOM     22  C   UNL A   1      31.801  25.741  25.504  1.00  0.00    -0.058 A 
ATOM     23  H   UNL A   1      31.450  23.675  25.259  1.00  0.00     0.063 H 
ATOM     24  H   UNL A   1      34.830  27.092  25.827  1.00  0.00     0.063 H 
ATOM     25  H   UNL A   1      30.799  25.988  25.506  1.00  0.00     0.063 H 
BRANCH  17  26
ATOM     26  C   UNL A   1      33.969  22.626  25.102  1.00  0.00    -0.018 A 
ATOM     27  C   UNL A   1      33.616  18.090  24.131  1.00  0.00     0.013 A 
ATOM     28  C   UNL A   1      32.760  19.162  23.991  1.00  0.00    -0.034 A 
ATOM     29  N   UNL A   1      34.798  18.574  24.638  1.00  0.00    -0.359 N 
ATOM     30  C   UNL A   1      33.440  20.323  24.442  1.00  0.00     0.000 A 
ATOM     31  H   UNL A   1      31.796  19.127  23.624  1.00  0.00     0.065 H 
ATOM     32  C   UNL A   1      34.711  19.932  24.848  1.00  0.00     0.046 A 
ATOM     33  H   UNL A   1      35.596  18.028  24.823  1.00  0.00     0.166 HD
ATOM     34  C   UNL A   1      33.082  21.679  24.550  1.00  0.00    -0.045 A 
ATOM     35  C   UNL A   1      35.643  20.840  25.363  1.00  0.00    -0.037 A 
ATOM     36  H   UNL A   1      32.153  21.986  24.220  1.00  0.00     0.064 H 
ATOM     37  C   UNL A   1      35.245  22.181  25.489  1.00  0.00    -0.052 A 
ATOM     38  H   UNL A   1      36.589  20.534  25.639  1.00  0.00     0.065 H 
ATOM     39  H   UNL A   1      35.912  22.863  25.880  1.00  0.00     0.063 H 
BRANCH  27  40
ATOM     40  C   UNL A   1      33.416  16.654  23.824  1.00  0.00    -0.024 C 
ATOM     41  H   UNL A   1      32.763  16.221  24.553  1.00  0.00     0.029 H 
ATOM     42  H   UNL A   1      34.360  16.150  23.848  1.00  0.00     0.029 H 
ATOM     43  H   UNL A   1      32.983  16.553  22.852  1.00  0.00     0.029 H 
ENDBRANCH  27  40
ENDBRANCH  17  26
ENDBRANCH  14  16
BRANCH  14  44
ATOM     44  C   UNL A   1      31.126  28.616  24.922  1.00  0.00    -0.049 C 
ATOM     45  H   UNL A   1      31.206  29.656  24.680  1.00  0.00     0.024 H 
ATOM     46  H   UNL A   1      30.215  28.443  25.455  1.00  0.00     0.024 H 
ATOM     47  H   UNL A   1      31.127  28.039  24.020  1.00  0.00     0.024 H 
ENDBRANCH  14  44
ENDBRANCH  11  14
ENDBRANCH   7  10
ENDBRANCH   4   7
ENDBRANCH   1   4
BRANCH   1  48
ATOM     48  C   UNL A   1      34.454  33.746  28.720  1.00  0.00    -0.052 C 
ATOM     49  H   UNL A   1      34.788  33.819  27.707  1.00  0.00     0.027 H 
ATOM     50  H   UNL A   1      35.136  34.163  29.432  1.00  0.00     0.027 H 
BRANCH  48  51
ATOM     51  C   UNL A   1      33.164  34.561  28.851  1.00  0.00    -0.036 C 
ATOM     52  H   UNL A   1      32.509  34.042  29.520  1.00  0.00     0.028 H 
ATOM     53  H   UNL A   1      32.768  34.658  27.861  1.00  0.00     0.028 H 
BRANCH  51  54
ATOM     54  C   UNL A   1      33.350  35.982  29.379  1.00  0.00     0.018 C 
ATOM     55  H   UNL A   1      33.077  36.674  28.610  1.00  0.00     0.049 H 
ATOM     56  H   UNL A   1      34.377  36.098  29.658  1.00  0.00     0.049 H 
BRANCH  54  57
ATOM     57  N   UNL A   1      32.534  36.237  30.554  1.00  0.00    -0.352 N 
ATOM     58  C   UNL A   1      32.646  35.742  31.829  1.00  0.00     0.251 C 
ATOM     59  H   UNL A   1      31.785  36.862  30.414  1.00  0.00     0.163 HD
ATOM     60  O   UNL A   1      31.734  35.904  32.633  1.00  0.00    -0.269 OA
BRANCH  58  61
ATOM     61  C   UNL A   1      33.859  35.003  32.239  1.00  0.00     0.039 A 
ATOM     62  C   UNL A   1      33.725  33.693  32.708  1.00  0.00    -0.049 A 
ATOM     63  C   UNL A   1      35.118  35.610  32.205  1.00  0.00    -0.049 A 
ATOM     64  C   UNL A   1      34.859  32.974  33.095  1.00  0.00    -0.053 A 
ATOM     65  H   UNL A   1      32.791  33.258  32.769  1.00  0.00     0.063 H 
ATOM     66  C   UNL A   1      36.254  34.872  32.532  1.00  0.00    -0.053 A 
ATOM     67  H   UNL A   1      35.205  36.603  31.939  1.00  0.00     0.063 H 
ATOM     68  C   UNL A   1      36.135  33.550  32.985  1.00  0.00    -0.014 A 
ATOM     69  H   UNL A   1      34.758  32.015  33.463  1.00  0.00     0.063 H 
ATOM     70  H   UNL A   1      37.188  35.301  32.439  1.00  0.00     0.063 H 
BRANCH  68  71
ATOM     71  C   UNL A   1      37.356  32.789  33.353  1.00  0.00     0.031 A 
ATOM     72  C   UNL A   1      38.071  33.089  34.640  1.00  0.00     0.074 A 
ATOM     73  C   UNL A   1      37.853  31.873  32.501  1.00  0.00     0.049 A 
ATOM     74  N   UNL A   1      39.192  32.592  35.101  1.00  0.00    -0.248 NA
ATOM     75  C   UNL A   1      37.457  34.098  35.516  1.00  0.00    -0.034 C 
ATOM     76  C   UNL A   1      37.270  31.519  31.207  1.00  0.00    -0.036 A 
ATOM     77  N   UNL A   1      38.969  31.080  32.591  1.00  0.00    -0.354 N 
ATOM     78  C   UNL A   1      39.423  33.237  36.308  1.00  0.00     0.074 A 
ATOM     79  C   UNL A   1      38.354  34.196  36.488  1.00  0.00    -0.034 C 
ATOM     80  H   UNL A   1      36.562  34.600  35.404  1.00  0.00     0.065 H 
ATOM     81  C   UNL A   1      38.022  30.567  30.631  1.00  0.00    -0.036 A 
ATOM     82  H   UNL A   1      36.417  31.935  30.800  1.00  0.00     0.065 H 
ATOM     83  C   UNL A   1      39.158  30.269  31.499  1.00  0.00     0.049 A 
ATOM     84  H   UNL A   1      39.576  31.090  33.366  1.00  0.00     0.167 HD
ATOM     85  C   UNL A   1      40.424  33.034  37.198  1.00  0.00     0.037 A 
ATOM     86  H   UNL A   1      38.296  34.867  37.269  1.00  0.00     0.065 H 
ATOM     87  H   UNL A   1      37.829  30.118  29.722  1.00  0.00     0.065 H 
ATOM     88  C   UNL A   1      40.141  29.391  31.226  1.00  0.00     0.037 A 
ATOM     89  C   UNL A   1      41.473  32.063  37.029  1.00  0.00     0.049 A 
ATOM     90  C   UNL A   1      41.245  29.189  32.227  1.00  0.00     0.074 A 
ATOM     91  C   UNL A   1      42.507  31.748  37.894  1.00  0.00    -0.036 A 
ATOM     92  N   UNL A   1      41.620  31.248  35.917  1.00  0.00    -0.354 N 
ATOM     93  N   UNL A   1      41.424  29.767  33.391  1.00  0.00    -0.248 NA
ATOM     94  C   UNL A   1      42.284  28.208  31.879  1.00  0.00    -0.034 C 
ATOM     95  C   UNL A   1      43.301  30.767  37.290  1.00  0.00    -0.036 A 
ATOM     96  H   UNL A   1      42.665  32.164  38.825  1.00  0.00     0.065 H 
ATOM     97  C   UNL A   1      42.737  30.440  36.068  1.00  0.00     0.049 A 
ATOM     98  H   UNL A   1      41.021  31.242  35.136  1.00  0.00     0.167 HD
ATOM     99  C   UNL A   1      42.572  29.199  33.926  1.00  0.00     0.074 A 
ATOM    100  C   UNL A   1      43.043  28.223  32.965  1.00  0.00    -0.034 C 
ATOM    101  H   UNL A   1      42.392  27.653  31.016  1.00  0.00     0.065 H 
ATOM    102  H   UNL A   1      44.160  30.357  37.688  1.00  0.00     0.065 H 
ATOM    103  C   UNL A   1      43.183  29.464  35.106  1.00  0.00     0.037 A 
ATOM    104  H   UNL A   1      43.866  27.617  33.107  1.00  0.00     0.065 H 
BRANCH  85 105
ATOM    105  C   UNL A   1      40.427  33.874  38.441  1.00  0.00     0.064 A 
ATOM    106  C   UNL A   1      41.155  35.072  38.514  1.00  0.00     0.173 A 
ATOM    107  C   UNL A   1      39.669  33.499  39.560  1.00  0.00     0.173 A 
ATOM    108  F   UNL A   1      41.905  35.470  37.475  1.00  0.00    -0.203 F 
ATOM    109  C   UNL A   1      41.147  35.848  39.671  1.00  0.00     0.198 A 
ATOM    110  C   UNL A   1      39.640  34.291  40.706  1.00  0.00     0.198 A 
ATOM    111  F   UNL A   1      38.950  32.367  39.542  1.00  0.00    -0.203 F 
ATOM    112  F   UNL A   1      41.887  36.962  39.733  1.00  0.00    -0.200 F 
ATOM    113  C   UNL A   1      40.385  35.460  40.763  1.00  0.00     0.200 A 
ATOM    114  F   UNL A   1      38.893  33.922  41.755  1.00  0.00    -0.200 F 
ATOM    115  F   UNL A   1      40.373  36.210  41.873  1.00  0.00    -0.200 F 
ENDBRANCH  85 105
BRANCH  88 116
ATOM    116  C   UNL A   1      40.113  28.614  29.960  1.00  0.00     0.064 A 
ATOM    117  C   UNL A   1      39.485  27.362  29.901  1.00  0.00     0.173 A 
ATOM    118  C   UNL A   1      40.716  29.098  28.790  1.00  0.00     0.173 A 
ATOM    119  F   UNL A   1      38.914  26.848  31.000  1.00  0.00    -0.203 F 
ATOM    120  C   UNL A   1      39.478  26.615  28.726  1.00  0.00     0.198 A 
ATOM    121  C   UNL A   1      40.685  28.361  27.608  1.00  0.00     0.198 A 
ATOM    122  F   UNL A   1      41.327  30.291  28.793  1.00  0.00    -0.203 F 
ATOM    123  F   UNL A   1      38.909  25.401  28.710  1.00  0.00    -0.200 F 
ATOM    124  C   UNL A   1      40.073  27.116  27.578  1.00  0.00     0.200 A 
ATOM    125  F   UNL A   1      41.251  28.855  26.498  1.00  0.00    -0.200 F 
ATOM    126  F   UNL A   1      40.065  26.399  26.448  1.00  0.00    -0.200 F 
ENDBRANCH  88 116
BRANCH 103 127
ATOM    127  C   UNL A   1      44.403  28.659  35.444  1.00  0.00     0.064 A 
ATOM    128  C   UNL A   1      44.314  27.448  36.145  1.00  0.00     0.173 A 
ATOM    129  C   UNL A   1      45.672  29.088  35.029  1.00  0.00     0.173 A 
ATOM    130  F   UNL A   1      43.124  27.005  36.578  1.00  0.00    -0.203 F 
ATOM    131  C   UNL A   1      45.455  26.706  36.438  1.00  0.00     0.198 A 
ATOM    132  C   UNL A   1      46.808  28.330  35.299  1.00  0.00     0.198 A 
ATOM    133  F   UNL A   1      45.810  30.237  34.350  1.00  0.00    -0.203 F 
ATOM    134  F   UNL A   1      45.352  25.574  37.147  1.00  0.00    -0.200 F 
ATOM    135  C   UNL A   1      46.699  27.144  36.009  1.00  0.00     0.200 A 
ATOM    136  F   UNL A   1      48.008  28.749  34.874  1.00  0.00    -0.200 F 
ATOM    137  F   UNL A   1      47.796  26.425  36.287  1.00  0.00    -0.200 F 
ENDBRANCH 103 127
ENDBRANCH  68  71
ENDBRANCH  58  61
ENDBRANCH  54  57
ENDBRANCH  51  54
ENDBRANCH  48  51
ENDBRANCH   1  48
TORSDOF 17
ENDMDL
MODEL 8
REMARK VINA RESULT:     -12.0      2.784      9.008
REMARK SMILES Cc1cc2cc(-c3ccc([C@@H](C)C(=O)NCCCCCCNC(=O)c4ccc(-c5c6nc(c(-c7c(F)c(F)c(F)c(F)c7F)c7ccc([nH]7)c(-c7c(F)c(F)c(F)c(F)c7F)c7nc(c(-c8c(F)c(F)c(F)c(F)c8F)c8ccc5[nH]8)C=C7)C=C6)cc4)cc3)ccc2[nH]1
REMARK SMILES IDX 18 1 17 4 16 7 15 10 13 11 14 12 11 14 10 16 7 17 8 18 89 19
REMARK SMILES IDX 9 20 88 22 6 26 2 27 3 28 93 29 4 30 92 32 5 34 91 35 90 37
REMARK SMILES IDX 1 40 12 44 19 48 20 51 21 54 22 57 23 58 24 60 25 61 26 62
REMARK SMILES IDX 87 63 27 64 86 66 28 68 29 71 30 72 80 73 31 74 85 75 79 76
REMARK SMILES IDX 81 77 32 78 84 79 78 81 77 83 33 85 65 88 45 89 64 90 46 91
REMARK SMILES IDX 49 92 63 93 82 94 47 95 48 97 62 99 83 100 50 103 34 105
REMARK SMILES IDX 35 106 43 107 36 108 37 109 41 110 44 111 38 112 39 113
REMARK SMILES IDX 42 114 40 115 66 116 67 117 75 118 68 119 69 120 73 121
REMARK SMILES IDX 76 122 70 123 71 124 74 125 72 126 51 127 52 128 60 129
REMARK SMILES IDX 53 130 54 131 58 132 61 133 55 134 56 135 59 136 57 137
REMARK H PARENT 18 2 18 3 17 5 17 6 16 8 16 9 15 13 11 15 8 21 89 23 9 24
REMARK H PARENT 88 25 3 31 93 33 5 36 91 38 90 39 1 41 1 42 1 43 12 45 12 46
REMARK H PARENT 12 47 19 49 19 50 20 52 20 53 21 55 21 56 22 59 26 65 87 67
REMARK H PARENT 27 69 86 70 85 80 79 82 81 84 84 86 78 87 46 96 49 98 82 101
REMARK H PARENT 47 102 83 104
REMARK Flexibility Score: inf
ROOT
ATOM      1  C   UNL A   1      34.324  32.264  29.068  1.00  0.00    -0.052 C 
ATOM      2  H   UNL A   1      34.942  32.065  29.918  1.00  0.00     0.027 H 
ATOM      3  H   UNL A   1      33.283  32.094  29.246  1.00  0.00     0.027 H 
ENDROOT
BRANCH   1   4
ATOM      4  C   UNL A   1      34.726  31.295  27.952  1.00  0.00    -0.036 C 
ATOM      5  H   UNL A   1      35.440  31.785  27.321  1.00  0.00     0.028 H 
ATOM      6  H   UNL A   1      35.128  30.424  28.426  1.00  0.00     0.028 H 
BRANCH   4   7
ATOM      7  C   UNL A   1      33.557  30.826  27.083  1.00  0.00     0.017 C 
ATOM      8  H   UNL A   1      32.902  31.655  26.909  1.00  0.00     0.049 H 
ATOM      9  H   UNL A   1      33.955  30.451  26.164  1.00  0.00     0.049 H 
BRANCH   7  10
ATOM     10  N   UNL A   1      32.806  29.761  27.715  1.00  0.00    -0.356 N 
ATOM     11  C   UNL A   1      32.169  28.674  27.203  1.00  0.00     0.227 C 
ATOM     12  O   UNL A   1      31.534  27.981  28.008  1.00  0.00    -0.274 OA
ATOM     13  H   UNL A   1      32.747  29.839  28.695  1.00  0.00     0.163 HD
BRANCH  11  14
ATOM     14  C   UNL A   1      32.215  28.274  25.720  1.00  0.00     0.060 C 
ATOM     15  H   UNL A   1      33.011  28.846  25.290  1.00  0.00     0.045 H 
BRANCH  14  16
ATOM     16  C   UNL A   1      32.658  26.837  25.492  1.00  0.00    -0.036 A 
ATOM     17  C   UNL A   1      33.553  24.141  25.183  1.00  0.00    -0.018 A 
ATOM     18  C   UNL A   1      32.197  24.488  25.082  1.00  0.00    -0.054 A 
ATOM     19  C   UNL A   1      34.459  25.181  25.430  1.00  0.00    -0.054 A 
ATOM     20  C   UNL A   1      31.762  25.811  25.197  1.00  0.00    -0.058 A 
ATOM     21  H   UNL A   1      31.499  23.745  24.918  1.00  0.00     0.063 H 
ATOM     22  C   UNL A   1      34.018  26.503  25.601  1.00  0.00    -0.058 A 
ATOM     23  H   UNL A   1      35.467  24.972  25.489  1.00  0.00     0.063 H 
ATOM     24  H   UNL A   1      30.763  26.031  25.062  1.00  0.00     0.063 H 
ATOM     25  H   UNL A   1      34.707  27.243  25.809  1.00  0.00     0.063 H 
BRANCH  17  26
ATOM     26  C   UNL A   1      33.974  22.729  25.028  1.00  0.00    -0.018 A 
ATOM     27  C   UNL A   1      33.562  18.172  24.189  1.00  0.00     0.013 A 
ATOM     28  C   UNL A   1      32.720  19.250  24.019  1.00  0.00    -0.034 A 
ATOM     29  N   UNL A   1      34.751  18.655  24.681  1.00  0.00    -0.359 N 
ATOM     30  C   UNL A   1      33.415  20.416  24.435  1.00  0.00     0.000 A 
ATOM     31  H   UNL A   1      31.755  19.217  23.653  1.00  0.00     0.065 H 
ATOM     32  C   UNL A   1      34.681  20.020  24.852  1.00  0.00     0.046 A 
ATOM     33  H   UNL A   1      35.541  18.104  24.882  1.00  0.00     0.166 HD
ATOM     34  C   UNL A   1      33.075  21.778  24.504  1.00  0.00    -0.045 A 
ATOM     35  C   UNL A   1      35.625  20.930  25.339  1.00  0.00    -0.037 A 
ATOM     36  H   UNL A   1      32.149  22.087  24.165  1.00  0.00     0.064 H 
ATOM     37  C   UNL A   1      35.244  22.279  25.427  1.00  0.00    -0.052 A 
ATOM     38  H   UNL A   1      36.568  20.621  25.623  1.00  0.00     0.065 H 
ATOM     39  H   UNL A   1      35.921  22.964  25.797  1.00  0.00     0.063 H 
BRANCH  27  40
ATOM     40  C   UNL A   1      33.344  16.730  23.925  1.00  0.00    -0.024 C 
ATOM     41  H   UNL A   1      34.146  16.352  23.326  1.00  0.00     0.029 H 
ATOM     42  H   UNL A   1      32.418  16.599  23.404  1.00  0.00     0.029 H 
ATOM     43  H   UNL A   1      33.309  16.199  24.852  1.00  0.00     0.029 H 
ENDBRANCH  27  40
ENDBRANCH  17  26
ENDBRANCH  14  16
BRANCH  14  44
ATOM     44  C   UNL A   1      30.998  28.733  24.915  1.00  0.00    -0.049 C 
ATOM     45  H   UNL A   1      30.164  28.100  25.137  1.00  0.00     0.024 H 
ATOM     46  H   UNL A   1      31.220  28.678  23.870  1.00  0.00     0.024 H 
ATOM     47  H   UNL A   1      30.759  29.743  25.176  1.00  0.00     0.024 H 
ENDBRANCH  14  44
ENDBRANCH  11  14
ENDBRANCH   7  10
ENDBRANCH   4   7
ENDBRANCH   1   4
BRANCH   1  48
ATOM     48  C   UNL A   1      34.459  33.753  28.722  1.00  0.00    -0.052 C 
ATOM     49  H   UNL A   1      34.819  33.825  27.718  1.00  0.00     0.027 H 
ATOM     50  H   UNL A   1      35.124  34.164  29.452  1.00  0.00     0.027 H 
BRANCH  48  51
ATOM     51  C   UNL A   1      33.170  34.576  28.822  1.00  0.00    -0.036 C 
ATOM     52  H   UNL A   1      32.502  34.068  29.486  1.00  0.00     0.028 H 
ATOM     53  H   UNL A   1      32.792  34.662  27.825  1.00  0.00     0.028 H 
BRANCH  51  54
ATOM     54  C   UNL A   1      33.356  36.002  29.334  1.00  0.00     0.018 C 
ATOM     55  H   UNL A   1      33.082  36.686  28.558  1.00  0.00     0.049 H 
ATOM     56  H   UNL A   1      34.382  36.122  29.611  1.00  0.00     0.049 H 
BRANCH  54  57
ATOM     57  N   UNL A   1      32.539  36.269  30.506  1.00  0.00    -0.352 N 
ATOM     58  C   UNL A   1      32.646  35.780  31.784  1.00  0.00     0.251 C 
ATOM     59  H   UNL A   1      31.794  36.898  30.362  1.00  0.00     0.163 HD
ATOM     60  O   UNL A   1      31.735  35.952  32.587  1.00  0.00    -0.269 OA
BRANCH  58  61
ATOM     61  C   UNL A   1      33.854  35.035  32.200  1.00  0.00     0.039 A 
ATOM     62  C   UNL A   1      33.715  33.713  32.634  1.00  0.00    -0.049 A 
ATOM     63  C   UNL A   1      35.110  35.646  32.206  1.00  0.00    -0.049 A 
ATOM     64  C   UNL A   1      34.844  32.989  33.026  1.00  0.00    -0.053 A 
ATOM     65  H   UNL A   1      32.782  33.274  32.666  1.00  0.00     0.063 H 
ATOM     66  C   UNL A   1      36.242  34.905  32.537  1.00  0.00    -0.053 A 
ATOM     67  H   UNL A   1      35.200  36.646  31.967  1.00  0.00     0.063 H 
ATOM     68  C   UNL A   1      36.119  33.571  32.955  1.00  0.00    -0.014 A 
ATOM     69  H   UNL A   1      34.739  32.021  33.368  1.00  0.00     0.063 H 
ATOM     70  H   UNL A   1      37.177  35.338  32.474  1.00  0.00     0.063 H 
BRANCH  68  71
ATOM     71  C   UNL A   1      37.336  32.806  33.328  1.00  0.00     0.031 A 
ATOM     72  C   UNL A   1      38.048  33.104  34.618  1.00  0.00     0.074 A 
ATOM     73  C   UNL A   1      37.832  31.886  32.479  1.00  0.00     0.049 A 
ATOM     74  N   UNL A   1      39.165  32.602  35.084  1.00  0.00    -0.248 NA
ATOM     75  C   UNL A   1      37.435  34.116  35.491  1.00  0.00    -0.034 C 
ATOM     76  C   UNL A   1      37.253  31.534  31.183  1.00  0.00    -0.036 A 
ATOM     77  N   UNL A   1      38.944  31.088  32.575  1.00  0.00    -0.354 N 
ATOM     78  C   UNL A   1      39.393  33.248  36.291  1.00  0.00     0.074 A 
ATOM     79  C   UNL A   1      38.328  34.211  36.466  1.00  0.00    -0.034 C 
ATOM     80  H   UNL A   1      36.542  34.622  35.375  1.00  0.00     0.065 H 
ATOM     81  C   UNL A   1      38.003  30.578  30.611  1.00  0.00    -0.036 A 
ATOM     82  H   UNL A   1      36.403  31.953  30.773  1.00  0.00     0.065 H 
ATOM     83  C   UNL A   1      39.134  30.276  31.484  1.00  0.00     0.049 A 
ATOM     84  H   UNL A   1      39.549  31.097  33.352  1.00  0.00     0.167 HD
ATOM     85  C   UNL A   1      40.390  33.040  37.186  1.00  0.00     0.037 A 
ATOM     86  H   UNL A   1      38.270  34.883  37.246  1.00  0.00     0.065 H 
ATOM     87  H   UNL A   1      37.812  30.130  29.701  1.00  0.00     0.065 H 
ATOM     88  C   UNL A   1      40.115  29.393  31.215  1.00  0.00     0.037 A 
ATOM     89  C   UNL A   1      41.435  32.065  37.022  1.00  0.00     0.049 A 
ATOM     90  C   UNL A   1      41.214  29.188  32.221  1.00  0.00     0.074 A 
ATOM     91  C   UNL A   1      42.465  31.746  37.891  1.00  0.00    -0.036 A 
ATOM     92  N   UNL A   1      41.584  31.248  35.911  1.00  0.00    -0.354 N 
ATOM     93  N   UNL A   1      41.391  29.765  33.385  1.00  0.00    -0.248 NA
ATOM     94  C   UNL A   1      42.250  28.202  31.878  1.00  0.00    -0.034 C 
ATOM     95  C   UNL A   1      43.257  30.761  37.290  1.00  0.00    -0.036 A 
ATOM     96  H   UNL A   1      42.621  32.163  38.822  1.00  0.00     0.065 H 
ATOM     97  C   UNL A   1      42.696  30.435  36.066  1.00  0.00     0.049 A 
ATOM     98  H   UNL A   1      40.987  31.244  35.128  1.00  0.00     0.167 HD
ATOM     99  C   UNL A   1      42.535  29.194  33.925  1.00  0.00     0.074 A 
ATOM    100  C   UNL A   1      43.005  28.215  32.966  1.00  0.00    -0.034 C 
ATOM    101  H   UNL A   1      42.359  27.646  31.015  1.00  0.00     0.065 H 
ATOM    102  H   UNL A   1      44.113  30.348  37.692  1.00  0.00     0.065 H 
ATOM    103  C   UNL A   1      43.142  29.457  35.107  1.00  0.00     0.037 A 
ATOM    104  H   UNL A   1      43.825  27.605  33.113  1.00  0.00     0.065 H 
BRANCH  85 105
ATOM    105  C   UNL A   1      40.392  33.882  38.428  1.00  0.00     0.064 A 
ATOM    106  C   UNL A   1      39.676  33.500  39.574  1.00  0.00     0.173 A 
ATOM    107  C   UNL A   1      41.144  35.064  38.489  1.00  0.00     0.173 A 
ATOM    108  F   UNL A   1      38.933  32.383  39.563  1.00  0.00    -0.203 F 
ATOM    109  C   UNL A   1      39.690  34.285  40.723  1.00  0.00     0.198 A 
ATOM    110  C   UNL A   1      41.179  35.834  39.650  1.00  0.00     0.198 A 
ATOM    111  F   UNL A   1      41.851  35.472  37.425  1.00  0.00    -0.203 F 
ATOM    112  F   UNL A   1      38.962  33.925  41.788  1.00  0.00    -0.200 F 
ATOM    113  C   UNL A   1      40.446  35.447  40.763  1.00  0.00     0.200 A 
ATOM    114  F   UNL A   1      41.919  36.950  39.690  1.00  0.00    -0.200 F 
ATOM    115  F   UNL A   1      40.464  36.200  41.872  1.00  0.00    -0.200 F 
ENDBRANCH  85 105
BRANCH  88 116
ATOM    116  C   UNL A   1      40.088  28.615  29.950  1.00  0.00     0.064 A 
ATOM    117  C   UNL A   1      39.467  27.360  29.893  1.00  0.00     0.173 A 
ATOM    118  C   UNL A   1      40.685  29.103  28.778  1.00  0.00     0.173 A 
ATOM    119  F   UNL A   1      38.901  26.844  30.994  1.00  0.00    -0.203 F 
ATOM    120  C   UNL A   1      39.462  26.612  28.718  1.00  0.00     0.198 A 
ATOM    121  C   UNL A   1      40.656  28.365  27.597  1.00  0.00     0.198 A 
ATOM    122  F   UNL A   1      41.289  30.299  28.779  1.00  0.00    -0.203 F 
ATOM    123  F   UNL A   1      38.900  25.395  28.704  1.00  0.00    -0.200 F 
ATOM    124  C   UNL A   1      40.052  27.116  27.569  1.00  0.00     0.200 A 
ATOM    125  F   UNL A   1      41.216  28.861  26.485  1.00  0.00    -0.200 F 
ATOM    126  F   UNL A   1      40.045  26.398  26.439  1.00  0.00    -0.200 F 
ENDBRANCH  88 116
BRANCH 103 127
ATOM    127  C   UNL A   1      44.357  28.647  35.451  1.00  0.00     0.064 A 
ATOM    128  C   UNL A   1      45.646  29.071  35.099  1.00  0.00     0.173 A 
ATOM    129  C   UNL A   1      44.231  27.452  36.174  1.00  0.00     0.173 A 
ATOM    130  F   UNL A   1      45.816  30.199  34.393  1.00  0.00    -0.203 F 
ATOM    131  C   UNL A   1      46.765  28.315  35.438  1.00  0.00     0.198 A 
ATOM    132  C   UNL A   1      45.353  26.712  36.535  1.00  0.00     0.198 A 
ATOM    133  F   UNL A   1      43.020  27.006  36.539  1.00  0.00    -0.203 F 
ATOM    134  F   UNL A   1      47.984  28.716  35.053  1.00  0.00    -0.200 F 
ATOM    135  C   UNL A   1      46.618  27.141  36.162  1.00  0.00     0.200 A 
ATOM    136  F   UNL A   1      45.210  25.583  37.245  1.00  0.00    -0.200 F 
ATOM    137  F   UNL A   1      47.697  26.416  36.493  1.00  0.00    -0.200 F 
ENDBRANCH 103 127
ENDBRANCH  68  71
ENDBRANCH  58  61
ENDBRANCH  54  57
ENDBRANCH  51  54
ENDBRANCH  48  51
ENDBRANCH   1  48
TORSDOF 17
ENDMDL
MODEL 9
REMARK VINA RESULT:     -11.9      4.099      7.248
REMARK SMILES Cc1cc2cc(-c3ccc([C@@H](C)C(=O)NCCCCCCNC(=O)c4ccc(-c5c6nc(c(-c7c(F)c(F)c(F)c(F)c7F)c7ccc([nH]7)c(-c7c(F)c(F)c(F)c(F)c7F)c7nc(c(-c8c(F)c(F)c(F)c(F)c8F)c8ccc5[nH]8)C=C7)C=C6)cc4)cc3)ccc2[nH]1
REMARK SMILES IDX 18 1 17 4 16 7 15 10 13 11 14 12 11 14 10 16 7 17 8 18 89 19
REMARK SMILES IDX 9 20 88 22 6 26 2 27 3 28 93 29 4 30 92 32 5 34 91 35 90 37
REMARK SMILES IDX 1 40 12 44 19 48 20 51 21 54 22 57 23 58 24 60 25 61 26 62
REMARK SMILES IDX 87 63 27 64 86 66 28 68 29 71 30 72 80 73 31 74 85 75 79 76
REMARK SMILES IDX 81 77 32 78 84 79 78 81 77 83 33 85 65 88 45 89 64 90 46 91
REMARK SMILES IDX 49 92 63 93 82 94 47 95 48 97 62 99 83 100 50 103 34 105
REMARK SMILES IDX 35 106 43 107 36 108 37 109 41 110 44 111 38 112 39 113
REMARK SMILES IDX 42 114 40 115 66 116 67 117 75 118 68 119 69 120 73 121
REMARK SMILES IDX 76 122 70 123 71 124 74 125 72 126 51 127 52 128 60 129
REMARK SMILES IDX 53 130 54 131 58 132 61 133 55 134 56 135 59 136 57 137
REMARK H PARENT 18 2 18 3 17 5 17 6 16 8 16 9 15 13 11 15 8 21 89 23 9 24
REMARK H PARENT 88 25 3 31 93 33 5 36 91 38 90 39 1 41 1 42 1 43 12 45 12 46
REMARK H PARENT 12 47 19 49 19 50 20 52 20 53 21 55 21 56 22 59 26 65 87 67
REMARK H PARENT 27 69 86 70 85 80 79 82 81 84 84 86 78 87 46 96 49 98 82 101
REMARK H PARENT 47 102 83 104
REMARK Flexibility Score: inf
ROOT
ATOM      1  C   UNL A   1      33.928  24.728  25.405  1.00  0.00    -0.052 C 
ATOM      2  H   UNL A   1      33.054  24.648  24.793  1.00  0.00     0.027 H 
ATOM      3  H   UNL A   1      33.896  24.114  26.280  1.00  0.00     0.027 H 
ENDROOT
BRANCH   1   4
ATOM      4  C   UNL A   1      34.026  26.173  25.905  1.00  0.00    -0.036 C 
ATOM      5  H   UNL A   1      33.787  26.186  26.949  1.00  0.00     0.028 H 
ATOM      6  H   UNL A   1      35.025  26.503  25.708  1.00  0.00     0.028 H 
BRANCH   4   7
ATOM      7  C   UNL A   1      33.089  27.145  25.184  1.00  0.00     0.017 C 
ATOM      8  H   UNL A   1      32.170  26.641  24.966  1.00  0.00     0.049 H 
ATOM      9  H   UNL A   1      32.924  27.985  25.826  1.00  0.00     0.049 H 
BRANCH   7  10
ATOM     10  N   UNL A   1      33.661  27.631  23.946  1.00  0.00    -0.356 N 
ATOM     11  C   UNL A   1      33.266  27.498  22.651  1.00  0.00     0.227 C 
ATOM     12  O   UNL A   1      34.027  27.967  21.795  1.00  0.00    -0.274 OA
ATOM     13  H   UNL A   1      34.488  28.153  24.064  1.00  0.00     0.163 HD
BRANCH  11  14
ATOM     14  C   UNL A   1      31.952  26.828  22.221  1.00  0.00     0.060 C 
ATOM     15  H   UNL A   1      31.883  26.980  21.163  1.00  0.00     0.045 H 
BRANCH  14  16
ATOM     16  C   UNL A   1      31.970  25.314  22.355  1.00  0.00    -0.036 A 
ATOM     17  C   UNL A   1      32.131  22.475  22.645  1.00  0.00    -0.018 A 
ATOM     18  C   UNL A   1      31.151  23.233  23.305  1.00  0.00    -0.054 A 
ATOM     19  C   UNL A   1      33.026  23.172  21.821  1.00  0.00    -0.054 A 
ATOM     20  C   UNL A   1      31.049  24.616  23.135  1.00  0.00    -0.058 A 
ATOM     21  H   UNL A   1      30.486  22.756  23.933  1.00  0.00     0.063 H 
ATOM     22  C   UNL A   1      32.959  24.568  21.693  1.00  0.00    -0.058 A 
ATOM     23  H   UNL A   1      33.747  22.650  21.301  1.00  0.00     0.063 H 
ATOM     24  H   UNL A   1      30.280  25.129  23.595  1.00  0.00     0.063 H 
ATOM     25  H   UNL A   1      33.649  25.055  21.100  1.00  0.00     0.063 H 
BRANCH  17  26
ATOM     26  C   UNL A   1      32.188  21.007  22.831  1.00  0.00    -0.018 A 
ATOM     27  C   UNL A   1      32.938  16.959  24.997  1.00  0.00     0.013 A 
ATOM     28  C   UNL A   1      32.902  18.271  25.419  1.00  0.00    -0.034 A 
ATOM     29  N   UNL A   1      32.647  16.953  23.654  1.00  0.00    -0.359 N 
ATOM     30  C   UNL A   1      32.597  19.082  24.295  1.00  0.00     0.000 A 
ATOM     31  H   UNL A   1      33.068  18.605  26.382  1.00  0.00     0.065 H 
ATOM     32  C   UNL A   1      32.448  18.238  23.199  1.00  0.00     0.046 A 
ATOM     33  H   UNL A   1      32.589  16.145  23.095  1.00  0.00     0.166 HD
ATOM     34  C   UNL A   1      32.443  20.467  24.108  1.00  0.00    -0.045 A 
ATOM     35  C   UNL A   1      32.153  18.720  21.920  1.00  0.00    -0.037 A 
ATOM     36  H   UNL A   1      32.518  21.099  24.921  1.00  0.00     0.064 H 
ATOM     37  C   UNL A   1      32.037  20.111  21.759  1.00  0.00    -0.052 A 
ATOM     38  H   UNL A   1      32.025  18.077  21.124  1.00  0.00     0.065 H 
ATOM     39  H   UNL A   1      31.834  20.488  20.821  1.00  0.00     0.063 H 
BRANCH  27  40
ATOM     40  C   UNL A   1      33.219  15.714  25.751  1.00  0.00    -0.024 C 
ATOM     41  H   UNL A   1      34.247  15.700  26.047  1.00  0.00     0.029 H 
ATOM     42  H   UNL A   1      33.016  14.868  25.128  1.00  0.00     0.029 H 
ATOM     43  H   UNL A   1      32.596  15.675  26.619  1.00  0.00     0.029 H 
ENDBRANCH  27  40
ENDBRANCH  17  26
ENDBRANCH  14  16
BRANCH  14  44
ATOM     44  C   UNL A   1      30.698  27.531  22.744  1.00  0.00    -0.049 C 
ATOM     45  H   UNL A   1      30.923  28.023  23.666  1.00  0.00     0.024 H 
ATOM     46  H   UNL A   1      29.925  26.808  22.904  1.00  0.00     0.024 H 
ATOM     47  H   UNL A   1      30.368  28.252  22.025  1.00  0.00     0.024 H 
ENDBRANCH  14  44
ENDBRANCH  11  14
ENDBRANCH   7  10
ENDBRANCH   4   7
ENDBRANCH   1   4
BRANCH   1  48
ATOM     48  C   UNL A   1      35.128  24.237  24.584  1.00  0.00    -0.052 C 
ATOM     49  H   UNL A   1      35.969  24.850  24.832  1.00  0.00     0.027 H 
ATOM     50  H   UNL A   1      34.829  24.304  23.559  1.00  0.00     0.027 H 
BRANCH  48  51
ATOM     51  C   UNL A   1      35.529  22.775  24.807  1.00  0.00    -0.036 C 
ATOM     52  H   UNL A   1      36.218  22.498  24.036  1.00  0.00     0.028 H 
ATOM     53  H   UNL A   1      34.621  22.208  24.787  1.00  0.00     0.028 H 
BRANCH  51  54
ATOM     54  C   UNL A   1      36.184  22.486  26.156  1.00  0.00     0.018 C 
ATOM     55  H   UNL A   1      35.434  22.145  26.838  1.00  0.00     0.049 H 
ATOM     56  H   UNL A   1      36.641  23.389  26.501  1.00  0.00     0.049 H 
BRANCH  54  57
ATOM     57  N   UNL A   1      37.220  21.471  26.050  1.00  0.00    -0.352 N 
ATOM     58  C   UNL A   1      38.585  21.601  26.071  1.00  0.00     0.251 C 
ATOM     59  H   UNL A   1      36.890  20.547  25.949  1.00  0.00     0.163 HD
ATOM     60  O   UNL A   1      39.298  20.655  25.752  1.00  0.00    -0.269 OA
BRANCH  58  61
ATOM     61  C   UNL A   1      39.208  22.882  26.468  1.00  0.00     0.039 A 
ATOM     62  C   UNL A   1      40.092  22.895  27.551  1.00  0.00    -0.049 A 
ATOM     63  C   UNL A   1      38.891  24.072  25.808  1.00  0.00    -0.049 A 
ATOM     64  C   UNL A   1      40.697  24.094  27.940  1.00  0.00    -0.053 A 
ATOM     65  H   UNL A   1      40.297  22.023  28.063  1.00  0.00     0.063 H 
ATOM     66  C   UNL A   1      39.541  25.254  26.156  1.00  0.00    -0.053 A 
ATOM     67  H   UNL A   1      38.175  24.075  25.064  1.00  0.00     0.063 H 
ATOM     68  C   UNL A   1      40.445  25.277  27.228  1.00  0.00    -0.014 A 
ATOM     69  H   UNL A   1      41.331  24.108  28.753  1.00  0.00     0.063 H 
ATOM     70  H   UNL A   1      39.357  26.117  25.621  1.00  0.00     0.063 H 
BRANCH  68  71
ATOM     71  C   UNL A   1      41.108  26.553  27.599  1.00  0.00     0.031 A 
ATOM     72  C   UNL A   1      42.558  26.773  27.268  1.00  0.00     0.074 A 
ATOM     73  C   UNL A   1      40.422  27.486  28.285  1.00  0.00     0.049 A 
ATOM     74  N   UNL A   1      43.335  27.781  27.576  1.00  0.00    -0.248 NA
ATOM     75  C   UNL A   1      43.231  25.707  26.510  1.00  0.00    -0.034 C 
ATOM     76  C   UNL A   1      39.023  27.374  28.696  1.00  0.00    -0.036 A 
ATOM     77  N   UNL A   1      40.815  28.709  28.769  1.00  0.00    -0.354 N 
ATOM     78  C   UNL A   1      44.585  27.464  27.063  1.00  0.00     0.074 A 
ATOM     79  C   UNL A   1      44.479  26.150  26.467  1.00  0.00    -0.034 C 
ATOM     80  H   UNL A   1      42.834  24.839  26.115  1.00  0.00     0.065 H 
ATOM     81  C   UNL A   1      38.667  28.490  29.354  1.00  0.00    -0.036 A 
ATOM     82  H   UNL A   1      38.407  26.567  28.510  1.00  0.00     0.065 H 
ATOM     83  C   UNL A   1      39.822  29.378  29.442  1.00  0.00     0.049 A 
ATOM     84  H   UNL A   1      41.721  29.073  28.645  1.00  0.00     0.167 HD
ATOM     85  C   UNL A   1      45.716  28.211  27.069  1.00  0.00     0.037 A 
ATOM     86  H   UNL A   1      45.270  25.626  26.062  1.00  0.00     0.065 H 
ATOM     87  H   UNL A   1      37.729  28.686  29.737  1.00  0.00     0.065 H 
ATOM     88  C   UNL A   1      39.844  30.572  30.065  1.00  0.00     0.037 A 
ATOM     89  C   UNL A   1      45.813  29.529  27.640  1.00  0.00     0.049 A 
ATOM     90  C   UNL A   1      41.115  31.378  30.064  1.00  0.00     0.074 A 
ATOM     91  C   UNL A   1      46.901  30.386  27.657  1.00  0.00    -0.036 A 
ATOM     92  N   UNL A   1      44.781  30.181  28.298  1.00  0.00    -0.354 N 
ATOM     93  N   UNL A   1      42.277  31.091  29.530  1.00  0.00    -0.248 NA
ATOM     94  C   UNL A   1      41.075  32.678  30.750  1.00  0.00    -0.034 C 
ATOM     95  C   UNL A   1      46.537  31.542  28.355  1.00  0.00    -0.036 A 
ATOM     96  H   UNL A   1      47.821  30.203  27.228  1.00  0.00     0.065 H 
ATOM     97  C   UNL A   1      45.210  31.424  28.736  1.00  0.00     0.049 A 
ATOM     98  H   UNL A   1      43.877  29.816  28.433  1.00  0.00     0.167 HD
ATOM     99  C   UNL A   1      43.095  32.183  29.786  1.00  0.00     0.074 A 
ATOM    100  C   UNL A   1      42.292  33.144  30.514  1.00  0.00    -0.034 C 
ATOM    101  H   UNL A   1      40.300  33.113  31.276  1.00  0.00     0.065 H 
ATOM    102  H   UNL A   1      47.153  32.346  28.553  1.00  0.00     0.065 H 
ATOM    103  C   UNL A   1      44.393  32.373  29.449  1.00  0.00     0.037 A 
ATOM    104  H   UNL A   1      42.627  34.074  30.813  1.00  0.00     0.065 H 
BRANCH  85 105
ATOM    105  C   UNL A   1      46.939  27.622  26.429  1.00  0.00     0.064 A 
ATOM    106  C   UNL A   1      47.866  26.874  27.171  1.00  0.00     0.173 A 
ATOM    107  C   UNL A   1      47.171  27.776  25.054  1.00  0.00     0.173 A 
ATOM    108  F   UNL A   1      47.695  26.707  28.491  1.00  0.00    -0.203 F 
ATOM    109  C   UNL A   1      48.994  26.327  26.567  1.00  0.00     0.198 A 
ATOM    110  C   UNL A   1      48.286  27.204  24.447  1.00  0.00     0.198 A 
ATOM    111  F   UNL A   1      46.314  28.476  24.297  1.00  0.00    -0.203 F 
ATOM    112  F   UNL A   1      49.889  25.657  27.304  1.00  0.00    -0.200 F 
ATOM    113  C   UNL A   1      49.200  26.486  25.204  1.00  0.00     0.200 A 
ATOM    114  F   UNL A   1      48.477  27.348  23.128  1.00  0.00    -0.200 F 
ATOM    115  F   UNL A   1      50.284  25.954  24.622  1.00  0.00    -0.200 F 
ENDBRANCH  85 105
BRANCH  88 116
ATOM    116  C   UNL A   1      38.616  31.091  30.721  1.00  0.00     0.064 A 
ATOM    117  C   UNL A   1      37.648  31.786  29.982  1.00  0.00     0.173 A 
ATOM    118  C   UNL A   1      38.388  30.913  32.092  1.00  0.00     0.173 A 
ATOM    119  F   UNL A   1      37.834  31.999  28.671  1.00  0.00    -0.203 F 
ATOM    120  C   UNL A   1      36.508  32.300  30.593  1.00  0.00     0.198 A 
ATOM    121  C   UNL A   1      37.233  31.405  32.698  1.00  0.00     0.198 A 
ATOM    122  F   UNL A   1      39.281  30.252  32.843  1.00  0.00    -0.203 F 
ATOM    123  F   UNL A   1      35.621  32.998  29.871  1.00  0.00    -0.200 F 
ATOM    124  C   UNL A   1      36.298  32.105  31.950  1.00  0.00     0.200 A 
ATOM    125  F   UNL A   1      37.028  31.203  34.007  1.00  0.00    -0.200 F 
ATOM    126  F   UNL A   1      35.200  32.598  32.538  1.00  0.00    -0.200 F 
ENDBRANCH  88 116
BRANCH 103 127
ATOM    127  C   UNL A   1      45.017  33.684  29.828  1.00  0.00     0.064 A 
ATOM    128  C   UNL A   1      45.693  33.851  31.045  1.00  0.00     0.173 A 
ATOM    129  C   UNL A   1      44.969  34.773  28.946  1.00  0.00     0.173 A 
ATOM    130  F   UNL A   1      45.751  32.843  31.929  1.00  0.00    -0.203 F 
ATOM    131  C   UNL A   1      46.279  35.070  31.375  1.00  0.00     0.198 A 
ATOM    132  C   UNL A   1      45.580  35.982  29.267  1.00  0.00     0.198 A 
ATOM    133  F   UNL A   1      44.339  34.661  27.767  1.00  0.00    -0.203 F 
ATOM    134  F   UNL A   1      46.882  35.221  32.563  1.00  0.00    -0.200 F 
ATOM    135  C   UNL A   1      46.228  36.131  30.484  1.00  0.00     0.200 A 
ATOM    136  F   UNL A   1      45.540  37.003  28.399  1.00  0.00    -0.200 F 
ATOM    137  F   UNL A   1      46.798  37.302  30.801  1.00  0.00    -0.200 F 
ENDBRANCH 103 127
ENDBRANCH  68  71
ENDBRANCH  58  61
ENDBRANCH  54  57
ENDBRANCH  51  54
ENDBRANCH  48  51
ENDBRANCH   1  48
TORSDOF 17
ENDMDL
MODEL 10
REMARK VINA RESULT:     -11.8      2.431      5.141
REMARK SMILES Cc1cc2cc(-c3ccc([C@@H](C)C(=O)NCCCCCCNC(=O)c4ccc(-c5c6nc(c(-c7c(F)c(F)c(F)c(F)c7F)c7ccc([nH]7)c(-c7c(F)c(F)c(F)c(F)c7F)c7nc(c(-c8c(F)c(F)c(F)c(F)c8F)c8ccc5[nH]8)C=C7)C=C6)cc4)cc3)ccc2[nH]1
REMARK SMILES IDX 18 1 17 4 16 7 15 10 13 11 14 12 11 14 10 16 7 17 8 18 89 19
REMARK SMILES IDX 9 20 88 22 6 26 2 27 3 28 93 29 4 30 92 32 5 34 91 35 90 37
REMARK SMILES IDX 1 40 12 44 19 48 20 51 21 54 22 57 23 58 24 60 25 61 26 62
REMARK SMILES IDX 87 63 27 64 86 66 28 68 29 71 30 72 80 73 31 74 85 75 79 76
REMARK SMILES IDX 81 77 32 78 84 79 78 81 77 83 33 85 65 88 45 89 64 90 46 91
REMARK SMILES IDX 49 92 63 93 82 94 47 95 48 97 62 99 83 100 50 103 34 105
REMARK SMILES IDX 35 106 43 107 36 108 37 109 41 110 44 111 38 112 39 113
REMARK SMILES IDX 42 114 40 115 66 116 67 117 75 118 68 119 69 120 73 121
REMARK SMILES IDX 76 122 70 123 71 124 74 125 72 126 51 127 52 128 60 129
REMARK SMILES IDX 53 130 54 131 58 132 61 133 55 134 56 135 59 136 57 137
REMARK H PARENT 18 2 18 3 17 5 17 6 16 8 16 9 15 13 11 15 8 21 89 23 9 24
REMARK H PARENT 88 25 3 31 93 33 5 36 91 38 90 39 1 41 1 42 1 43 12 45 12 46
REMARK H PARENT 12 47 19 49 19 50 20 52 20 53 21 55 21 56 22 59 26 65 87 67
REMARK H PARENT 27 69 86 70 85 80 79 82 81 84 84 86 78 87 46 96 49 98 82 101
REMARK H PARENT 47 102 83 104
REMARK Flexibility Score: inf
ROOT
ATOM      1  C   UNL A   1      32.319  29.944  26.974  1.00  0.00    -0.052 C 
ATOM      2  H   UNL A   1      33.283  29.914  26.509  1.00  0.00     0.027 H 
ATOM      3  H   UNL A   1      32.328  30.390  27.946  1.00  0.00     0.027 H 
ENDROOT
BRANCH   1   4
ATOM      4  C   UNL A   1      31.844  28.501  27.173  1.00  0.00    -0.036 C 
ATOM      5  H   UNL A   1      31.804  28.301  28.225  1.00  0.00     0.028 H 
ATOM      6  H   UNL A   1      30.886  28.422  26.703  1.00  0.00     0.028 H 
BRANCH   4   7
ATOM      7  C   UNL A   1      32.747  27.453  26.519  1.00  0.00     0.017 C 
ATOM      8  H   UNL A   1      33.416  27.064  27.258  1.00  0.00     0.049 H 
ATOM      9  H   UNL A   1      32.124  26.681  26.118  1.00  0.00     0.049 H 
BRANCH   7  10
ATOM     10  N   UNL A   1      33.524  28.012  25.432  1.00  0.00    -0.356 N 
ATOM     11  C   UNL A   1      33.370  27.952  24.082  1.00  0.00     0.227 C 
ATOM     12  O   UNL A   1      34.264  28.473  23.403  1.00  0.00    -0.274 OA
ATOM     13  H   UNL A   1      34.308  28.532  25.725  1.00  0.00     0.163 HD
BRANCH  11  14
ATOM     14  C   UNL A   1      32.164  27.300  23.387  1.00  0.00     0.060 C 
ATOM     15  H   UNL A   1      32.276  27.521  22.345  1.00  0.00     0.045 H 
BRANCH  14  16
ATOM     16  C   UNL A   1      32.190  25.781  23.424  1.00  0.00    -0.036 A 
ATOM     17  C   UNL A   1      32.154  22.923  23.388  1.00  0.00    -0.018 A 
ATOM     18  C   UNL A   1      33.353  23.650  23.336  1.00  0.00    -0.054 A 
ATOM     19  C   UNL A   1      30.966  23.662  23.473  1.00  0.00    -0.054 A 
ATOM     20  C   UNL A   1      33.374  25.046  23.389  1.00  0.00    -0.058 A 
ATOM     21  H   UNL A   1      34.246  23.139  23.256  1.00  0.00     0.063 H 
ATOM     22  C   UNL A   1      30.982  25.065  23.472  1.00  0.00    -0.058 A 
ATOM     23  H   UNL A   1      30.064  23.166  23.536  1.00  0.00     0.063 H 
ATOM     24  H   UNL A   1      34.279  25.541  23.404  1.00  0.00     0.063 H 
ATOM     25  H   UNL A   1      30.088  25.581  23.508  1.00  0.00     0.063 H 
BRANCH  17  26
ATOM     26  C   UNL A   1      32.177  21.442  23.356  1.00  0.00    -0.018 A 
ATOM     27  C   UNL A   1      32.771  17.104  24.926  1.00  0.00     0.013 A 
ATOM     28  C   UNL A   1      32.741  18.340  25.536  1.00  0.00    -0.034 A 
ATOM     29  N   UNL A   1      32.534  17.302  23.587  1.00  0.00    -0.359 N 
ATOM     30  C   UNL A   1      32.494  19.314  24.534  1.00  0.00     0.000 A 
ATOM     31  H   UNL A   1      32.873  18.524  26.543  1.00  0.00     0.065 H 
ATOM     32  C   UNL A   1      32.375  18.644  23.320  1.00  0.00     0.046 A 
ATOM     33  H   UNL A   1      32.484  16.587  22.913  1.00  0.00     0.166 HD
ATOM     34  C   UNL A   1      32.372  20.714  24.548  1.00  0.00    -0.045 A 
ATOM     35  C   UNL A   1      32.140  19.316  22.116  1.00  0.00    -0.037 A 
ATOM     36  H   UNL A   1      32.425  21.218  25.448  1.00  0.00     0.064 H 
ATOM     37  C   UNL A   1      32.055  20.718  22.159  1.00  0.00    -0.052 A 
ATOM     38  H   UNL A   1      32.033  18.800  21.229  1.00  0.00     0.065 H 
ATOM     39  H   UNL A   1      31.896  21.233  21.280  1.00  0.00     0.063 H 
BRANCH  27  40
ATOM     40  C   UNL A   1      32.999  15.755  25.496  1.00  0.00    -0.024 C 
ATOM     41  H   UNL A   1      33.926  15.746  26.031  1.00  0.00     0.029 H 
ATOM     42  H   UNL A   1      33.038  15.035  24.705  1.00  0.00     0.029 H 
ATOM     43  H   UNL A   1      32.200  15.509  26.163  1.00  0.00     0.029 H 
ENDBRANCH  27  40
ENDBRANCH  17  26
ENDBRANCH  14  16
BRANCH  14  44
ATOM     44  C   UNL A   1      30.824  27.954  23.726  1.00  0.00    -0.049 C 
ATOM     45  H   UNL A   1      30.669  27.922  24.784  1.00  0.00     0.024 H 
ATOM     46  H   UNL A   1      30.034  27.427  23.233  1.00  0.00     0.024 H 
ATOM     47  H   UNL A   1      30.831  28.973  23.398  1.00  0.00     0.024 H 
ENDBRANCH  14  44
ENDBRANCH  11  14
ENDBRANCH   7  10
ENDBRANCH   4   7
ENDBRANCH   1   4
BRANCH   1  48
ATOM     48  C   UNL A   1      31.403  30.822  26.111  1.00  0.00    -0.052 C 
ATOM     49  H   UNL A   1      30.412  30.425  26.175  1.00  0.00     0.027 H 
ATOM     50  H   UNL A   1      31.818  30.797  25.125  1.00  0.00     0.027 H 
BRANCH  48  51
ATOM     51  C   UNL A   1      31.344  32.302  26.502  1.00  0.00    -0.036 C 
ATOM     52  H   UNL A   1      30.481  32.449  27.119  1.00  0.00     0.028 H 
ATOM     53  H   UNL A   1      31.308  32.853  25.586  1.00  0.00     0.028 H 
BRANCH  51  54
ATOM     54  C   UNL A   1      32.564  32.816  27.264  1.00  0.00     0.018 C 
ATOM     55  H   UNL A   1      33.426  32.722  26.638  1.00  0.00     0.049 H 
ATOM     56  H   UNL A   1      32.666  32.233  28.155  1.00  0.00     0.049 H 
BRANCH  54  57
ATOM     57  N   UNL A   1      32.415  34.208  27.653  1.00  0.00    -0.352 N 
ATOM     58  C   UNL A   1      33.033  34.914  28.654  1.00  0.00     0.251 C 
ATOM     59  H   UNL A   1      31.772  34.726  27.114  1.00  0.00     0.163 HD
ATOM     60  O   UNL A   1      32.620  36.025  28.969  1.00  0.00    -0.269 OA
BRANCH  58  61
ATOM     61  C   UNL A   1      34.194  34.338  29.367  1.00  0.00     0.039 A 
ATOM     62  C   UNL A   1      33.976  33.643  30.561  1.00  0.00    -0.049 A 
ATOM     63  C   UNL A   1      35.494  34.518  28.889  1.00  0.00    -0.049 A 
ATOM     64  C   UNL A   1      35.057  33.085  31.248  1.00  0.00    -0.053 A 
ATOM     65  H   UNL A   1      33.019  33.543  30.934  1.00  0.00     0.063 H 
ATOM     66  C   UNL A   1      36.565  33.909  29.540  1.00  0.00    -0.053 A 
ATOM     67  H   UNL A   1      35.662  35.102  28.055  1.00  0.00     0.063 H 
ATOM     68  C   UNL A   1      36.357  33.192  30.728  1.00  0.00    -0.014 A 
ATOM     69  H   UNL A   1      34.899  32.592  32.140  1.00  0.00     0.063 H 
ATOM     70  H   UNL A   1      37.516  33.985  29.147  1.00  0.00     0.063 H 
BRANCH  68  71
ATOM     71  C   UNL A   1      37.515  32.572  31.421  1.00  0.00     0.031 A 
ATOM     72  C   UNL A   1      38.255  31.432  30.779  1.00  0.00     0.074 A 
ATOM     73  C   UNL A   1      37.860  32.994  32.652  1.00  0.00     0.049 A 
ATOM     74  N   UNL A   1      39.238  30.709  31.255  1.00  0.00    -0.248 NA
ATOM     75  C   UNL A   1      37.819  31.038  29.431  1.00  0.00    -0.034 C 
ATOM     76  C   UNL A   1      37.197  34.066  33.394  1.00  0.00    -0.036 A 
ATOM     77  N   UNL A   1      38.849  32.564  33.500  1.00  0.00    -0.354 N 
ATOM     78  C   UNL A   1      39.525  29.769  30.274  1.00  0.00     0.074 A 
ATOM     79  C   UNL A   1      38.582  29.981  29.196  1.00  0.00    -0.034 C 
ATOM     80  H   UNL A   1      37.104  31.471  28.825  1.00  0.00     0.065 H 
ATOM     81  C   UNL A   1      37.807  34.223  34.580  1.00  0.00    -0.036 A 
ATOM     82  H   UNL A   1      36.388  34.614  33.060  1.00  0.00     0.065 H 
ATOM     83  C   UNL A   1      38.881  33.241  34.695  1.00  0.00     0.049 A 
ATOM     84  H   UNL A   1      39.477  31.840  33.274  1.00  0.00     0.167 HD
ATOM     85  C   UNL A   1      40.500  28.829  30.263  1.00  0.00     0.037 A 
ATOM     86  H   UNL A   1      38.514  29.387  28.355  1.00  0.00     0.065 H 
ATOM     87  H   UNL A   1      37.557  34.924  35.295  1.00  0.00     0.065 H 
ATOM     88  C   UNL A   1      39.682  33.081  35.765  1.00  0.00     0.037 A 
ATOM     89  C   UNL A   1      41.452  28.636  31.325  1.00  0.00     0.049 A 
ATOM     90  C   UNL A   1      40.752  32.024  35.731  1.00  0.00     0.074 A 
ATOM     91  C   UNL A   1      42.506  27.742  31.390  1.00  0.00    -0.036 A 
ATOM     92  N   UNL A   1      41.463  29.353  32.513  1.00  0.00    -0.354 N 
ATOM     93  N   UNL A   1      41.049  31.176  34.776  1.00  0.00    -0.248 NA
ATOM     94  C   UNL A   1      41.604  31.905  36.923  1.00  0.00    -0.034 C 
ATOM     95  C   UNL A   1      43.135  27.893  32.631  1.00  0.00    -0.036 A 
ATOM     96  H   UNL A   1      42.782  27.078  30.650  1.00  0.00     0.065 H 
ATOM     97  C   UNL A   1      42.498  28.912  33.322  1.00  0.00     0.049 A 
ATOM     98  H   UNL A   1      40.831  30.071  32.746  1.00  0.00     0.167 HD
ATOM     99  C   UNL A   1      42.137  30.447  35.236  1.00  0.00     0.074 A 
ATOM    100  C   UNL A   1      42.455  30.959  36.553  1.00  0.00    -0.034 C 
ATOM    101  H   UNL A   1      41.553  32.422  37.815  1.00  0.00     0.065 H 
ATOM    102  H   UNL A   1      43.936  27.340  32.972  1.00  0.00     0.065 H 
ATOM    103  C   UNL A   1      42.810  29.442  34.625  1.00  0.00     0.037 A 
ATOM    104  H   UNL A   1      43.245  30.629  37.130  1.00  0.00     0.065 H 
BRANCH  85 105
ATOM    105  C   UNL A   1      40.591  27.940  29.057  1.00  0.00     0.064 A 
ATOM    106  C   UNL A   1      41.470  28.226  28.000  1.00  0.00     0.173 A 
ATOM    107  C   UNL A   1      39.821  26.771  28.971  1.00  0.00     0.173 A 
ATOM    108  F   UNL A   1      42.221  29.337  28.029  1.00  0.00    -0.203 F 
ATOM    109  C   UNL A   1      41.551  27.391  26.889  1.00  0.00     0.198 A 
ATOM    110  C   UNL A   1      39.924  25.923  27.871  1.00  0.00     0.198 A 
ATOM    111  F   UNL A   1      38.970  26.447  29.957  1.00  0.00    -0.203 F 
ATOM    112  F   UNL A   1      42.361  27.709  25.871  1.00  0.00    -0.200 F 
ATOM    113  C   UNL A   1      40.784  26.237  26.828  1.00  0.00     0.200 A 
ATOM    114  F   UNL A   1      39.191  24.802  27.820  1.00  0.00    -0.200 F 
ATOM    115  F   UNL A   1      40.867  25.431  25.761  1.00  0.00    -0.200 F 
ENDBRANCH  85 105
BRANCH  88 116
ATOM    116  C   UNL A   1      39.522  33.960  36.952  1.00  0.00     0.064 A 
ATOM    117  C   UNL A   1      40.138  35.219  36.999  1.00  0.00     0.173 A 
ATOM    118  C   UNL A   1      38.762  33.563  38.061  1.00  0.00     0.173 A 
ATOM    119  F   UNL A   1      40.892  35.633  35.971  1.00  0.00    -0.203 F 
ATOM    120  C   UNL A   1      40.016  36.039  38.119  1.00  0.00     0.198 A 
ATOM    121  C   UNL A   1      38.619  34.394  39.170  1.00  0.00     0.198 A 
ATOM    122  F   UNL A   1      38.151  32.370  38.064  1.00  0.00    -0.203 F 
ATOM    123  F   UNL A   1      40.652  37.217  38.155  1.00  0.00    -0.200 F 
ATOM    124  C   UNL A   1      39.253  35.628  39.201  1.00  0.00     0.200 A 
ATOM    125  F   UNL A   1      37.870  34.000  40.208  1.00  0.00    -0.200 F 
ATOM    126  F   UNL A   1      39.134  36.417  40.277  1.00  0.00    -0.200 F 
ENDBRANCH  88 116
BRANCH 103 127
ATOM    127  C   UNL A   1      43.983  28.858  35.354  1.00  0.00     0.064 A 
ATOM    128  C   UNL A   1      45.279  29.365  35.186  1.00  0.00     0.173 A 
ATOM    129  C   UNL A   1      43.800  27.802  36.259  1.00  0.00     0.173 A 
ATOM    130  F   UNL A   1      45.507  30.363  34.319  1.00  0.00    -0.203 F 
ATOM    131  C   UNL A   1      46.355  28.820  35.882  1.00  0.00     0.198 A 
ATOM    132  C   UNL A   1      44.874  27.278  36.973  1.00  0.00     0.198 A 
ATOM    133  F   UNL A   1      42.579  27.286  36.459  1.00  0.00    -0.203 F 
ATOM    134  F   UNL A   1      47.593  29.291  35.673  1.00  0.00    -0.200 F 
ATOM    135  C   UNL A   1      46.150  27.783  36.779  1.00  0.00     0.200 A 
ATOM    136  F   UNL A   1      44.672  26.283  37.849  1.00  0.00    -0.200 F 
ATOM    137  F   UNL A   1      47.187  27.263  37.453  1.00  0.00    -0.200 F 
ENDBRANCH 103 127
ENDBRANCH  68  71
ENDBRANCH  58  61
ENDBRANCH  54  57
ENDBRANCH  51  54
ENDBRANCH  48  51
ENDBRANCH   1  48
TORSDOF 17
ENDMDL
