MODEL 1
REMARK VINA RESULT:     -11.9      0.000      0.000
REMARK SMILES Nc1ccc(O)c(C(=O)NCCCCCCNC(=O)c2ccc(-c3c4nc(c(-c5c(F)c(F)c(F)c(F)c5F)c5ccc([nH]5)c(-c5c(F)c(F)c(F)c(F)c5F)c5nc(c(-c6c(F)c(F)c(F)c(F)c6F)c6ccc3[nH]6)C=C5)C=C4)cc2)c1
REMARK SMILES IDX 14 1 13 4 12 7 11 10 10 13 8 14 9 15 7 17 2 18 3 19 83 20
REMARK SMILES IDX 4 21 5 24 1 26 6 29 15 31 16 34 17 37 18 38 19 40 20 41
REMARK SMILES IDX 21 42 82 43 22 44 81 46 23 48 24 51 25 52 75 53 26 54 80 55
REMARK SMILES IDX 74 56 76 57 27 58 79 59 73 61 72 63 28 65 60 68 40 69 59 70
REMARK SMILES IDX 41 71 44 72 58 73 77 74 42 75 43 77 57 79 78 80 45 83 29 85
REMARK SMILES IDX 30 86 38 87 31 88 32 89 36 90 39 91 33 92 34 93 37 94 35 95
REMARK SMILES IDX 61 96 62 97 70 98 63 99 64 100 68 101 71 102 65 103 66 104
REMARK SMILES IDX 69 105 67 106 46 107 47 108 55 109 48 110 49 111 53 112
REMARK SMILES IDX 56 113 50 114 51 115 54 116 52 117
REMARK H PARENT 14 2 14 3 13 5 13 6 12 8 12 9 11 11 11 12 10 16 3 22 83 23
REMARK H PARENT 4 25 1 27 1 28 6 30 15 32 15 33 16 35 16 36 17 39 21 45 82 47
REMARK H PARENT 22 49 81 50 80 60 74 62 76 64 79 66 73 67 41 76 44 78 77 81
REMARK H PARENT 42 82 78 84
REMARK Flexibility Score: inf
ROOT
ATOM      1  C   UNL A   1      31.422  30.857  25.999  1.00  0.00    -0.052 C 
ATOM      2  H   UNL A   1      30.445  30.470  25.800  1.00  0.00     0.027 H 
ATOM      3  H   UNL A   1      32.045  30.901  25.129  1.00  0.00     0.027 H 
ENDROOT
BRANCH   1   4
ATOM      4  C   UNL A   1      32.121  29.907  26.980  1.00  0.00    -0.052 C 
ATOM      5  H   UNL A   1      32.965  30.419  27.393  1.00  0.00     0.027 H 
ATOM      6  H   UNL A   1      31.388  29.640  27.713  1.00  0.00     0.027 H 
BRANCH   4   7
ATOM      7  C   UNL A   1      32.616  28.589  26.365  1.00  0.00    -0.036 C 
ATOM      8  H   UNL A   1      33.328  28.816  25.599  1.00  0.00     0.028 H 
ATOM      9  H   UNL A   1      33.047  28.010  27.155  1.00  0.00     0.028 H 
BRANCH   7  10
ATOM     10  C   UNL A   1      31.490  27.753  25.750  1.00  0.00     0.018 C 
ATOM     11  H   UNL A   1      31.306  26.897  26.364  1.00  0.00     0.049 H 
ATOM     12  H   UNL A   1      30.602  28.348  25.688  1.00  0.00     0.049 H 
BRANCH  10  13
ATOM     13  N   UNL A   1      31.870  27.320  24.420  1.00  0.00    -0.352 N 
ATOM     14  C   UNL A   1      31.311  27.453  23.178  1.00  0.00     0.255 C 
ATOM     15  O   UNL A   1      31.917  26.917  22.245  1.00  0.00    -0.269 OA
ATOM     16  H   UNL A   1      32.718  26.821  24.408  1.00  0.00     0.163 HD
BRANCH  14  17
ATOM     17  C   UNL A   1      30.087  28.242  22.857  1.00  0.00     0.083 A 
ATOM     18  C   UNL A   1      27.686  28.694  22.965  1.00  0.00     0.032 A 
ATOM     19  C   UNL A   1      27.880  29.890  22.277  1.00  0.00    -0.035 A 
ATOM     20  C   UNL A   1      28.782  27.844  23.176  1.00  0.00    -0.023 A 
ATOM     21  C   UNL A   1      29.157  30.273  21.874  1.00  0.00    -0.017 A 
ATOM     22  H   UNL A   1      27.072  30.497  22.066  1.00  0.00     0.065 H 
ATOM     23  H   UNL A   1      28.623  26.905  23.574  1.00  0.00     0.065 H 
ATOM     24  C   UNL A   1      30.248  29.461  22.171  1.00  0.00     0.128 A 
ATOM     25  H   UNL A   1      29.294  31.155  21.356  1.00  0.00     0.066 H 
BRANCH  18  26
ATOM     26  N   UNL A   1      26.405  28.291  23.316  1.00  0.00    -0.399 N 
ATOM     27  H   UNL A   1      25.886  27.718  22.706  1.00  0.00     0.156 HD
ATOM     28  H   UNL A   1      26.016  28.577  24.174  1.00  0.00     0.156 HD
ENDBRANCH  18  26
BRANCH  24  29
ATOM     29  O   UNL A   1      31.461  29.932  21.737  1.00  0.00    -0.507 OA
ATOM     30  H   UNL A   1      31.539  30.815  21.432  1.00  0.00     0.293 HD
ENDBRANCH  24  29
ENDBRANCH  14  17
ENDBRANCH  10  13
ENDBRANCH   7  10
ENDBRANCH   4   7
ENDBRANCH   1   4
BRANCH   1  31
ATOM     31  C   UNL A   1      31.272  32.299  26.491  1.00  0.00    -0.036 C 
ATOM     32  H   UNL A   1      30.414  32.348  27.127  1.00  0.00     0.028 H 
ATOM     33  H   UNL A   1      31.179  32.912  25.619  1.00  0.00     0.028 H 
BRANCH  31  34
ATOM     34  C   UNL A   1      32.474  32.825  27.269  1.00  0.00     0.018 C 
ATOM     35  H   UNL A   1      33.354  32.701  26.673  1.00  0.00     0.049 H 
ATOM     36  H   UNL A   1      32.548  32.272  28.182  1.00  0.00     0.049 H 
BRANCH  34  37
ATOM     37  N   UNL A   1      32.325  34.232  27.603  1.00  0.00    -0.352 N 
ATOM     38  C   UNL A   1      32.957  34.968  28.572  1.00  0.00     0.251 C 
ATOM     39  H   UNL A   1      31.676  34.729  27.053  1.00  0.00     0.163 HD
ATOM     40  O   UNL A   1      32.549  36.087  28.865  1.00  0.00    -0.269 OA
BRANCH  38  41
ATOM     41  C   UNL A   1      34.130  34.406  29.276  1.00  0.00     0.039 A 
ATOM     42  C   UNL A   1      33.935  33.746  30.492  1.00  0.00    -0.049 A 
ATOM     43  C   UNL A   1      35.417  34.553  28.752  1.00  0.00    -0.049 A 
ATOM     44  C   UNL A   1      35.029  33.186  31.157  1.00  0.00    -0.053 A 
ATOM     45  H   UNL A   1      32.989  33.672  30.896  1.00  0.00     0.063 H 
ATOM     46  C   UNL A   1      36.495  33.936  29.380  1.00  0.00    -0.053 A 
ATOM     47  H   UNL A   1      35.568  35.116  27.901  1.00  0.00     0.063 H 
ATOM     48  C   UNL A   1      36.313  33.253  30.592  1.00  0.00    -0.014 A 
ATOM     49  H   UNL A   1      34.891  32.720  32.068  1.00  0.00     0.063 H 
ATOM     50  H   UNL A   1      37.433  33.983  28.953  1.00  0.00     0.063 H 
BRANCH  48  51
ATOM     51  C   UNL A   1      37.479  32.619  31.258  1.00  0.00     0.031 A 
ATOM     52  C   UNL A   1      38.206  31.488  30.586  1.00  0.00     0.074 A 
ATOM     53  C   UNL A   1      37.840  33.021  32.492  1.00  0.00     0.049 A 
ATOM     54  N   UNL A   1      39.198  30.760  31.035  1.00  0.00    -0.248 NA
ATOM     55  C   UNL A   1      37.744  31.108  29.243  1.00  0.00    -0.034 C 
ATOM     56  C   UNL A   1      37.184  34.079  33.262  1.00  0.00    -0.036 A 
ATOM     57  N   UNL A   1      38.841  32.579  33.320  1.00  0.00    -0.354 N 
ATOM     58  C   UNL A   1      39.462  29.827  30.040  1.00  0.00     0.074 A 
ATOM     59  C   UNL A   1      38.499  30.051  28.983  1.00  0.00    -0.034 C 
ATOM     60  H   UNL A   1      37.019  31.549  28.654  1.00  0.00     0.065 H 
ATOM     61  C   UNL A   1      37.812  34.217  34.441  1.00  0.00    -0.036 A 
ATOM     62  H   UNL A   1      36.370  34.629  32.949  1.00  0.00     0.065 H 
ATOM     63  C   UNL A   1      38.889  33.234  34.525  1.00  0.00     0.049 A 
ATOM     64  H   UNL A   1      39.466  31.859  33.073  1.00  0.00     0.167 HD
ATOM     65  C   UNL A   1      40.435  28.886  30.002  1.00  0.00     0.037 A 
ATOM     66  H   UNL A   1      38.411  29.462  28.140  1.00  0.00     0.065 H 
ATOM     67  H   UNL A   1      37.572  34.907  35.170  1.00  0.00     0.065 H 
ATOM     68  C   UNL A   1      39.704  33.058  35.583  1.00  0.00     0.037 A 
ATOM     69  C   UNL A   1      41.412  28.690  31.041  1.00  0.00     0.049 A 
ATOM     70  C   UNL A   1      40.774  32.002  35.513  1.00  0.00     0.074 A 
ATOM     71  C   UNL A   1      42.479  27.809  31.067  1.00  0.00    -0.036 A 
ATOM     72  N   UNL A   1      41.441  29.387  32.239  1.00  0.00    -0.354 N 
ATOM     73  N   UNL A   1      41.059  31.174  34.537  1.00  0.00    -0.248 NA
ATOM     74  C   UNL A   1      41.642  31.861  36.691  1.00  0.00    -0.034 C 
ATOM     75  C   UNL A   1      43.124  27.940  32.300  1.00  0.00    -0.036 A 
ATOM     76  H   UNL A   1      42.750  27.166  30.307  1.00  0.00     0.065 H 
ATOM     77  C   UNL A   1      42.492  28.940  33.021  1.00  0.00     0.049 A 
ATOM     78  H   UNL A   1      40.807  30.096  32.496  1.00  0.00     0.167 HD
ATOM     79  C   UNL A   1      42.155  30.438  34.969  1.00  0.00     0.074 A 
ATOM     80  C   UNL A   1      42.492  30.927  36.289  1.00  0.00    -0.034 C 
ATOM     81  H   UNL A   1      41.599  32.357  37.594  1.00  0.00     0.065 H 
ATOM     82  H   UNL A   1      43.935  27.386  32.618  1.00  0.00     0.065 H 
ATOM     83  C   UNL A   1      42.822  29.447  34.328  1.00  0.00     0.037 A 
ATOM     84  H   UNL A   1      43.293  30.590  36.847  1.00  0.00     0.065 H 
BRANCH  65  85
ATOM     85  C   UNL A   1      40.498  27.995  28.795  1.00  0.00     0.064 A 
ATOM     86  C   UNL A   1      41.269  28.330  27.672  1.00  0.00     0.173 A 
ATOM     87  C   UNL A   1      39.821  26.766  28.784  1.00  0.00     0.173 A 
ATOM     88  F   UNL A   1      41.927  29.497  27.628  1.00  0.00    -0.203 F 
ATOM     89  C   UNL A   1      41.339  27.479  26.571  1.00  0.00     0.198 A 
ATOM     90  C   UNL A   1      39.917  25.904  27.693  1.00  0.00     0.198 A 
ATOM     91  F   UNL A   1      39.074  26.394  29.834  1.00  0.00    -0.203 F 
ATOM     92  F   UNL A   1      42.047  27.840  25.492  1.00  0.00    -0.200 F 
ATOM     93  C   UNL A   1      40.671  26.265  26.587  1.00  0.00     0.200 A 
ATOM     94  F   UNL A   1      39.281  24.725  27.716  1.00  0.00    -0.200 F 
ATOM     95  F   UNL A   1      40.749  25.441  25.532  1.00  0.00    -0.200 F 
ENDBRANCH  65  85
BRANCH  68  96
ATOM     96  C   UNL A   1      39.559  33.912  36.789  1.00  0.00     0.064 A 
ATOM     97  C   UNL A   1      40.193  35.160  36.867  1.00  0.00     0.173 A 
ATOM     98  C   UNL A   1      38.800  33.497  37.893  1.00  0.00     0.173 A 
ATOM     99  F   UNL A   1      40.946  35.593  35.844  1.00  0.00    -0.203 F 
ATOM    100  C   UNL A   1      40.097  35.948  38.013  1.00  0.00     0.198 A 
ATOM    101  C   UNL A   1      38.680  34.298  39.027  1.00  0.00     0.198 A 
ATOM    102  F   UNL A   1      38.169  32.314  37.868  1.00  0.00    -0.203 F 
ATOM    103  F   UNL A   1      40.755  37.112  38.079  1.00  0.00    -0.200 F 
ATOM    104  C   UNL A   1      39.336  35.519  39.089  1.00  0.00     0.200 A 
ATOM    105  F   UNL A   1      37.932  33.886  40.059  1.00  0.00    -0.200 F 
ATOM    106  F   UNL A   1      39.244  36.275  40.191  1.00  0.00    -0.200 F 
ENDBRANCH  68  96
BRANCH  83 107
ATOM    107  C   UNL A   1      44.008  28.853  35.029  1.00  0.00     0.064 A 
ATOM    108  C   UNL A   1      43.881  27.751  35.888  1.00  0.00     0.173 A 
ATOM    109  C   UNL A   1      45.294  29.368  34.805  1.00  0.00     0.173 A 
ATOM    110  F   UNL A   1      42.671  27.233  36.147  1.00  0.00    -0.203 F 
ATOM    111  C   UNL A   1      44.996  27.204  36.518  1.00  0.00     0.198 A 
ATOM    112  C   UNL A   1      46.410  28.798  35.411  1.00  0.00     0.198 A 
ATOM    113  F   UNL A   1      45.470  30.416  33.986  1.00  0.00    -0.203 F 
ATOM    114  F   UNL A   1      44.846  26.182  37.373  1.00  0.00    -0.200 F 
ATOM    115  C   UNL A   1      46.260  27.723  36.274  1.00  0.00     0.200 A 
ATOM    116  F   UNL A   1      47.631  29.291  35.164  1.00  0.00    -0.200 F 
ATOM    117  F   UNL A   1      47.332  27.188  36.874  1.00  0.00    -0.200 F 
ENDBRANCH  83 107
ENDBRANCH  48  51
ENDBRANCH  38  41
ENDBRANCH  34  37
ENDBRANCH  31  34
ENDBRANCH   1  31
TORSDOF 15
ENDMDL
MODEL 2
REMARK VINA RESULT:     -11.9      0.192      1.660
REMARK SMILES Nc1ccc(O)c(C(=O)NCCCCCCNC(=O)c2ccc(-c3c4nc(c(-c5c(F)c(F)c(F)c(F)c5F)c5ccc([nH]5)c(-c5c(F)c(F)c(F)c(F)c5F)c5nc(c(-c6c(F)c(F)c(F)c(F)c6F)c6ccc3[nH]6)C=C5)C=C4)cc2)c1
REMARK SMILES IDX 14 1 13 4 12 7 11 10 10 13 8 14 9 15 7 17 2 18 3 19 83 20
REMARK SMILES IDX 4 21 5 24 1 26 6 29 15 31 16 34 17 37 18 38 19 40 20 41
REMARK SMILES IDX 21 42 82 43 22 44 81 46 23 48 24 51 25 52 75 53 26 54 80 55
REMARK SMILES IDX 74 56 76 57 27 58 79 59 73 61 72 63 28 65 60 68 40 69 59 70
REMARK SMILES IDX 41 71 44 72 58 73 77 74 42 75 43 77 57 79 78 80 45 83 29 85
REMARK SMILES IDX 30 86 38 87 31 88 32 89 36 90 39 91 33 92 34 93 37 94 35 95
REMARK SMILES IDX 61 96 62 97 70 98 63 99 64 100 68 101 71 102 65 103 66 104
REMARK SMILES IDX 69 105 67 106 46 107 47 108 55 109 48 110 49 111 53 112
REMARK SMILES IDX 56 113 50 114 51 115 54 116 52 117
REMARK H PARENT 14 2 14 3 13 5 13 6 12 8 12 9 11 11 11 12 10 16 3 22 83 23
REMARK H PARENT 4 25 1 27 1 28 6 30 15 32 15 33 16 35 16 36 17 39 21 45 82 47
REMARK H PARENT 22 49 81 50 80 60 74 62 76 64 79 66 73 67 41 76 44 78 77 81
REMARK H PARENT 42 82 78 84
REMARK Flexibility Score: inf
ROOT
ATOM      1  C   UNL A   1      31.492  30.790  26.149  1.00  0.00    -0.052 C 
ATOM      2  H   UNL A   1      30.567  30.318  26.407  1.00  0.00     0.027 H 
ATOM      3  H   UNL A   1      31.711  30.748  25.102  1.00  0.00     0.027 H 
ENDROOT
BRANCH   1   4
ATOM      4  C   UNL A   1      32.626  30.035  26.855  1.00  0.00    -0.052 C 
ATOM      5  H   UNL A   1      33.557  30.406  26.478  1.00  0.00     0.027 H 
ATOM      6  H   UNL A   1      32.495  30.209  27.903  1.00  0.00     0.027 H 
BRANCH   4   7
ATOM      7  C   UNL A   1      32.607  28.511  26.665  1.00  0.00    -0.036 C 
ATOM      8  H   UNL A   1      33.509  28.218  26.169  1.00  0.00     0.028 H 
ATOM      9  H   UNL A   1      32.523  28.069  27.636  1.00  0.00     0.028 H 
BRANCH   7  10
ATOM     10  C   UNL A   1      31.415  28.023  25.837  1.00  0.00     0.018 C 
ATOM     11  H   UNL A   1      30.943  27.206  26.341  1.00  0.00     0.049 H 
ATOM     12  H   UNL A   1      30.716  28.825  25.719  1.00  0.00     0.049 H 
BRANCH  10  13
ATOM     13  N   UNL A   1      31.869  27.588  24.532  1.00  0.00    -0.352 N 
ATOM     14  C   UNL A   1      31.349  27.661  23.268  1.00  0.00     0.255 C 
ATOM     15  O   UNL A   1      32.020  27.145  22.369  1.00  0.00    -0.269 OA
ATOM     16  H   UNL A   1      32.746  27.142  24.561  1.00  0.00     0.163 HD
BRANCH  14  17
ATOM     17  C   UNL A   1      30.092  28.367  22.887  1.00  0.00     0.083 A 
ATOM     18  C   UNL A   1      27.673  28.716  22.956  1.00  0.00     0.032 A 
ATOM     19  C   UNL A   1      27.816  29.865  22.180  1.00  0.00    -0.035 A 
ATOM     20  C   UNL A   1      28.805  27.935  23.231  1.00  0.00    -0.023 A 
ATOM     21  C   UNL A   1      29.077  30.274  21.751  1.00  0.00    -0.017 A 
ATOM     22  H   UNL A   1      26.983  30.417  21.922  1.00  0.00     0.065 H 
ATOM     23  H   UNL A   1      28.687  27.023  23.700  1.00  0.00     0.065 H 
ATOM     24  C   UNL A   1      30.201  29.537  22.111  1.00  0.00     0.128 A 
ATOM     25  H   UNL A   1      29.176  31.120  21.169  1.00  0.00     0.066 H 
BRANCH  18  26
ATOM     26  N   UNL A   1      26.410  28.283  23.334  1.00  0.00    -0.399 N 
ATOM     27  H   UNL A   1      26.080  28.464  24.244  1.00  0.00     0.156 HD
ATOM     28  H   UNL A   1      25.844  27.795  22.693  1.00  0.00     0.156 HD
ENDBRANCH  18  26
BRANCH  24  29
ATOM     29  O   UNL A   1      31.394  30.029  21.644  1.00  0.00    -0.507 OA
ATOM     30  H   UNL A   1      32.147  30.040  22.203  1.00  0.00     0.293 HD
ENDBRANCH  24  29
ENDBRANCH  14  17
ENDBRANCH  10  13
ENDBRANCH   7  10
ENDBRANCH   4   7
ENDBRANCH   1   4
BRANCH   1  31
ATOM     31  C   UNL A   1      31.384  32.274  26.505  1.00  0.00    -0.036 C 
ATOM     32  H   UNL A   1      30.522  32.408  27.125  1.00  0.00     0.028 H 
ATOM     33  H   UNL A   1      31.317  32.808  25.580  1.00  0.00     0.028 H 
BRANCH  31  34
ATOM     34  C   UNL A   1      32.595  32.832  27.246  1.00  0.00     0.018 C 
ATOM     35  H   UNL A   1      33.454  32.754  26.613  1.00  0.00     0.049 H 
ATOM     36  H   UNL A   1      32.726  32.266  28.144  1.00  0.00     0.049 H 
BRANCH  34  37
ATOM     37  N   UNL A   1      32.406  34.226  27.613  1.00  0.00    -0.352 N 
ATOM     38  C   UNL A   1      32.995  34.949  28.619  1.00  0.00     0.251 C 
ATOM     39  H   UNL A   1      31.761  34.725  27.060  1.00  0.00     0.163 HD
ATOM     40  O   UNL A   1      32.555  36.051  28.931  1.00  0.00    -0.269 OA
BRANCH  38  41
ATOM     41  C   UNL A   1      34.161  34.393  29.339  1.00  0.00     0.039 A 
ATOM     42  C   UNL A   1      33.951  33.718  30.544  1.00  0.00    -0.049 A 
ATOM     43  C   UNL A   1      35.456  34.561  28.841  1.00  0.00    -0.049 A 
ATOM     44  C   UNL A   1      35.039  33.164  31.224  1.00  0.00    -0.053 A 
ATOM     45  H   UNL A   1      32.999  33.629  30.930  1.00  0.00     0.063 H 
ATOM     46  C   UNL A   1      36.529  33.949  29.483  1.00  0.00    -0.053 A 
ATOM     47  H   UNL A   1      35.616  35.134  27.998  1.00  0.00     0.063 H 
ATOM     48  C   UNL A   1      36.332  33.251  30.684  1.00  0.00    -0.014 A 
ATOM     49  H   UNL A   1      34.890  32.687  32.127  1.00  0.00     0.063 H 
ATOM     50  H   UNL A   1      37.474  34.012  29.074  1.00  0.00     0.063 H 
BRANCH  48  51
ATOM     51  C   UNL A   1      37.493  32.624  31.365  1.00  0.00     0.031 A 
ATOM     52  C   UNL A   1      38.226  31.486  30.710  1.00  0.00     0.074 A 
ATOM     53  C   UNL A   1      37.845  33.038  32.597  1.00  0.00     0.049 A 
ATOM     54  N   UNL A   1      39.214  30.763  31.173  1.00  0.00    -0.248 NA
ATOM     55  C   UNL A   1      37.773  31.093  29.367  1.00  0.00    -0.034 C 
ATOM     56  C   UNL A   1      37.183  34.104  33.352  1.00  0.00    -0.036 A 
ATOM     57  N   UNL A   1      38.839  32.604  33.438  1.00  0.00    -0.354 N 
ATOM     58  C   UNL A   1      39.486  29.821  30.190  1.00  0.00     0.074 A 
ATOM     59  C   UNL A   1      38.530  30.034  29.124  1.00  0.00    -0.034 C 
ATOM     60  H   UNL A   1      37.053  31.529  28.769  1.00  0.00     0.065 H 
ATOM     61  C   UNL A   1      37.801  34.253  34.535  1.00  0.00    -0.036 A 
ATOM     62  H   UNL A   1      36.371  34.650  33.028  1.00  0.00     0.065 H 
ATOM     63  C   UNL A   1      38.877  33.271  34.637  1.00  0.00     0.049 A 
ATOM     64  H   UNL A   1      39.466  31.882  33.203  1.00  0.00     0.167 HD
ATOM     65  C   UNL A   1      40.459  28.879  30.169  1.00  0.00     0.037 A 
ATOM     66  H   UNL A   1      38.450  29.437  28.285  1.00  0.00     0.065 H 
ATOM     67  H   UNL A   1      37.556  34.950  35.255  1.00  0.00     0.065 H 
ATOM     68  C   UNL A   1      39.685  33.105  35.702  1.00  0.00     0.037 A 
ATOM     69  C   UNL A   1      41.428  28.693  31.217  1.00  0.00     0.049 A 
ATOM     70  C   UNL A   1      40.755  32.048  35.651  1.00  0.00     0.074 A 
ATOM     71  C   UNL A   1      42.494  27.812  31.260  1.00  0.00    -0.036 A 
ATOM     72  N   UNL A   1      41.447  29.402  32.408  1.00  0.00    -0.354 N 
ATOM     73  N   UNL A   1      41.048  31.211  34.686  1.00  0.00    -0.248 NA
ATOM     74  C   UNL A   1      41.613  31.919  36.838  1.00  0.00    -0.034 C 
ATOM     75  C   UNL A   1      43.130  27.955  32.497  1.00  0.00    -0.036 A 
ATOM     76  H   UNL A   1      42.771  27.162  30.508  1.00  0.00     0.065 H 
ATOM     77  C   UNL A   1      42.492  28.962  33.203  1.00  0.00     0.049 A 
ATOM     78  H   UNL A   1      40.811  30.114  32.653  1.00  0.00     0.167 HD
ATOM     79  C   UNL A   1      42.140  30.480  35.133  1.00  0.00     0.074 A 
ATOM     80  C   UNL A   1      42.467  30.981  36.451  1.00  0.00    -0.034 C 
ATOM     81  H   UNL A   1      41.564  32.424  37.735  1.00  0.00     0.065 H 
ATOM     82  H   UNL A   1      43.938  27.405  32.827  1.00  0.00     0.065 H 
ATOM     83  C   UNL A   1      42.811  29.482  34.508  1.00  0.00     0.037 A 
ATOM     84  H   UNL A   1      43.263  30.650  37.018  1.00  0.00     0.065 H 
BRANCH  65  85
ATOM     85  C   UNL A   1      40.531  27.976  28.971  1.00  0.00     0.064 A 
ATOM     86  C   UNL A   1      39.789  26.788  28.899  1.00  0.00     0.173 A 
ATOM     87  C   UNL A   1      41.312  28.330  27.861  1.00  0.00     0.173 A 
ATOM     88  F   UNL A   1      39.035  26.398  29.938  1.00  0.00    -0.203 F 
ATOM     89  C   UNL A   1      39.845  25.974  27.770  1.00  0.00     0.198 A 
ATOM     90  C   UNL A   1      41.343  27.530  26.721  1.00  0.00     0.198 A 
ATOM     91  F   UNL A   1      42.037  29.458  27.875  1.00  0.00    -0.203 F 
ATOM     92  F   UNL A   1      39.161  24.822  27.741  1.00  0.00    -0.200 F 
ATOM     93  C   UNL A   1      40.614  26.350  26.679  1.00  0.00     0.200 A 
ATOM     94  F   UNL A   1      42.077  27.902  25.663  1.00  0.00    -0.200 F 
ATOM     95  F   UNL A   1      40.658  25.574  25.587  1.00  0.00    -0.200 F 
ENDBRANCH  65  85
BRANCH  68  96
ATOM     96  C   UNL A   1      39.530  33.971  36.899  1.00  0.00     0.064 A 
ATOM     97  C   UNL A   1      40.159  35.223  36.968  1.00  0.00     0.173 A 
ATOM     98  C   UNL A   1      38.768  33.564  38.004  1.00  0.00     0.173 A 
ATOM     99  F   UNL A   1      40.914  35.648  35.944  1.00  0.00    -0.203 F 
ATOM    100  C   UNL A   1      40.053  36.021  38.104  1.00  0.00     0.198 A 
ATOM    101  C   UNL A   1      38.639  34.376  39.128  1.00  0.00     0.198 A 
ATOM    102  F   UNL A   1      38.142  32.378  37.988  1.00  0.00    -0.203 F 
ATOM    103  F   UNL A   1      40.707  37.189  38.161  1.00  0.00    -0.200 F 
ATOM    104  C   UNL A   1      39.290  35.600  39.182  1.00  0.00     0.200 A 
ATOM    105  F   UNL A   1      37.888  33.972  40.162  1.00  0.00    -0.200 F 
ATOM    106  F   UNL A   1      39.189  36.368  40.275  1.00  0.00    -0.200 F 
ENDBRANCH  68  96
BRANCH  83 107
ATOM    107  C   UNL A   1      43.993  28.894  35.223  1.00  0.00     0.064 A 
ATOM    108  C   UNL A   1      45.287  29.408  35.054  1.00  0.00     0.173 A 
ATOM    109  C   UNL A   1      43.819  27.830  36.120  1.00  0.00     0.173 A 
ATOM    110  F   UNL A   1      45.507  30.415  34.196  1.00  0.00    -0.203 F 
ATOM    111  C   UNL A   1      46.369  28.859  35.738  1.00  0.00     0.198 A 
ATOM    112  C   UNL A   1      44.898  27.304  36.826  1.00  0.00     0.198 A 
ATOM    113  F   UNL A   1      42.600  27.307  36.324  1.00  0.00    -0.203 F 
ATOM    114  F   UNL A   1      47.604  29.333  35.525  1.00  0.00    -0.200 F 
ATOM    115  C   UNL A   1      46.172  27.813  36.629  1.00  0.00     0.200 A 
ATOM    116  F   UNL A   1      44.704  26.303  37.696  1.00  0.00    -0.200 F 
ATOM    117  F   UNL A   1      47.214  27.292  37.292  1.00  0.00    -0.200 F 
ENDBRANCH  83 107
ENDBRANCH  48  51
ENDBRANCH  38  41
ENDBRANCH  34  37
ENDBRANCH  31  34
ENDBRANCH   1  31
TORSDOF 15
ENDMDL
MODEL 3
REMARK VINA RESULT:     -11.8      0.156      1.656
REMARK SMILES Nc1ccc(O)c(C(=O)NCCCCCCNC(=O)c2ccc(-c3c4nc(c(-c5c(F)c(F)c(F)c(F)c5F)c5ccc([nH]5)c(-c5c(F)c(F)c(F)c(F)c5F)c5nc(c(-c6c(F)c(F)c(F)c(F)c6F)c6ccc3[nH]6)C=C5)C=C4)cc2)c1
REMARK SMILES IDX 14 1 13 4 12 7 11 10 10 13 8 14 9 15 7 17 2 18 3 19 83 20
REMARK SMILES IDX 4 21 5 24 1 26 6 29 15 31 16 34 17 37 18 38 19 40 20 41
REMARK SMILES IDX 21 42 82 43 22 44 81 46 23 48 24 51 25 52 75 53 26 54 80 55
REMARK SMILES IDX 74 56 76 57 27 58 79 59 73 61 72 63 28 65 60 68 40 69 59 70
REMARK SMILES IDX 41 71 44 72 58 73 77 74 42 75 43 77 57 79 78 80 45 83 29 85
REMARK SMILES IDX 30 86 38 87 31 88 32 89 36 90 39 91 33 92 34 93 37 94 35 95
REMARK SMILES IDX 61 96 62 97 70 98 63 99 64 100 68 101 71 102 65 103 66 104
REMARK SMILES IDX 69 105 67 106 46 107 47 108 55 109 48 110 49 111 53 112
REMARK SMILES IDX 56 113 50 114 51 115 54 116 52 117
REMARK H PARENT 14 2 14 3 13 5 13 6 12 8 12 9 11 11 11 12 10 16 3 22 83 23
REMARK H PARENT 4 25 1 27 1 28 6 30 15 32 15 33 16 35 16 36 17 39 21 45 82 47
REMARK H PARENT 22 49 81 50 80 60 74 62 76 64 79 66 73 67 41 76 44 78 77 81
REMARK H PARENT 42 82 78 84
REMARK Flexibility Score: inf
ROOT
ATOM      1  C   UNL A   1      31.494  30.809  26.088  1.00  0.00    -0.052 C 
ATOM      2  H   UNL A   1      30.621  30.285  26.416  1.00  0.00     0.027 H 
ATOM      3  H   UNL A   1      31.608  30.818  25.024  1.00  0.00     0.027 H 
ENDROOT
BRANCH   1   4
ATOM      4  C   UNL A   1      32.725  30.081  26.645  1.00  0.00    -0.052 C 
ATOM      5  H   UNL A   1      33.580  30.705  26.487  1.00  0.00     0.027 H 
ATOM      6  H   UNL A   1      32.521  29.897  27.680  1.00  0.00     0.027 H 
BRANCH   4   7
ATOM      7  C   UNL A   1      33.009  28.711  26.011  1.00  0.00    -0.036 C 
ATOM      8  H   UNL A   1      33.656  28.852  25.171  1.00  0.00     0.028 H 
ATOM      9  H   UNL A   1      33.459  28.098  26.765  1.00  0.00     0.028 H 
BRANCH   7  10
ATOM     10  C   UNL A   1      31.743  27.994  25.536  1.00  0.00     0.018 C 
ATOM     11  H   UNL A   1      31.499  27.210  26.221  1.00  0.00     0.049 H 
ATOM     12  H   UNL A   1      30.935  28.696  25.492  1.00  0.00     0.049 H 
BRANCH  10  13
ATOM     13  N   UNL A   1      31.962  27.433  24.218  1.00  0.00    -0.352 N 
ATOM     14  C   UNL A   1      31.267  27.468  23.040  1.00  0.00     0.255 C 
ATOM     15  O   UNL A   1      31.754  26.833  22.098  1.00  0.00    -0.269 OA
ATOM     16  H   UNL A   1      32.795  26.913  24.157  1.00  0.00     0.163 HD
BRANCH  14  17
ATOM     17  C   UNL A   1      30.027  28.256  22.786  1.00  0.00     0.083 A 
ATOM     18  C   UNL A   1      27.630  28.690  22.997  1.00  0.00     0.032 A 
ATOM     19  C   UNL A   1      27.791  29.905  22.333  1.00  0.00    -0.035 A 
ATOM     20  C   UNL A   1      28.737  27.843  23.144  1.00  0.00    -0.023 A 
ATOM     21  C   UNL A   1      29.049  30.305  21.890  1.00  0.00    -0.017 A 
ATOM     22  H   UNL A   1      26.972  30.512  22.168  1.00  0.00     0.065 H 
ATOM     23  H   UNL A   1      28.600  26.893  23.524  1.00  0.00     0.065 H 
ATOM     24  C   UNL A   1      30.155  29.494  22.125  1.00  0.00     0.128 A 
ATOM     25  H   UNL A   1      29.161  31.201  21.390  1.00  0.00     0.066 H 
BRANCH  18  26
ATOM     26  N   UNL A   1      26.366  28.271  23.387  1.00  0.00    -0.399 N 
ATOM     27  H   UNL A   1      26.215  27.953  24.306  1.00  0.00     0.156 HD
ATOM     28  H   UNL A   1      25.620  28.291  22.744  1.00  0.00     0.156 HD
ENDBRANCH  18  26
BRANCH  24  29
ATOM     29  O   UNL A   1      31.348  29.983  21.657  1.00  0.00    -0.507 OA
ATOM     30  H   UNL A   1      31.947  30.401  22.245  1.00  0.00     0.293 HD
ENDBRANCH  24  29
ENDBRANCH  14  17
ENDBRANCH  10  13
ENDBRANCH   7  10
ENDBRANCH   4   7
ENDBRANCH   1   4
BRANCH   1  31
ATOM     31  C   UNL A   1      31.360  32.272  26.517  1.00  0.00    -0.036 C 
ATOM     32  H   UNL A   1      30.510  32.356  27.161  1.00  0.00     0.028 H 
ATOM     33  H   UNL A   1      31.259  32.847  25.619  1.00  0.00     0.028 H 
BRANCH  31  34
ATOM     34  C   UNL A   1      32.575  32.824  27.255  1.00  0.00     0.018 C 
ATOM     35  H   UNL A   1      33.433  32.742  26.622  1.00  0.00     0.049 H 
ATOM     36  H   UNL A   1      32.705  32.257  28.154  1.00  0.00     0.049 H 
BRANCH  34  37
ATOM     37  N   UNL A   1      32.393  34.219  27.623  1.00  0.00    -0.352 N 
ATOM     38  C   UNL A   1      32.999  34.943  28.619  1.00  0.00     0.251 C 
ATOM     39  H   UNL A   1      31.741  34.717  27.079  1.00  0.00     0.163 HD
ATOM     40  O   UNL A   1      32.565  36.045  28.936  1.00  0.00    -0.269 OA
BRANCH  38  41
ATOM     41  C   UNL A   1      34.174  34.386  29.323  1.00  0.00     0.039 A 
ATOM     42  C   UNL A   1      33.974  33.632  30.482  1.00  0.00    -0.049 A 
ATOM     43  C   UNL A   1      35.469  34.629  28.855  1.00  0.00    -0.049 A 
ATOM     44  C   UNL A   1      35.071  33.077  31.144  1.00  0.00    -0.053 A 
ATOM     45  H   UNL A   1      33.020  33.487  30.847  1.00  0.00     0.063 H 
ATOM     46  C   UNL A   1      36.556  34.019  29.476  1.00  0.00    -0.053 A 
ATOM     47  H   UNL A   1      35.619  35.258  28.051  1.00  0.00     0.063 H 
ATOM     48  C   UNL A   1      36.368  33.243  30.630  1.00  0.00    -0.014 A 
ATOM     49  H   UNL A   1      34.928  32.542  32.015  1.00  0.00     0.063 H 
ATOM     50  H   UNL A   1      37.503  34.139  29.087  1.00  0.00     0.063 H 
BRANCH  48  51
ATOM     51  C   UNL A   1      37.542  32.618  31.290  1.00  0.00     0.031 A 
ATOM     52  C   UNL A   1      38.274  31.492  30.615  1.00  0.00     0.074 A 
ATOM     53  C   UNL A   1      37.906  33.023  32.522  1.00  0.00     0.049 A 
ATOM     54  N   UNL A   1      39.273  30.771  31.059  1.00  0.00    -0.248 NA
ATOM     55  C   UNL A   1      37.808  31.108  29.274  1.00  0.00    -0.034 C 
ATOM     56  C   UNL A   1      37.246  34.076  33.296  1.00  0.00    -0.036 A 
ATOM     57  N   UNL A   1      38.914  32.587  33.346  1.00  0.00    -0.354 N 
ATOM     58  C   UNL A   1      39.539  29.840  30.063  1.00  0.00     0.074 A 
ATOM     59  C   UNL A   1      38.569  30.057  29.011  1.00  0.00    -0.034 C 
ATOM     60  H   UNL A   1      37.077  31.545  28.689  1.00  0.00     0.065 H 
ATOM     61  C   UNL A   1      37.878  34.218  34.472  1.00  0.00    -0.036 A 
ATOM     62  H   UNL A   1      36.426  34.620  32.987  1.00  0.00     0.065 H 
ATOM     63  C   UNL A   1      38.963  33.243  34.551  1.00  0.00     0.049 A 
ATOM     64  H   UNL A   1      39.543  31.872  33.096  1.00  0.00     0.167 HD
ATOM     65  C   UNL A   1      40.519  28.906  30.021  1.00  0.00     0.037 A 
ATOM     66  H   UNL A   1      38.482  29.468  28.168  1.00  0.00     0.065 H 
ATOM     67  H   UNL A   1      37.637  34.907  35.202  1.00  0.00     0.065 H 
ATOM     68  C   UNL A   1      39.785  33.072  35.605  1.00  0.00     0.037 A 
ATOM     69  C   UNL A   1      41.502  28.717  31.055  1.00  0.00     0.049 A 
ATOM     70  C   UNL A   1      40.862  32.024  35.530  1.00  0.00     0.074 A 
ATOM     71  C   UNL A   1      42.575  27.844  31.076  1.00  0.00    -0.036 A 
ATOM     72  N   UNL A   1      41.531  29.415  32.253  1.00  0.00    -0.354 N 
ATOM     73  N   UNL A   1      41.148  31.199  34.553  1.00  0.00    -0.248 NA
ATOM     74  C   UNL A   1      41.736  31.889  36.704  1.00  0.00    -0.034 C 
ATOM     75  C   UNL A   1      43.225  27.979  32.306  1.00  0.00    -0.036 A 
ATOM     76  H   UNL A   1      42.848  27.202  30.314  1.00  0.00     0.065 H 
ATOM     77  C   UNL A   1      42.589  28.974  33.030  1.00  0.00     0.049 A 
ATOM     78  H   UNL A   1      40.893  30.119  32.512  1.00  0.00     0.167 HD
ATOM     79  C   UNL A   1      42.251  30.471  34.979  1.00  0.00     0.074 A 
ATOM     80  C   UNL A   1      42.591  30.961  36.298  1.00  0.00    -0.034 C 
ATOM     81  H   UNL A   1      41.694  32.386  37.607  1.00  0.00     0.065 H 
ATOM     82  H   UNL A   1      44.042  27.431  32.620  1.00  0.00     0.065 H 
ATOM     83  C   UNL A   1      42.921  29.484  34.335  1.00  0.00     0.037 A 
ATOM     84  H   UNL A   1      43.396  30.631  36.852  1.00  0.00     0.065 H 
BRANCH  65  85
ATOM     85  C   UNL A   1      40.582  28.015  28.814  1.00  0.00     0.064 A 
ATOM     86  C   UNL A   1      39.862  26.813  28.747  1.00  0.00     0.173 A 
ATOM     87  C   UNL A   1      41.332  28.395  27.690  1.00  0.00     0.173 A 
ATOM     88  F   UNL A   1      39.139  26.400  29.798  1.00  0.00    -0.203 F 
ATOM     89  C   UNL A   1      39.909  26.011  27.609  1.00  0.00     0.198 A 
ATOM     90  C   UNL A   1      41.353  27.605  26.542  1.00  0.00     0.198 A 
ATOM     91  F   UNL A   1      42.034  29.537  27.698  1.00  0.00    -0.203 F 
ATOM     92  F   UNL A   1      39.248  24.846  27.584  1.00  0.00    -0.200 F 
ATOM     93  C   UNL A   1      40.647  26.412  26.505  1.00  0.00     0.200 A 
ATOM     94  F   UNL A   1      42.056  28.001  25.472  1.00  0.00    -0.200 F 
ATOM     95  F   UNL A   1      40.682  25.646  25.406  1.00  0.00    -0.200 F 
ENDBRANCH  65  85
BRANCH  68  96
ATOM     96  C   UNL A   1      39.638  33.926  36.812  1.00  0.00     0.064 A 
ATOM     97  C   UNL A   1      38.848  33.512  37.894  1.00  0.00     0.173 A 
ATOM     98  C   UNL A   1      40.267  35.177  36.905  1.00  0.00     0.173 A 
ATOM     99  F   UNL A   1      38.212  32.332  37.844  1.00  0.00    -0.203 F 
ATOM    100  C   UNL A   1      38.672  34.326  39.010  1.00  0.00     0.198 A 
ATOM    101  C   UNL A   1      40.113  35.977  38.034  1.00  0.00     0.198 A 
ATOM    102  F   UNL A   1      41.037  35.618  35.900  1.00  0.00    -0.203 F 
ATOM    103  F   UNL A   1      37.870  33.926  40.007  1.00  0.00    -0.200 F 
ATOM    104  C   UNL A   1      39.307  35.556  39.082  1.00  0.00     0.200 A 
ATOM    105  F   UNL A   1      40.741  37.159  38.106  1.00  0.00    -0.200 F 
ATOM    106  F   UNL A   1      39.137  36.338  40.156  1.00  0.00    -0.200 F 
ENDBRANCH  68  96
BRANCH  83 107
ATOM    107  C   UNL A   1      44.116  28.898  35.030  1.00  0.00     0.064 A 
ATOM    108  C   UNL A   1      44.007  27.770  35.857  1.00  0.00     0.173 A 
ATOM    109  C   UNL A   1      45.391  29.450  34.834  1.00  0.00     0.173 A 
ATOM    110  F   UNL A   1      42.808  27.216  36.090  1.00  0.00    -0.203 F 
ATOM    111  C   UNL A   1      45.129  27.231  36.482  1.00  0.00     0.198 A 
ATOM    112  C   UNL A   1      46.515  28.890  35.434  1.00  0.00     0.198 A 
ATOM    113  F   UNL A   1      45.549  30.524  34.046  1.00  0.00    -0.203 F 
ATOM    114  F   UNL A   1      44.995  26.183  37.306  1.00  0.00    -0.200 F 
ATOM    115  C   UNL A   1      46.382  27.787  36.265  1.00  0.00     0.200 A 
ATOM    116  F   UNL A   1      47.726  29.418  35.213  1.00  0.00    -0.200 F 
ATOM    117  F   UNL A   1      47.462  27.261  36.860  1.00  0.00    -0.200 F 
ENDBRANCH  83 107
ENDBRANCH  48  51
ENDBRANCH  38  41
ENDBRANCH  34  37
ENDBRANCH  31  34
ENDBRANCH   1  31
TORSDOF 15
ENDMDL
MODEL 4
REMARK VINA RESULT:     -11.7      4.329     10.281
REMARK SMILES Nc1ccc(O)c(C(=O)NCCCCCCNC(=O)c2ccc(-c3c4nc(c(-c5c(F)c(F)c(F)c(F)c5F)c5ccc([nH]5)c(-c5c(F)c(F)c(F)c(F)c5F)c5nc(c(-c6c(F)c(F)c(F)c(F)c6F)c6ccc3[nH]6)C=C5)C=C4)cc2)c1
REMARK SMILES IDX 14 1 13 4 12 7 11 10 10 13 8 14 9 15 7 17 2 18 3 19 83 20
REMARK SMILES IDX 4 21 5 24 1 26 6 29 15 31 16 34 17 37 18 38 19 40 20 41
REMARK SMILES IDX 21 42 82 43 22 44 81 46 23 48 24 51 25 52 75 53 26 54 80 55
REMARK SMILES IDX 74 56 76 57 27 58 79 59 73 61 72 63 28 65 60 68 40 69 59 70
REMARK SMILES IDX 41 71 44 72 58 73 77 74 42 75 43 77 57 79 78 80 45 83 29 85
REMARK SMILES IDX 30 86 38 87 31 88 32 89 36 90 39 91 33 92 34 93 37 94 35 95
REMARK SMILES IDX 61 96 62 97 70 98 63 99 64 100 68 101 71 102 65 103 66 104
REMARK SMILES IDX 69 105 67 106 46 107 47 108 55 109 48 110 49 111 53 112
REMARK SMILES IDX 56 113 50 114 51 115 54 116 52 117
REMARK H PARENT 14 2 14 3 13 5 13 6 12 8 12 9 11 11 11 12 10 16 3 22 83 23
REMARK H PARENT 4 25 1 27 1 28 6 30 15 32 15 33 16 35 16 36 17 39 21 45 82 47
REMARK H PARENT 22 49 81 50 80 60 74 62 76 64 79 66 73 67 41 76 44 78 77 81
REMARK H PARENT 42 82 78 84
REMARK Flexibility Score: inf
ROOT
ATOM      1  C   UNL A   1      36.996  33.336  28.750  1.00  0.00    -0.052 C 
ATOM      2  H   UNL A   1      37.649  32.751  28.138  1.00  0.00     0.027 H 
ATOM      3  H   UNL A   1      37.212  34.384  28.719  1.00  0.00     0.027 H 
ENDROOT
BRANCH   1   4
ATOM      4  C   UNL A   1      37.191  32.901  30.208  1.00  0.00    -0.052 C 
ATOM      5  H   UNL A   1      36.241  32.592  30.592  1.00  0.00     0.027 H 
ATOM      6  H   UNL A   1      37.916  32.114  30.192  1.00  0.00     0.027 H 
BRANCH   4   7
ATOM      7  C   UNL A   1      37.753  33.987  31.139  1.00  0.00    -0.036 C 
ATOM      8  H   UNL A   1      38.820  33.906  31.151  1.00  0.00     0.028 H 
ATOM      9  H   UNL A   1      37.426  34.932  30.760  1.00  0.00     0.028 H 
BRANCH   7  10
ATOM     10  C   UNL A   1      37.240  33.869  32.577  1.00  0.00     0.018 C 
ATOM     11  H   UNL A   1      37.954  33.333  33.166  1.00  0.00     0.049 H 
ATOM     12  H   UNL A   1      37.102  34.850  32.984  1.00  0.00     0.049 H 
BRANCH  10  13
ATOM     13  N   UNL A   1      35.975  33.163  32.591  1.00  0.00    -0.352 N 
ATOM     14  C   UNL A   1      34.671  33.541  32.421  1.00  0.00     0.255 C 
ATOM     15  O   UNL A   1      33.823  32.648  32.529  1.00  0.00    -0.269 OA
ATOM     16  H   UNL A   1      36.077  32.198  32.758  1.00  0.00     0.163 HD
BRANCH  14  17
ATOM     17  C   UNL A   1      34.204  34.908  32.052  1.00  0.00     0.083 A 
ATOM     18  C   UNL A   1      33.223  36.545  30.523  1.00  0.00     0.032 A 
ATOM     19  C   UNL A   1      33.251  37.505  31.532  1.00  0.00    -0.035 A 
ATOM     20  C   UNL A   1      33.776  35.280  30.771  1.00  0.00    -0.023 A 
ATOM     21  C   UNL A   1      33.748  37.188  32.794  1.00  0.00    -0.017 A 
ATOM     22  H   UNL A   1      32.900  38.457  31.345  1.00  0.00     0.065 H 
ATOM     23  H   UNL A   1      33.869  34.608  29.993  1.00  0.00     0.065 H 
ATOM     24  C   UNL A   1      34.209  35.900  33.051  1.00  0.00     0.128 A 
ATOM     25  H   UNL A   1      33.775  37.906  33.535  1.00  0.00     0.066 H 
BRANCH  18  26
ATOM     26  N   UNL A   1      32.778  36.882  29.252  1.00  0.00    -0.399 N 
ATOM     27  H   UNL A   1      33.312  37.488  28.689  1.00  0.00     0.156 HD
ATOM     28  H   UNL A   1      31.930  36.515  28.914  1.00  0.00     0.156 HD
ENDBRANCH  18  26
BRANCH  24  29
ATOM     29  O   UNL A   1      34.670  35.689  34.326  1.00  0.00    -0.507 OA
ATOM     30  H   UNL A   1      35.070  36.391  34.802  1.00  0.00     0.293 HD
ENDBRANCH  24  29
ENDBRANCH  14  17
ENDBRANCH  10  13
ENDBRANCH   7  10
ENDBRANCH   4   7
ENDBRANCH   1   4
BRANCH   1  31
ATOM     31  C   UNL A   1      35.572  33.177  28.213  1.00  0.00    -0.036 C 
ATOM     32  H   UNL A   1      35.626  32.711  27.252  1.00  0.00     0.028 H 
ATOM     33  H   UNL A   1      35.146  34.158  28.175  1.00  0.00     0.028 H 
BRANCH  31  34
ATOM     34  C   UNL A   1      34.656  32.338  29.099  1.00  0.00     0.018 C 
ATOM     35  H   UNL A   1      33.864  32.957  29.463  1.00  0.00     0.049 H 
ATOM     36  H   UNL A   1      35.241  31.948  29.906  1.00  0.00     0.049 H 
BRANCH  34  37
ATOM     37  N   UNL A   1      34.083  31.217  28.372  1.00  0.00    -0.352 N 
ATOM     38  C   UNL A   1      34.703  30.113  27.845  1.00  0.00     0.251 C 
ATOM     39  H   UNL A   1      33.108  31.256  28.237  1.00  0.00     0.163 HD
ATOM     40  O   UNL A   1      34.104  29.377  27.068  1.00  0.00    -0.269 OA
BRANCH  38  41
ATOM     41  C   UNL A   1      36.105  29.813  28.208  1.00  0.00     0.039 A 
ATOM     42  C   UNL A   1      36.384  29.340  29.493  1.00  0.00    -0.049 A 
ATOM     43  C   UNL A   1      37.141  30.023  27.294  1.00  0.00    -0.049 A 
ATOM     44  C   UNL A   1      37.700  29.027  29.843  1.00  0.00    -0.053 A 
ATOM     45  H   UNL A   1      35.623  29.222  30.178  1.00  0.00     0.063 H 
ATOM     46  C   UNL A   1      38.441  29.646  27.621  1.00  0.00    -0.053 A 
ATOM     47  H   UNL A   1      36.943  30.454  26.378  1.00  0.00     0.063 H 
ATOM     48  C   UNL A   1      38.734  29.151  28.901  1.00  0.00    -0.014 A 
ATOM     49  H   UNL A   1      37.912  28.702  30.800  1.00  0.00     0.063 H 
ATOM     50  H   UNL A   1      39.192  29.732  26.920  1.00  0.00     0.063 H 
BRANCH  48  51
ATOM     51  C   UNL A   1      40.130  28.774  29.238  1.00  0.00     0.031 A 
ATOM     52  C   UNL A   1      40.986  29.707  30.049  1.00  0.00     0.074 A 
ATOM     53  C   UNL A   1      40.642  27.624  28.760  1.00  0.00     0.049 A 
ATOM     54  N   UNL A   1      42.247  29.592  30.384  1.00  0.00    -0.248 NA
ATOM     55  C   UNL A   1      40.350  30.945  30.525  1.00  0.00    -0.034 C 
ATOM     56  C   UNL A   1      39.923  26.659  27.928  1.00  0.00    -0.036 A 
ATOM     57  N   UNL A   1      41.894  27.077  28.898  1.00  0.00    -0.354 N 
ATOM     58  C   UNL A   1      42.557  30.746  31.091  1.00  0.00     0.074 A 
ATOM     59  C   UNL A   1      41.367  31.571  31.098  1.00  0.00    -0.034 C 
ATOM     60  H   UNL A   1      39.367  31.247  30.437  1.00  0.00     0.065 H 
ATOM     61  C   UNL A   1      40.738  25.630  27.645  1.00  0.00    -0.036 A 
ATOM     62  H   UNL A   1      38.947  26.756  27.608  1.00  0.00     0.065 H 
ATOM     63  C   UNL A   1      42.046  25.879  28.243  1.00  0.00     0.049 A 
ATOM     64  H   UNL A   1      42.614  27.503  29.416  1.00  0.00     0.167 HD
ATOM     65  C   UNL A   1      43.722  31.077  31.698  1.00  0.00     0.037 A 
ATOM     66  H   UNL A   1      41.320  32.522  31.497  1.00  0.00     0.065 H 
ATOM     67  H   UNL A   1      40.480  24.796  27.093  1.00  0.00     0.065 H 
ATOM     68  C   UNL A   1      43.122  25.076  28.133  1.00  0.00     0.037 A 
ATOM     69  C   UNL A   1      44.891  30.238  31.717  1.00  0.00     0.049 A 
ATOM     70  C   UNL A   1      44.403  25.472  28.816  1.00  0.00     0.074 A 
ATOM     71  C   UNL A   1      46.097  30.454  32.361  1.00  0.00    -0.036 A 
ATOM     72  N   UNL A   1      45.001  29.022  31.059  1.00  0.00    -0.354 N 
ATOM     73  N   UNL A   1      44.662  26.532  29.541  1.00  0.00    -0.248 NA
ATOM     74  C   UNL A   1      45.541  24.553  28.670  1.00  0.00    -0.034 C 
ATOM     75  C   UNL A   1      46.952  29.391  32.055  1.00  0.00    -0.036 A 
ATOM     76  H   UNL A   1      46.325  31.260  32.963  1.00  0.00     0.065 H 
ATOM     77  C   UNL A   1      46.262  28.487  31.263  1.00  0.00     0.049 A 
ATOM     78  H   UNL A   1      44.287  28.602  30.526  1.00  0.00     0.167 HD
ATOM     79  C   UNL A   1      45.978  26.393  29.964  1.00  0.00     0.074 A 
ATOM     80  C   UNL A   1      46.459  25.139  29.425  1.00  0.00    -0.034 C 
ATOM     81  H   UNL A   1      45.607  23.681  28.123  1.00  0.00     0.065 H 
ATOM     82  H   UNL A   1      47.931  29.295  32.367  1.00  0.00     0.065 H 
ATOM     83  C   UNL A   1      46.720  27.230  30.730  1.00  0.00     0.037 A 
ATOM     84  H   UNL A   1      47.398  24.751  29.606  1.00  0.00     0.065 H 
BRANCH  65  85
ATOM     85  C   UNL A   1      43.791  32.402  32.400  1.00  0.00     0.064 A 
ATOM     86  C   UNL A   1      43.448  32.537  33.754  1.00  0.00     0.173 A 
ATOM     87  C   UNL A   1      44.256  33.541  31.724  1.00  0.00     0.173 A 
ATOM     88  F   UNL A   1      42.987  31.483  34.443  1.00  0.00    -0.203 F 
ATOM     89  C   UNL A   1      43.544  33.769  34.398  1.00  0.00     0.198 A 
ATOM     90  C   UNL A   1      44.379  34.764  32.380  1.00  0.00     0.198 A 
ATOM     91  F   UNL A   1      44.603  33.466  30.431  1.00  0.00    -0.203 F 
ATOM     92  F   UNL A   1      43.169  33.883  35.680  1.00  0.00    -0.200 F 
ATOM     93  C   UNL A   1      44.018  34.877  33.714  1.00  0.00     0.200 A 
ATOM     94  F   UNL A   1      44.850  35.831  31.720  1.00  0.00    -0.200 F 
ATOM     95  F   UNL A   1      44.122  36.059  34.338  1.00  0.00    -0.200 F 
ENDBRANCH  65  85
BRANCH  68  96
ATOM     96  C   UNL A   1      43.031  23.808  27.364  1.00  0.00     0.064 A 
ATOM     97  C   UNL A   1      42.559  22.634  27.967  1.00  0.00     0.173 A 
ATOM     98  C   UNL A   1      43.428  23.737  26.021  1.00  0.00     0.173 A 
ATOM     99  F   UNL A   1      42.186  22.648  29.255  1.00  0.00    -0.203 F 
ATOM    100  C   UNL A   1      42.513  21.431  27.265  1.00  0.00     0.198 A 
ATOM    101  C   UNL A   1      43.354  22.541  25.311  1.00  0.00     0.198 A 
ATOM    102  F   UNL A   1      43.883  24.832  25.395  1.00  0.00    -0.203 F 
ATOM    103  F   UNL A   1      42.105  20.314  27.882  1.00  0.00    -0.200 F 
ATOM    104  C   UNL A   1      42.905  21.386  25.936  1.00  0.00     0.200 A 
ATOM    105  F   UNL A   1      43.721  22.504  24.023  1.00  0.00    -0.200 F 
ATOM    106  F   UNL A   1      42.860  20.230  25.261  1.00  0.00    -0.200 F 
ENDBRANCH  68  96
BRANCH  83 107
ATOM    107  C   UNL A   1      48.117  26.797  31.065  1.00  0.00     0.064 A 
ATOM    108  C   UNL A   1      49.220  27.212  30.304  1.00  0.00     0.173 A 
ATOM    109  C   UNL A   1      48.358  25.990  32.187  1.00  0.00     0.173 A 
ATOM    110  F   UNL A   1      49.040  27.972  29.213  1.00  0.00    -0.203 F 
ATOM    111  C   UNL A   1      50.511  26.812  30.640  1.00  0.00     0.198 A 
ATOM    112  C   UNL A   1      49.653  25.618  32.538  1.00  0.00     0.198 A 
ATOM    113  F   UNL A   1      47.338  25.572  32.952  1.00  0.00    -0.203 F 
ATOM    114  F   UNL A   1      51.545  27.181  29.871  1.00  0.00    -0.200 F 
ATOM    115  C   UNL A   1      50.727  26.022  31.760  1.00  0.00     0.200 A 
ATOM    116  F   UNL A   1      49.861  24.866  33.627  1.00  0.00    -0.200 F 
ATOM    117  F   UNL A   1      51.971  25.646  32.086  1.00  0.00    -0.200 F 
ENDBRANCH  83 107
ENDBRANCH  48  51
ENDBRANCH  38  41
ENDBRANCH  34  37
ENDBRANCH  31  34
ENDBRANCH   1  31
TORSDOF 15
ENDMDL
MODEL 5
REMARK VINA RESULT:     -11.6      0.675      7.508
REMARK SMILES Nc1ccc(O)c(C(=O)NCCCCCCNC(=O)c2ccc(-c3c4nc(c(-c5c(F)c(F)c(F)c(F)c5F)c5ccc([nH]5)c(-c5c(F)c(F)c(F)c(F)c5F)c5nc(c(-c6c(F)c(F)c(F)c(F)c6F)c6ccc3[nH]6)C=C5)C=C4)cc2)c1
REMARK SMILES IDX 14 1 13 4 12 7 11 10 10 13 8 14 9 15 7 17 2 18 3 19 83 20
REMARK SMILES IDX 4 21 5 24 1 26 6 29 15 31 16 34 17 37 18 38 19 40 20 41
REMARK SMILES IDX 21 42 82 43 22 44 81 46 23 48 24 51 25 52 75 53 26 54 80 55
REMARK SMILES IDX 74 56 76 57 27 58 79 59 73 61 72 63 28 65 60 68 40 69 59 70
REMARK SMILES IDX 41 71 44 72 58 73 77 74 42 75 43 77 57 79 78 80 45 83 29 85
REMARK SMILES IDX 30 86 38 87 31 88 32 89 36 90 39 91 33 92 34 93 37 94 35 95
REMARK SMILES IDX 61 96 62 97 70 98 63 99 64 100 68 101 71 102 65 103 66 104
REMARK SMILES IDX 69 105 67 106 46 107 47 108 55 109 48 110 49 111 53 112
REMARK SMILES IDX 56 113 50 114 51 115 54 116 52 117
REMARK H PARENT 14 2 14 3 13 5 13 6 12 8 12 9 11 11 11 12 10 16 3 22 83 23
REMARK H PARENT 4 25 1 27 1 28 6 30 15 32 15 33 16 35 16 36 17 39 21 45 82 47
REMARK H PARENT 22 49 81 50 80 60 74 62 76 64 79 66 73 67 41 76 44 78 77 81
REMARK H PARENT 42 82 78 84
REMARK Flexibility Score: inf
ROOT
ATOM      1  C   UNL A   1      31.358  31.014  25.785  1.00  0.00    -0.052 C 
ATOM      2  H   UNL A   1      30.402  30.789  25.360  1.00  0.00     0.027 H 
ATOM      3  H   UNL A   1      32.129  31.132  25.053  1.00  0.00     0.027 H 
ENDROOT
BRANCH   1   4
ATOM      4  C   UNL A   1      31.779  29.832  26.667  1.00  0.00    -0.052 C 
ATOM      5  H   UNL A   1      32.534  30.175  27.344  1.00  0.00     0.027 H 
ATOM      6  H   UNL A   1      30.891  29.495  27.160  1.00  0.00     0.027 H 
BRANCH   4   7
ATOM      7  C   UNL A   1      32.336  28.620  25.904  1.00  0.00    -0.036 C 
ATOM      8  H   UNL A   1      33.171  28.231  26.447  1.00  0.00     0.028 H 
ATOM      9  H   UNL A   1      31.544  27.905  25.820  1.00  0.00     0.028 H 
BRANCH   7  10
ATOM     10  C   UNL A   1      32.794  28.963  24.485  1.00  0.00     0.018 C 
ATOM     11  H   UNL A   1      32.279  29.837  24.146  1.00  0.00     0.049 H 
ATOM     12  H   UNL A   1      33.849  29.147  24.489  1.00  0.00     0.049 H 
BRANCH  10  13
ATOM     13  N   UNL A   1      32.505  27.857  23.594  1.00  0.00    -0.352 N 
ATOM     14  C   UNL A   1      31.411  27.486  22.861  1.00  0.00     0.255 C 
ATOM     15  O   UNL A   1      31.514  26.436  22.217  1.00  0.00    -0.269 OA
ATOM     16  H   UNL A   1      33.262  27.237  23.495  1.00  0.00     0.163 HD
BRANCH  14  17
ATOM     17  C   UNL A   1      30.151  28.272  22.721  1.00  0.00     0.083 A 
ATOM     18  C   UNL A   1      27.766  28.661  23.088  1.00  0.00     0.032 A 
ATOM     19  C   UNL A   1      27.877  29.914  22.488  1.00  0.00    -0.035 A 
ATOM     20  C   UNL A   1      28.887  27.821  23.124  1.00  0.00    -0.023 A 
ATOM     21  C   UNL A   1      29.106  30.356  22.003  1.00  0.00    -0.017 A 
ATOM     22  H   UNL A   1      27.045  30.519  22.404  1.00  0.00     0.065 H 
ATOM     23  H   UNL A   1      28.780  26.849  23.455  1.00  0.00     0.065 H 
ATOM     24  C   UNL A   1      30.230  29.547  22.128  1.00  0.00     0.128 A 
ATOM     25  H   UNL A   1      29.181  31.281  21.551  1.00  0.00     0.066 H 
BRANCH  18  26
ATOM     26  N   UNL A   1      26.528  28.203  23.520  1.00  0.00    -0.399 N 
ATOM     27  H   UNL A   1      26.416  27.894  24.448  1.00  0.00     0.156 HD
ATOM     28  H   UNL A   1      25.765  28.187  22.900  1.00  0.00     0.156 HD
ENDBRANCH  18  26
BRANCH  24  29
ATOM     29  O   UNL A   1      31.391  30.078  21.626  1.00  0.00    -0.507 OA
ATOM     30  H   UNL A   1      32.037  29.516  21.243  1.00  0.00     0.293 HD
ENDBRANCH  24  29
ENDBRANCH  14  17
ENDBRANCH  10  13
ENDBRANCH   7  10
ENDBRANCH   4   7
ENDBRANCH   1   4
BRANCH   1  31
ATOM     31  C   UNL A   1      31.249  32.357  26.512  1.00  0.00    -0.036 C 
ATOM     32  H   UNL A   1      30.491  32.271  27.263  1.00  0.00     0.028 H 
ATOM     33  H   UNL A   1      31.015  33.091  25.769  1.00  0.00     0.028 H 
BRANCH  31  34
ATOM     34  C   UNL A   1      32.539  32.812  27.186  1.00  0.00     0.018 C 
ATOM     35  H   UNL A   1      33.346  32.716  26.490  1.00  0.00     0.049 H 
ATOM     36  H   UNL A   1      32.700  32.198  28.048  1.00  0.00     0.049 H 
BRANCH  34  37
ATOM     37  N   UNL A   1      32.458  34.196  27.625  1.00  0.00    -0.352 N 
ATOM     38  C   UNL A   1      33.122  34.825  28.647  1.00  0.00     0.251 C 
ATOM     39  H   UNL A   1      31.835  34.764  27.116  1.00  0.00     0.163 HD
ATOM     40  O   UNL A   1      32.768  35.937  29.025  1.00  0.00    -0.269 OA
BRANCH  38  41
ATOM     41  C   UNL A   1      34.265  34.155  29.305  1.00  0.00     0.039 A 
ATOM     42  C   UNL A   1      34.027  33.369  30.435  1.00  0.00    -0.049 A 
ATOM     43  C   UNL A   1      35.566  34.324  28.825  1.00  0.00    -0.049 A 
ATOM     44  C   UNL A   1      35.091  32.708  31.054  1.00  0.00    -0.053 A 
ATOM     45  H   UNL A   1      33.071  33.277  30.811  1.00  0.00     0.063 H 
ATOM     46  C   UNL A   1      36.614  33.610  29.400  1.00  0.00    -0.053 A 
ATOM     47  H   UNL A   1      35.750  34.974  28.045  1.00  0.00     0.063 H 
ATOM     48  C   UNL A   1      36.388  32.801  30.523  1.00  0.00    -0.014 A 
ATOM     49  H   UNL A   1      34.922  32.147  31.904  1.00  0.00     0.063 H 
ATOM     50  H   UNL A   1      37.562  33.678  28.998  1.00  0.00     0.063 H 
BRANCH  48  51
ATOM     51  C   UNL A   1      37.523  32.065  31.135  1.00  0.00     0.031 A 
ATOM     52  C   UNL A   1      37.998  32.425  32.515  1.00  0.00     0.074 A 
ATOM     53  C   UNL A   1      38.163  31.117  30.423  1.00  0.00     0.049 A 
ATOM     54  N   UNL A   1      39.015  31.951  33.191  1.00  0.00    -0.248 NA
ATOM     55  C   UNL A   1      37.248  33.475  33.221  1.00  0.00    -0.034 C 
ATOM     56  C   UNL A   1      37.821  30.710  29.059  1.00  0.00    -0.036 A 
ATOM     57  N   UNL A   1      39.242  30.333  30.744  1.00  0.00    -0.354 N 
ATOM     58  C   UNL A   1      39.035  32.656  34.387  1.00  0.00     0.074 A 
ATOM     59  C   UNL A   1      37.960  33.622  34.328  1.00  0.00    -0.034 C 
ATOM     60  H   UNL A   1      36.389  33.970  32.929  1.00  0.00     0.065 H 
ATOM     61  C   UNL A   1      38.662  29.738  28.668  1.00  0.00    -0.036 A 
ATOM     62  H   UNL A   1      37.059  31.107  28.490  1.00  0.00     0.065 H 
ATOM     63  C   UNL A   1      39.623  29.480  29.737  1.00  0.00     0.049 A 
ATOM     64  H   UNL A   1      39.701  30.377  31.614  1.00  0.00     0.167 HD
ATOM     65  C   UNL A   1      39.863  32.495  35.448  1.00  0.00     0.037 A 
ATOM     66  H   UNL A   1      37.773  34.332  35.054  1.00  0.00     0.065 H 
ATOM     67  H   UNL A   1      38.632  29.252  27.758  1.00  0.00     0.065 H 
ATOM     68  C   UNL A   1      40.637  28.596  29.679  1.00  0.00     0.037 A 
ATOM     69  C   UNL A   1      40.910  31.510  35.514  1.00  0.00     0.049 A 
ATOM     70  C   UNL A   1      41.541  28.441  30.871  1.00  0.00     0.074 A 
ATOM     71  C   UNL A   1      41.758  31.223  36.569  1.00  0.00    -0.036 A 
ATOM     72  N   UNL A   1      41.252  30.650  34.482  1.00  0.00    -0.354 N 
ATOM     73  N   UNL A   1      41.507  29.064  32.024  1.00  0.00    -0.248 NA
ATOM     74  C   UNL A   1      42.624  27.454  30.756  1.00  0.00    -0.034 C 
ATOM     75  C   UNL A   1      42.644  30.223  36.159  1.00  0.00    -0.036 A 
ATOM     76  H   UNL A   1      41.740  31.671  37.499  1.00  0.00     0.065 H 
ATOM     77  C   UNL A   1      42.314  29.849  34.866  1.00  0.00     0.049 A 
ATOM     78  H   UNL A   1      40.806  30.615  33.604  1.00  0.00     0.167 HD
ATOM     79  C   UNL A   1      42.538  28.524  32.781  1.00  0.00     0.074 A 
ATOM     80  C   UNL A   1      43.172  27.513  31.962  1.00  0.00    -0.034 C 
ATOM     81  H   UNL A   1      42.889  26.870  29.949  1.00  0.00     0.065 H 
ATOM     82  H   UNL A   1      43.413  29.828  36.724  1.00  0.00     0.065 H 
ATOM     83  C   UNL A   1      42.924  28.838  34.042  1.00  0.00     0.037 A 
ATOM     84  H   UNL A   1      43.951  26.914  32.277  1.00  0.00     0.065 H 
BRANCH  65  85
ATOM     85  C   UNL A   1      39.669  33.402  36.628  1.00  0.00     0.064 A 
ATOM     86  C   UNL A   1      40.316  34.644  36.717  1.00  0.00     0.173 A 
ATOM     87  C   UNL A   1      38.784  33.048  37.658  1.00  0.00     0.173 A 
ATOM     88  F   UNL A   1      41.179  35.025  35.765  1.00  0.00    -0.203 F 
ATOM     89  C   UNL A   1      40.104  35.486  37.806  1.00  0.00     0.198 A 
ATOM     90  C   UNL A   1      38.552  33.906  38.731  1.00  0.00     0.198 A 
ATOM     91  F   UNL A   1      38.135  31.875  37.620  1.00  0.00    -0.203 F 
ATOM     92  F   UNL A   1      40.766  36.648  37.891  1.00  0.00    -0.200 F 
ATOM     93  C   UNL A   1      39.216  35.120  38.807  1.00  0.00     0.200 A 
ATOM     94  F   UNL A   1      37.683  33.556  39.690  1.00  0.00    -0.200 F 
ATOM     95  F   UNL A   1      39.003  35.937  39.848  1.00  0.00    -0.200 F 
ENDBRANCH  65  85
BRANCH  68  96
ATOM     96  C   UNL A   1      40.839  27.771  28.460  1.00  0.00     0.064 A 
ATOM     97  C   UNL A   1      41.646  28.228  27.409  1.00  0.00     0.173 A 
ATOM     98  C   UNL A   1      40.221  26.521  28.311  1.00  0.00     0.173 A 
ATOM     99  F   UNL A   1      42.244  29.426  27.497  1.00  0.00    -0.203 F 
ATOM    100  C   UNL A   1      41.806  27.480  26.244  1.00  0.00     0.198 A 
ATOM    101  C   UNL A   1      40.405  25.760  27.159  1.00  0.00     0.198 A 
ATOM    102  F   UNL A   1      39.443  26.035  29.289  1.00  0.00    -0.203 F 
ATOM    103  F   UNL A   1      42.541  27.965  25.236  1.00  0.00    -0.200 F 
ATOM    104  C   UNL A   1      41.189  26.244  26.122  1.00  0.00     0.200 A 
ATOM    105  F   UNL A   1      39.819  24.560  27.050  1.00  0.00    -0.200 F 
ATOM    106  F   UNL A   1      41.343  25.525  25.003  1.00  0.00    -0.200 F 
ENDBRANCH  68  96
BRANCH  83 107
ATOM    107  C   UNL A   1      44.060  28.051  34.629  1.00  0.00     0.064 A 
ATOM    108  C   UNL A   1      43.847  26.839  35.301  1.00  0.00     0.173 A 
ATOM    109  C   UNL A   1      45.382  28.497  34.481  1.00  0.00     0.173 A 
ATOM    110  F   UNL A   1      42.600  26.377  35.483  1.00  0.00    -0.203 F 
ATOM    111  C   UNL A   1      44.914  26.115  35.826  1.00  0.00     0.198 A 
ATOM    112  C   UNL A   1      46.449  27.756  34.979  1.00  0.00     0.198 A 
ATOM    113  F   UNL A   1      45.640  29.647  33.840  1.00  0.00    -0.203 F 
ATOM    114  F   UNL A   1      44.684  24.983  36.507  1.00  0.00    -0.200 F 
ATOM    115  C   UNL A   1      46.214  26.570  35.658  1.00  0.00     0.200 A 
ATOM    116  F   UNL A   1      47.705  28.190  34.804  1.00  0.00    -0.200 F 
ATOM    117  F   UNL A   1      47.241  25.867  36.157  1.00  0.00    -0.200 F 
ENDBRANCH  83 107
ENDBRANCH  48  51
ENDBRANCH  38  41
ENDBRANCH  34  37
ENDBRANCH  31  34
ENDBRANCH   1  31
TORSDOF 15
ENDMDL
MODEL 6
REMARK VINA RESULT:     -11.6      6.365     11.597
REMARK SMILES Nc1ccc(O)c(C(=O)NCCCCCCNC(=O)c2ccc(-c3c4nc(c(-c5c(F)c(F)c(F)c(F)c5F)c5ccc([nH]5)c(-c5c(F)c(F)c(F)c(F)c5F)c5nc(c(-c6c(F)c(F)c(F)c(F)c6F)c6ccc3[nH]6)C=C5)C=C4)cc2)c1
REMARK SMILES IDX 14 1 13 4 12 7 11 10 10 13 8 14 9 15 7 17 2 18 3 19 83 20
REMARK SMILES IDX 4 21 5 24 1 26 6 29 15 31 16 34 17 37 18 38 19 40 20 41
REMARK SMILES IDX 21 42 82 43 22 44 81 46 23 48 24 51 25 52 75 53 26 54 80 55
REMARK SMILES IDX 74 56 76 57 27 58 79 59 73 61 72 63 28 65 60 68 40 69 59 70
REMARK SMILES IDX 41 71 44 72 58 73 77 74 42 75 43 77 57 79 78 80 45 83 29 85
REMARK SMILES IDX 30 86 38 87 31 88 32 89 36 90 39 91 33 92 34 93 37 94 35 95
REMARK SMILES IDX 61 96 62 97 70 98 63 99 64 100 68 101 71 102 65 103 66 104
REMARK SMILES IDX 69 105 67 106 46 107 47 108 55 109 48 110 49 111 53 112
REMARK SMILES IDX 56 113 50 114 51 115 54 116 52 117
REMARK H PARENT 14 2 14 3 13 5 13 6 12 8 12 9 11 11 11 12 10 16 3 22 83 23
REMARK H PARENT 4 25 1 27 1 28 6 30 15 32 15 33 16 35 16 36 17 39 21 45 82 47
REMARK H PARENT 22 49 81 50 80 60 74 62 76 64 79 66 73 67 41 76 44 78 77 81
REMARK H PARENT 42 82 78 84
REMARK Flexibility Score: inf
ROOT
ATOM      1  C   UNL A   1      36.659  20.417  25.001  1.00  0.00    -0.052 C 
ATOM      2  H   UNL A   1      35.934  19.980  24.346  1.00  0.00     0.027 H 
ATOM      3  H   UNL A   1      36.360  20.409  26.029  1.00  0.00     0.027 H 
ENDROOT
BRANCH   1   4
ATOM      4  C   UNL A   1      36.826  21.892  24.613  1.00  0.00    -0.052 C 
ATOM      5  H   UNL A   1      37.857  22.059  24.381  1.00  0.00     0.027 H 
ATOM      6  H   UNL A   1      36.173  22.058  23.781  1.00  0.00     0.027 H 
BRANCH   4   7
ATOM      7  C   UNL A   1      36.410  22.898  25.696  1.00  0.00    -0.036 C 
ATOM      8  H   UNL A   1      36.001  22.357  26.525  1.00  0.00     0.028 H 
ATOM      9  H   UNL A   1      37.283  23.452  25.970  1.00  0.00     0.028 H 
BRANCH   7  10
ATOM     10  C   UNL A   1      35.364  23.906  25.211  1.00  0.00     0.018 C 
ATOM     11  H   UNL A   1      35.772  24.894  25.262  1.00  0.00     0.049 H 
ATOM     12  H   UNL A   1      35.099  23.679  24.199  1.00  0.00     0.049 H 
BRANCH  10  13
ATOM     13  N   UNL A   1      34.182  23.828  26.045  1.00  0.00    -0.352 N 
ATOM     14  C   UNL A   1      33.060  23.045  26.036  1.00  0.00     0.255 C 
ATOM     15  O   UNL A   1      32.220  23.281  26.911  1.00  0.00    -0.269 OA
ATOM     16  H   UNL A   1      34.189  24.481  26.780  1.00  0.00     0.163 HD
BRANCH  14  17
ATOM     17  C   UNL A   1      32.807  21.900  25.114  1.00  0.00     0.083 A 
ATOM     18  C   UNL A   1      32.233  20.923  22.948  1.00  0.00     0.032 A 
ATOM     19  C   UNL A   1      32.478  19.649  23.457  1.00  0.00    -0.035 A 
ATOM     20  C   UNL A   1      32.321  22.028  23.807  1.00  0.00    -0.023 A 
ATOM     21  C   UNL A   1      32.883  19.484  24.780  1.00  0.00    -0.017 A 
ATOM     22  H   UNL A   1      32.361  18.822  22.850  1.00  0.00     0.065 H 
ATOM     23  H   UNL A   1      32.023  22.956  23.468  1.00  0.00     0.065 H 
ATOM     24  C   UNL A   1      33.054  20.599  25.594  1.00  0.00     0.128 A 
ATOM     25  H   UNL A   1      33.053  18.537  25.154  1.00  0.00     0.066 H 
BRANCH  18  26
ATOM     26  N   UNL A   1      31.778  21.077  21.646  1.00  0.00    -0.399 N 
ATOM     27  H   UNL A   1      30.819  21.224  21.475  1.00  0.00     0.156 HD
ATOM     28  H   UNL A   1      32.412  21.041  20.895  1.00  0.00     0.156 HD
ENDBRANCH  18  26
BRANCH  24  29
ATOM     29  O   UNL A   1      33.462  20.328  26.876  1.00  0.00    -0.507 OA
ATOM     30  H   UNL A   1      33.256  20.925  27.569  1.00  0.00     0.293 HD
ENDBRANCH  24  29
ENDBRANCH  14  17
ENDBRANCH  10  13
ENDBRANCH   7  10
ENDBRANCH   4   7
ENDBRANCH   1   4
BRANCH   1  31
ATOM     31  C   UNL A   1      37.937  19.579  24.921  1.00  0.00    -0.036 C 
ATOM     32  H   UNL A   1      38.248  19.538  23.898  1.00  0.00     0.028 H 
ATOM     33  H   UNL A   1      37.698  18.615  25.321  1.00  0.00     0.028 H 
BRANCH  31  34
ATOM     34  C   UNL A   1      39.096  20.121  25.751  1.00  0.00     0.018 C 
ATOM     35  H   UNL A   1      38.726  20.423  26.708  1.00  0.00     0.049 H 
ATOM     36  H   UNL A   1      39.523  20.950  25.225  1.00  0.00     0.049 H 
BRANCH  34  37
ATOM     37  N   UNL A   1      40.135  19.122  25.941  1.00  0.00    -0.352 N 
ATOM     38  C   UNL A   1      41.484  19.293  26.127  1.00  0.00     0.251 C 
ATOM     39  H   UNL A   1      39.827  18.187  25.937  1.00  0.00     0.163 HD
ATOM     40  O   UNL A   1      42.247  18.336  26.045  1.00  0.00    -0.269 OA
BRANCH  38  41
ATOM     41  C   UNL A   1      42.022  20.640  26.415  1.00  0.00     0.039 A 
ATOM     42  C   UNL A   1      42.299  21.499  25.348  1.00  0.00    -0.049 A 
ATOM     43  C   UNL A   1      42.277  21.042  27.729  1.00  0.00    -0.049 A 
ATOM     44  C   UNL A   1      42.783  22.784  25.604  1.00  0.00    -0.053 A 
ATOM     45  H   UNL A   1      42.146  21.186  24.378  1.00  0.00     0.063 H 
ATOM     46  C   UNL A   1      42.694  22.345  27.985  1.00  0.00    -0.053 A 
ATOM     47  H   UNL A   1      42.156  20.376  28.507  1.00  0.00     0.063 H 
ATOM     48  C   UNL A   1      42.958  23.226  26.926  1.00  0.00    -0.014 A 
ATOM     49  H   UNL A   1      43.013  23.411  24.817  1.00  0.00     0.063 H 
ATOM     50  H   UNL A   1      42.811  22.664  28.959  1.00  0.00     0.063 H 
BRANCH  48  51
ATOM     51  C   UNL A   1      43.422  24.606  27.219  1.00  0.00     0.031 A 
ATOM     52  C   UNL A   1      42.462  25.622  27.771  1.00  0.00     0.074 A 
ATOM     53  C   UNL A   1      44.689  24.957  26.928  1.00  0.00     0.049 A 
ATOM     54  N   UNL A   1      42.656  26.892  28.024  1.00  0.00    -0.248 NA
ATOM     55  C   UNL A   1      41.096  25.157  28.055  1.00  0.00    -0.034 C 
ATOM     56  C   UNL A   1      45.701  24.072  26.349  1.00  0.00    -0.036 A 
ATOM     57  N   UNL A   1      45.340  26.158  27.069  1.00  0.00    -0.354 N 
ATOM     58  C   UNL A   1      41.436  27.378  28.476  1.00  0.00     0.074 A 
ATOM     59  C   UNL A   1      40.495  26.280  28.420  1.00  0.00    -0.034 C 
ATOM     60  H   UNL A   1      40.705  24.203  27.987  1.00  0.00     0.065 H 
ATOM     61  C   UNL A   1      46.849  24.753  26.203  1.00  0.00    -0.036 A 
ATOM     62  H   UNL A   1      45.554  23.083  26.094  1.00  0.00     0.065 H 
ATOM     63  C   UNL A   1      46.645  26.130  26.641  1.00  0.00     0.049 A 
ATOM     64  H   UNL A   1      44.912  26.962  27.440  1.00  0.00     0.167 HD
ATOM     65  C   UNL A   1      41.134  28.622  28.919  1.00  0.00     0.037 A 
ATOM     66  H   UNL A   1      39.489  26.362  28.635  1.00  0.00     0.065 H 
ATOM     67  H   UNL A   1      47.733  24.364  25.839  1.00  0.00     0.065 H 
ATOM     68  C   UNL A   1      47.570  27.109  26.601  1.00  0.00     0.037 A 
ATOM     69  C   UNL A   1      42.082  29.702  29.004  1.00  0.00     0.049 A 
ATOM     70  C   UNL A   1      47.205  28.482  27.096  1.00  0.00     0.074 A 
ATOM     71  C   UNL A   1      41.892  30.979  29.501  1.00  0.00    -0.036 A 
ATOM     72  N   UNL A   1      43.400  29.631  28.580  1.00  0.00    -0.354 N 
ATOM     73  N   UNL A   1      46.068  28.910  27.588  1.00  0.00    -0.248 NA
ATOM     74  C   UNL A   1      48.257  29.507  27.038  1.00  0.00    -0.034 C 
ATOM     75  C   UNL A   1      43.081  31.695  29.335  1.00  0.00    -0.036 A 
ATOM     76  H   UNL A   1      41.021  31.341  29.922  1.00  0.00     0.065 H 
ATOM     77  C   UNL A   1      44.028  30.848  28.782  1.00  0.00     0.049 A 
ATOM     78  H   UNL A   1      43.827  28.832  28.192  1.00  0.00     0.167 HD
ATOM     79  C   UNL A   1      46.276  30.241  27.926  1.00  0.00     0.074 A 
ATOM     80  C   UNL A   1      47.652  30.546  27.597  1.00  0.00    -0.034 C 
ATOM     81  H   UNL A   1      49.214  29.436  26.661  1.00  0.00     0.065 H 
ATOM     82  H   UNL A   1      43.229  32.686  29.583  1.00  0.00     0.065 H 
ATOM     83  C   UNL A   1      45.404  31.130  28.462  1.00  0.00     0.037 A 
ATOM     84  H   UNL A   1      48.104  31.456  27.774  1.00  0.00     0.065 H 
BRANCH  65  85
ATOM     85  C   UNL A   1      39.721  28.886  29.351  1.00  0.00     0.064 A 
ATOM     86  C   UNL A   1      39.306  28.680  30.676  1.00  0.00     0.173 A 
ATOM     87  C   UNL A   1      38.784  29.400  28.443  1.00  0.00     0.173 A 
ATOM     88  F   UNL A   1      40.160  28.180  31.581  1.00  0.00    -0.203 F 
ATOM     89  C   UNL A   1      37.998  28.956  31.069  1.00  0.00     0.198 A 
ATOM     90  C   UNL A   1      37.485  29.703  28.846  1.00  0.00     0.198 A 
ATOM     91  F   UNL A   1      39.129  29.621  27.166  1.00  0.00    -0.203 F 
ATOM     92  F   UNL A   1      37.613  28.711  32.328  1.00  0.00    -0.200 F 
ATOM     93  C   UNL A   1      37.093  29.475  30.156  1.00  0.00     0.200 A 
ATOM     94  F   UNL A   1      36.615  30.217  27.966  1.00  0.00    -0.200 F 
ATOM     95  F   UNL A   1      35.837  29.752  30.538  1.00  0.00    -0.200 F 
ENDBRANCH  65  85
BRANCH  68  96
ATOM     96  C   UNL A   1      48.937  26.823  26.093  1.00  0.00     0.064 A 
ATOM     97  C   UNL A   1      49.255  27.011  24.740  1.00  0.00     0.173 A 
ATOM     98  C   UNL A   1      49.946  26.341  26.939  1.00  0.00     0.173 A 
ATOM     99  F   UNL A   1      48.318  27.452  23.888  1.00  0.00    -0.203 F 
ATOM    100  C   UNL A   1      50.522  26.704  24.249  1.00  0.00     0.198 A 
ATOM    101  C   UNL A   1      51.221  26.062  26.452  1.00  0.00     0.198 A 
ATOM    102  F   UNL A   1      49.695  26.148  28.242  1.00  0.00    -0.203 F 
ATOM    103  F   UNL A   1      50.782  26.845  22.942  1.00  0.00    -0.200 F 
ATOM    104  C   UNL A   1      51.505  26.235  25.105  1.00  0.00     0.200 A 
ATOM    105  F   UNL A   1      52.173  25.622  27.286  1.00  0.00    -0.200 F 
ATOM    106  F   UNL A   1      52.723  25.939  24.632  1.00  0.00    -0.200 F 
ENDBRANCH  68  96
BRANCH  83 107
ATOM    107  C   UNL A   1      45.923  32.505  28.764  1.00  0.00     0.064 A 
ATOM    108  C   UNL A   1      45.835  33.548  27.830  1.00  0.00     0.173 A 
ATOM    109  C   UNL A   1      46.480  32.792  30.019  1.00  0.00     0.173 A 
ATOM    110  F   UNL A   1      45.325  33.321  26.610  1.00  0.00    -0.203 F 
ATOM    111  C   UNL A   1      46.310  34.822  28.133  1.00  0.00     0.198 A 
ATOM    112  C   UNL A   1      46.924  34.074  30.331  1.00  0.00     0.198 A 
ATOM    113  F   UNL A   1      46.581  31.831  30.950  1.00  0.00    -0.203 F 
ATOM    114  F   UNL A   1      46.259  35.791  27.209  1.00  0.00    -0.200 F 
ATOM    115  C   UNL A   1      46.847  35.085  29.386  1.00  0.00     0.200 A 
ATOM    116  F   UNL A   1      47.430  34.330  31.545  1.00  0.00    -0.200 F 
ATOM    117  F   UNL A   1      47.295  36.314  29.679  1.00  0.00    -0.200 F 
ENDBRANCH  83 107
ENDBRANCH  48  51
ENDBRANCH  38  41
ENDBRANCH  34  37
ENDBRANCH  31  34
ENDBRANCH   1  31
TORSDOF 15
ENDMDL
MODEL 7
REMARK VINA RESULT:     -11.6      4.407     10.185
REMARK SMILES Nc1ccc(O)c(C(=O)NCCCCCCNC(=O)c2ccc(-c3c4nc(c(-c5c(F)c(F)c(F)c(F)c5F)c5ccc([nH]5)c(-c5c(F)c(F)c(F)c(F)c5F)c5nc(c(-c6c(F)c(F)c(F)c(F)c6F)c6ccc3[nH]6)C=C5)C=C4)cc2)c1
REMARK SMILES IDX 14 1 13 4 12 7 11 10 10 13 8 14 9 15 7 17 2 18 3 19 83 20
REMARK SMILES IDX 4 21 5 24 1 26 6 29 15 31 16 34 17 37 18 38 19 40 20 41
REMARK SMILES IDX 21 42 82 43 22 44 81 46 23 48 24 51 25 52 75 53 26 54 80 55
REMARK SMILES IDX 74 56 76 57 27 58 79 59 73 61 72 63 28 65 60 68 40 69 59 70
REMARK SMILES IDX 41 71 44 72 58 73 77 74 42 75 43 77 57 79 78 80 45 83 29 85
REMARK SMILES IDX 30 86 38 87 31 88 32 89 36 90 39 91 33 92 34 93 37 94 35 95
REMARK SMILES IDX 61 96 62 97 70 98 63 99 64 100 68 101 71 102 65 103 66 104
REMARK SMILES IDX 69 105 67 106 46 107 47 108 55 109 48 110 49 111 53 112
REMARK SMILES IDX 56 113 50 114 51 115 54 116 52 117
REMARK H PARENT 14 2 14 3 13 5 13 6 12 8 12 9 11 11 11 12 10 16 3 22 83 23
REMARK H PARENT 4 25 1 27 1 28 6 30 15 32 15 33 16 35 16 36 17 39 21 45 82 47
REMARK H PARENT 22 49 81 50 80 60 74 62 76 64 79 66 73 67 41 76 44 78 77 81
REMARK H PARENT 42 82 78 84
REMARK Flexibility Score: inf
ROOT
ATOM      1  C   UNL A   1      36.697  33.835  29.062  1.00  0.00    -0.052 C 
ATOM      2  H   UNL A   1      37.193  34.501  28.387  1.00  0.00     0.027 H 
ATOM      3  H   UNL A   1      36.226  34.336  29.882  1.00  0.00     0.027 H 
ENDROOT
BRANCH   1   4
ATOM      4  C   UNL A   1      37.752  32.905  29.677  1.00  0.00    -0.052 C 
ATOM      5  H   UNL A   1      37.850  32.049  29.042  1.00  0.00     0.027 H 
ATOM      6  H   UNL A   1      38.651  33.481  29.753  1.00  0.00     0.027 H 
BRANCH   4   7
ATOM      7  C   UNL A   1      37.433  32.412  31.097  1.00  0.00    -0.036 C 
ATOM      8  H   UNL A   1      36.710  31.626  31.030  1.00  0.00     0.028 H 
ATOM      9  H   UNL A   1      38.351  32.077  31.532  1.00  0.00     0.028 H 
BRANCH   7  10
ATOM     10  C   UNL A   1      36.873  33.512  32.003  1.00  0.00     0.018 C 
ATOM     11  H   UNL A   1      37.557  33.693  32.805  1.00  0.00     0.049 H 
ATOM     12  H   UNL A   1      36.743  34.408  31.432  1.00  0.00     0.049 H 
BRANCH  10  13
ATOM     13  N   UNL A   1      35.594  33.099  32.543  1.00  0.00    -0.352 N 
ATOM     14  C   UNL A   1      34.357  33.680  32.614  1.00  0.00     0.255 C 
ATOM     15  O   UNL A   1      33.477  33.028  33.187  1.00  0.00    -0.269 OA
ATOM     16  H   UNL A   1      35.620  32.202  32.947  1.00  0.00     0.163 HD
BRANCH  14  17
ATOM     17  C   UNL A   1      33.974  34.985  32.002  1.00  0.00     0.083 A 
ATOM     18  C   UNL A   1      33.150  36.385  30.175  1.00  0.00     0.032 A 
ATOM     19  C   UNL A   1      33.172  37.496  31.015  1.00  0.00    -0.035 A 
ATOM     20  C   UNL A   1      33.629  35.158  30.655  1.00  0.00    -0.023 A 
ATOM     21  C   UNL A   1      33.590  37.372  32.338  1.00  0.00    -0.017 A 
ATOM     22  H   UNL A   1      32.876  38.417  30.656  1.00  0.00     0.065 H 
ATOM     23  H   UNL A   1      33.729  34.364  30.003  1.00  0.00     0.065 H 
ATOM     24  C   UNL A   1      33.976  36.127  32.826  1.00  0.00     0.128 A 
ATOM     25  H   UNL A   1      33.614  38.200  32.953  1.00  0.00     0.066 H 
BRANCH  18  26
ATOM     26  N   UNL A   1      32.786  36.525  28.843  1.00  0.00    -0.399 N 
ATOM     27  H   UNL A   1      31.859  36.342  28.565  1.00  0.00     0.156 HD
ATOM     28  H   UNL A   1      33.453  36.808  28.177  1.00  0.00     0.156 HD
ENDBRANCH  18  26
BRANCH  24  29
ATOM     29  O   UNL A   1      34.362  36.111  34.143  1.00  0.00    -0.507 OA
ATOM     30  H   UNL A   1      34.438  35.295  34.599  1.00  0.00     0.293 HD
ENDBRANCH  24  29
ENDBRANCH  14  17
ENDBRANCH  10  13
ENDBRANCH   7  10
ENDBRANCH   4   7
ENDBRANCH   1   4
BRANCH   1  31
ATOM     31  C   UNL A   1      35.579  33.126  28.294  1.00  0.00    -0.036 C 
ATOM     32  H   UNL A   1      36.026  32.530  27.527  1.00  0.00     0.028 H 
ATOM     33  H   UNL A   1      34.940  33.891  27.906  1.00  0.00     0.028 H 
BRANCH  31  34
ATOM     34  C   UNL A   1      34.704  32.219  29.154  1.00  0.00     0.018 C 
ATOM     35  H   UNL A   1      33.902  32.798  29.563  1.00  0.00     0.049 H 
ATOM     36  H   UNL A   1      35.314  31.806  29.931  1.00  0.00     0.049 H 
BRANCH  34  37
ATOM     37  N   UNL A   1      34.147  31.120  28.383  1.00  0.00    -0.352 N 
ATOM     38  C   UNL A   1      34.782  30.046  27.815  1.00  0.00     0.251 C 
ATOM     39  H   UNL A   1      33.172  31.151  28.248  1.00  0.00     0.163 HD
ATOM     40  O   UNL A   1      34.194  29.333  27.008  1.00  0.00    -0.269 OA
BRANCH  38  41
ATOM     41  C   UNL A   1      36.188  29.751  28.168  1.00  0.00     0.039 A 
ATOM     42  C   UNL A   1      36.469  29.207  29.424  1.00  0.00    -0.049 A 
ATOM     43  C   UNL A   1      37.224  30.034  27.274  1.00  0.00    -0.049 A 
ATOM     44  C   UNL A   1      37.788  28.898  29.763  1.00  0.00    -0.053 A 
ATOM     45  H   UNL A   1      35.707  29.035  30.096  1.00  0.00     0.063 H 
ATOM     46  C   UNL A   1      38.529  29.662  27.587  1.00  0.00    -0.053 A 
ATOM     47  H   UNL A   1      37.023  30.515  26.384  1.00  0.00     0.063 H 
ATOM     48  C   UNL A   1      38.825  29.098  28.837  1.00  0.00    -0.014 A 
ATOM     49  H   UNL A   1      38.002  28.521  30.700  1.00  0.00     0.063 H 
ATOM     50  H   UNL A   1      39.282  29.804  26.896  1.00  0.00     0.063 H 
BRANCH  48  51
ATOM     51  C   UNL A   1      40.226  28.728  29.160  1.00  0.00     0.031 A 
ATOM     52  C   UNL A   1      41.092  29.672  29.946  1.00  0.00     0.074 A 
ATOM     53  C   UNL A   1      40.734  27.572  28.691  1.00  0.00     0.049 A 
ATOM     54  N   UNL A   1      42.357  29.563  30.266  1.00  0.00    -0.248 NA
ATOM     55  C   UNL A   1      40.461  30.915  30.415  1.00  0.00    -0.034 C 
ATOM     56  C   UNL A   1      40.005  26.595  27.881  1.00  0.00    -0.036 A 
ATOM     57  N   UNL A   1      41.988  27.028  28.818  1.00  0.00    -0.354 N 
ATOM     58  C   UNL A   1      42.675  30.727  30.953  1.00  0.00     0.074 A 
ATOM     59  C   UNL A   1      41.484  31.550  30.965  1.00  0.00    -0.034 C 
ATOM     60  H   UNL A   1      39.476  31.215  30.335  1.00  0.00     0.065 H 
ATOM     61  C   UNL A   1      40.817  25.563  27.600  1.00  0.00    -0.036 A 
ATOM     62  H   UNL A   1      39.024  26.685  27.574  1.00  0.00     0.065 H 
ATOM     63  C   UNL A   1      42.133  25.822  28.178  1.00  0.00     0.049 A 
ATOM     64  H   UNL A   1      42.714  27.462  29.321  1.00  0.00     0.167 HD
ATOM     65  C   UNL A   1      43.847  31.068  31.540  1.00  0.00     0.037 A 
ATOM     66  H   UNL A   1      41.440  32.506  31.352  1.00  0.00     0.065 H 
ATOM     67  H   UNL A   1      40.553  24.722  27.064  1.00  0.00     0.065 H 
ATOM     68  C   UNL A   1      43.208  25.019  28.063  1.00  0.00     0.037 A 
ATOM     69  C   UNL A   1      45.018  30.231  31.553  1.00  0.00     0.049 A 
ATOM     70  C   UNL A   1      44.498  25.426  28.723  1.00  0.00     0.074 A 
ATOM     71  C   UNL A   1      46.232  30.457  32.178  1.00  0.00    -0.036 A 
ATOM     72  N   UNL A   1      45.121  29.007  30.911  1.00  0.00    -0.354 N 
ATOM     73  N   UNL A   1      44.766  26.496  29.431  1.00  0.00    -0.248 NA
ATOM     74  C   UNL A   1      45.635  24.506  28.574  1.00  0.00    -0.034 C 
ATOM     75  C   UNL A   1      47.084  29.391  31.874  1.00  0.00    -0.036 A 
ATOM     76  H   UNL A   1      46.468  31.272  32.766  1.00  0.00     0.065 H 
ATOM     77  C   UNL A   1      46.385  28.476  31.104  1.00  0.00     0.049 A 
ATOM     78  H   UNL A   1      44.400  28.578  30.393  1.00  0.00     0.167 HD
ATOM     79  C   UNL A   1      46.087  26.365  29.838  1.00  0.00     0.074 A 
ATOM     80  C   UNL A   1      46.563  25.104  29.309  1.00  0.00    -0.034 C 
ATOM     81  H   UNL A   1      45.696  23.628  28.038  1.00  0.00     0.065 H 
ATOM     82  H   UNL A   1      48.068  29.301  32.174  1.00  0.00     0.065 H 
ATOM     83  C   UNL A   1      46.838  27.213  30.582  1.00  0.00     0.037 A 
ATOM     84  H   UNL A   1      47.505  24.720  29.482  1.00  0.00     0.065 H 
BRANCH  65  85
ATOM     85  C   UNL A   1      43.924  32.403  32.223  1.00  0.00     0.064 A 
ATOM     86  C   UNL A   1      44.324  33.559  31.537  1.00  0.00     0.173 A 
ATOM     87  C   UNL A   1      43.543  32.536  33.567  1.00  0.00     0.173 A 
ATOM     88  F   UNL A   1      44.708  33.485  30.254  1.00  0.00    -0.203 F 
ATOM     89  C   UNL A   1      44.363  34.796  32.177  1.00  0.00     0.198 A 
ATOM     90  C   UNL A   1      43.555  33.779  34.196  1.00  0.00     0.198 A 
ATOM     91  F   UNL A   1      43.147  31.464  34.268  1.00  0.00    -0.203 F 
ATOM     92  F   UNL A   1      44.790  35.879  31.513  1.00  0.00    -0.200 F 
ATOM     93  C   UNL A   1      43.971  34.905  33.502  1.00  0.00     0.200 A 
ATOM     94  F   UNL A   1      43.163  33.885  35.473  1.00  0.00    -0.200 F 
ATOM     95  F   UNL A   1      43.997  36.098  34.115  1.00  0.00    -0.200 F 
ENDBRANCH  65  85
BRANCH  68  96
ATOM     96  C   UNL A   1      43.109  23.741  27.313  1.00  0.00     0.064 A 
ATOM     97  C   UNL A   1      42.587  22.590  27.919  1.00  0.00     0.173 A 
ATOM     98  C   UNL A   1      43.548  23.636  25.985  1.00  0.00     0.173 A 
ATOM     99  F   UNL A   1      42.172  22.635  29.194  1.00  0.00    -0.203 F 
ATOM    100  C   UNL A   1      42.532  21.377  27.236  1.00  0.00     0.198 A 
ATOM    101  C   UNL A   1      43.465  22.430  25.292  1.00  0.00     0.198 A 
ATOM    102  F   UNL A   1      44.051  24.708  25.357  1.00  0.00    -0.203 F 
ATOM    103  F   UNL A   1      42.075  20.282  27.858  1.00  0.00    -0.200 F 
ATOM    104  C   UNL A   1      42.966  21.299  25.922  1.00  0.00     0.200 A 
ATOM    105  F   UNL A   1      43.872  22.362  24.018  1.00  0.00    -0.200 F 
ATOM    106  F   UNL A   1      42.912  20.133  25.265  1.00  0.00    -0.200 F 
ENDBRANCH  68  96
BRANCH  83 107
ATOM    107  C   UNL A   1      48.240  26.787  30.904  1.00  0.00     0.064 A 
ATOM    108  C   UNL A   1      48.526  25.964  32.003  1.00  0.00     0.173 A 
ATOM    109  C   UNL A   1      49.306  27.175  30.078  1.00  0.00     0.173 A 
ATOM    110  F   UNL A   1      47.544  25.578  32.832  1.00  0.00    -0.203 F 
ATOM    111  C   UNL A   1      49.832  25.566  32.278  1.00  0.00     0.198 A 
ATOM    112  C   UNL A   1      50.606  26.750  30.337  1.00  0.00     0.198 A 
ATOM    113  F   UNL A   1      49.085  27.956  29.010  1.00  0.00    -0.203 F 
ATOM    114  F   UNL A   1      50.089  24.819  33.361  1.00  0.00    -0.200 F 
ATOM    115  C   UNL A   1      50.870  25.953  31.441  1.00  0.00     0.200 A 
ATOM    116  F   UNL A   1      51.604  27.113  29.521  1.00  0.00    -0.200 F 
ATOM    117  F   UNL A   1      52.124  25.562  31.703  1.00  0.00    -0.200 F 
ENDBRANCH  83 107
ENDBRANCH  48  51
ENDBRANCH  38  41
ENDBRANCH  34  37
ENDBRANCH  31  34
ENDBRANCH   1  31
TORSDOF 15
ENDMDL
MODEL 8
REMARK VINA RESULT:     -11.6      6.331     11.491
REMARK SMILES Nc1ccc(O)c(C(=O)NCCCCCCNC(=O)c2ccc(-c3c4nc(c(-c5c(F)c(F)c(F)c(F)c5F)c5ccc([nH]5)c(-c5c(F)c(F)c(F)c(F)c5F)c5nc(c(-c6c(F)c(F)c(F)c(F)c6F)c6ccc3[nH]6)C=C5)C=C4)cc2)c1
REMARK SMILES IDX 14 1 13 4 12 7 11 10 10 13 8 14 9 15 7 17 2 18 3 19 83 20
REMARK SMILES IDX 4 21 5 24 1 26 6 29 15 31 16 34 17 37 18 38 19 40 20 41
REMARK SMILES IDX 21 42 82 43 22 44 81 46 23 48 24 51 25 52 75 53 26 54 80 55
REMARK SMILES IDX 74 56 76 57 27 58 79 59 73 61 72 63 28 65 60 68 40 69 59 70
REMARK SMILES IDX 41 71 44 72 58 73 77 74 42 75 43 77 57 79 78 80 45 83 29 85
REMARK SMILES IDX 30 86 38 87 31 88 32 89 36 90 39 91 33 92 34 93 37 94 35 95
REMARK SMILES IDX 61 96 62 97 70 98 63 99 64 100 68 101 71 102 65 103 66 104
REMARK SMILES IDX 69 105 67 106 46 107 47 108 55 109 48 110 49 111 53 112
REMARK SMILES IDX 56 113 50 114 51 115 54 116 52 117
REMARK H PARENT 14 2 14 3 13 5 13 6 12 8 12 9 11 11 11 12 10 16 3 22 83 23
REMARK H PARENT 4 25 1 27 1 28 6 30 15 32 15 33 16 35 16 36 17 39 21 45 82 47
REMARK H PARENT 22 49 81 50 80 60 74 62 76 64 79 66 73 67 41 76 44 78 77 81
REMARK H PARENT 42 82 78 84
REMARK Flexibility Score: inf
ROOT
ATOM      1  C   UNL A   1      36.615  20.567  24.996  1.00  0.00    -0.052 C 
ATOM      2  H   UNL A   1      35.794  19.984  24.633  1.00  0.00     0.027 H 
ATOM      3  H   UNL A   1      36.513  20.849  26.023  1.00  0.00     0.027 H 
ENDROOT
BRANCH   1   4
ATOM      4  C   UNL A   1      36.663  21.874  24.195  1.00  0.00    -0.052 C 
ATOM      5  H   UNL A   1      37.682  22.064  23.929  1.00  0.00     0.027 H 
ATOM      6  H   UNL A   1      36.025  21.730  23.348  1.00  0.00     0.027 H 
BRANCH   4   7
ATOM      7  C   UNL A   1      36.124  23.108  24.935  1.00  0.00    -0.036 C 
ATOM      8  H   UNL A   1      36.906  23.837  24.996  1.00  0.00     0.028 H 
ATOM      9  H   UNL A   1      35.282  23.469  24.382  1.00  0.00     0.028 H 
BRANCH   7  10
ATOM     10  C   UNL A   1      35.639  22.794  26.353  1.00  0.00     0.018 C 
ATOM     11  H   UNL A   1      35.631  21.734  26.499  1.00  0.00     0.049 H 
ATOM     12  H   UNL A   1      36.300  23.249  27.061  1.00  0.00     0.049 H 
BRANCH  10  13
ATOM     13  N   UNL A   1      34.301  23.318  26.541  1.00  0.00    -0.352 N 
ATOM     14  C   UNL A   1      33.073  22.999  26.030  1.00  0.00     0.255 C 
ATOM     15  O   UNL A   1      32.125  23.697  26.406  1.00  0.00    -0.269 OA
ATOM     16  H   UNL A   1      34.270  24.067  27.178  1.00  0.00     0.163 HD
BRANCH  14  17
ATOM     17  C   UNL A   1      32.780  21.850  25.126  1.00  0.00     0.083 A 
ATOM     18  C   UNL A   1      32.189  20.859  22.970  1.00  0.00     0.032 A 
ATOM     19  C   UNL A   1      32.371  19.586  23.504  1.00  0.00    -0.035 A 
ATOM     20  C   UNL A   1      32.316  21.975  23.810  1.00  0.00    -0.023 A 
ATOM     21  C   UNL A   1      32.752  19.427  24.835  1.00  0.00    -0.017 A 
ATOM     22  H   UNL A   1      32.224  18.754  22.911  1.00  0.00     0.065 H 
ATOM     23  H   UNL A   1      32.063  22.909  23.451  1.00  0.00     0.065 H 
ATOM     24  C   UNL A   1      32.964  20.548  25.631  1.00  0.00     0.128 A 
ATOM     25  H   UNL A   1      32.876  18.481  25.228  1.00  0.00     0.066 H 
BRANCH  18  26
ATOM     26  N   UNL A   1      31.756  21.010  21.660  1.00  0.00    -0.399 N 
ATOM     27  H   UNL A   1      30.841  21.327  21.478  1.00  0.00     0.156 HD
ATOM     28  H   UNL A   1      32.362  20.801  20.913  1.00  0.00     0.156 HD
ENDBRANCH  18  26
BRANCH  24  29
ATOM     29  O   UNL A   1      33.344  20.283  26.923  1.00  0.00    -0.507 OA
ATOM     30  H   UNL A   1      33.495  20.989  27.521  1.00  0.00     0.293 HD
ENDBRANCH  24  29
ENDBRANCH  14  17
ENDBRANCH  10  13
ENDBRANCH   7  10
ENDBRANCH   4   7
ENDBRANCH   1   4
BRANCH   1  31
ATOM     31  C   UNL A   1      37.880  19.710  24.911  1.00  0.00    -0.036 C 
ATOM     32  H   UNL A   1      38.213  19.703  23.895  1.00  0.00     0.028 H 
ATOM     33  H   UNL A   1      37.616  18.736  25.268  1.00  0.00     0.028 H 
BRANCH  31  34
ATOM     34  C   UNL A   1      39.030  20.200  25.786  1.00  0.00     0.018 C 
ATOM     35  H   UNL A   1      38.647  20.447  26.754  1.00  0.00     0.049 H 
ATOM     36  H   UNL A   1      39.466  21.056  25.315  1.00  0.00     0.049 H 
BRANCH  34  37
ATOM     37  N   UNL A   1      40.064  19.188  25.932  1.00  0.00    -0.352 N 
ATOM     38  C   UNL A   1      41.416  19.343  26.098  1.00  0.00     0.251 C 
ATOM     39  H   UNL A   1      39.748  18.255  25.908  1.00  0.00     0.163 HD
ATOM     40  O   UNL A   1      42.170  18.383  25.978  1.00  0.00    -0.269 OA
BRANCH  38  41
ATOM     41  C   UNL A   1      41.971  20.678  26.413  1.00  0.00     0.039 A 
ATOM     42  C   UNL A   1      42.258  21.554  25.364  1.00  0.00    -0.049 A 
ATOM     43  C   UNL A   1      42.229  21.051  27.735  1.00  0.00    -0.049 A 
ATOM     44  C   UNL A   1      42.758  22.828  25.645  1.00  0.00    -0.053 A 
ATOM     45  H   UNL A   1      42.103  21.262  24.388  1.00  0.00     0.063 H 
ATOM     46  C   UNL A   1      42.662  22.344  28.018  1.00  0.00    -0.053 A 
ATOM     47  H   UNL A   1      42.099  20.371  28.500  1.00  0.00     0.063 H 
ATOM     48  C   UNL A   1      42.937  23.242  26.976  1.00  0.00    -0.014 A 
ATOM     49  H   UNL A   1      42.996  23.468  24.871  1.00  0.00     0.063 H 
ATOM     50  H   UNL A   1      42.782  22.642  28.998  1.00  0.00     0.063 H 
BRANCH  48  51
ATOM     51  C   UNL A   1      43.417  24.610  27.296  1.00  0.00     0.031 A 
ATOM     52  C   UNL A   1      42.469  25.626  27.871  1.00  0.00     0.074 A 
ATOM     53  C   UNL A   1      44.688  24.953  27.011  1.00  0.00     0.049 A 
ATOM     54  N   UNL A   1      42.678  26.888  28.149  1.00  0.00    -0.248 NA
ATOM     55  C   UNL A   1      41.098  25.170  28.147  1.00  0.00    -0.034 C 
ATOM     56  C   UNL A   1      45.689  24.067  26.412  1.00  0.00    -0.036 A 
ATOM     57  N   UNL A   1      45.353  26.142  27.175  1.00  0.00    -0.354 N 
ATOM     58  C   UNL A   1      41.464  27.379  28.613  1.00  0.00     0.074 A 
ATOM     59  C   UNL A   1      40.511  26.292  28.536  1.00  0.00    -0.034 C 
ATOM     60  H   UNL A   1      40.697  24.223  28.060  1.00  0.00     0.065 H 
ATOM     61  C   UNL A   1      46.844  24.738  26.278  1.00  0.00    -0.036 A 
ATOM     62  H   UNL A   1      45.530  23.086  26.137  1.00  0.00     0.065 H 
ATOM     63  C   UNL A   1      46.656  26.109  26.745  1.00  0.00     0.049 A 
ATOM     64  H   UNL A   1      44.934  26.944  27.563  1.00  0.00     0.167 HD
ATOM     65  C   UNL A   1      41.178  28.617  29.081  1.00  0.00     0.037 A 
ATOM     66  H   UNL A   1      39.506  26.381  28.754  1.00  0.00     0.065 H 
ATOM     67  H   UNL A   1      47.723  24.347  25.905  1.00  0.00     0.065 H 
ATOM     68  C   UNL A   1      47.592  27.077  26.723  1.00  0.00     0.037 A 
ATOM     69  C   UNL A   1      42.138  29.684  29.187  1.00  0.00     0.049 A 
ATOM     70  C   UNL A   1      47.244  28.444  27.247  1.00  0.00     0.074 A 
ATOM     71  C   UNL A   1      41.963  30.952  29.711  1.00  0.00    -0.036 A 
ATOM     72  N   UNL A   1      43.455  29.606  28.760  1.00  0.00    -0.354 N 
ATOM     73  N   UNL A   1      46.113  28.875  27.749  1.00  0.00    -0.248 NA
ATOM     74  C   UNL A   1      48.308  29.458  27.208  1.00  0.00    -0.034 C 
ATOM     75  C   UNL A   1      43.160  31.658  29.557  1.00  0.00    -0.036 A 
ATOM     76  H   UNL A   1      41.098  31.316  30.140  1.00  0.00     0.065 H 
ATOM     77  C   UNL A   1      44.097  30.812  28.986  1.00  0.00     0.049 A 
ATOM     78  H   UNL A   1      43.872  28.810  28.355  1.00  0.00     0.167 HD
ATOM     79  C   UNL A   1      46.336  30.196  28.114  1.00  0.00     0.074 A 
ATOM     80  C   UNL A   1      47.715  30.492  27.789  1.00  0.00    -0.034 C 
ATOM     81  H   UNL A   1      49.263  29.384  26.828  1.00  0.00     0.065 H 
ATOM     82  H   UNL A   1      43.320  32.642  29.826  1.00  0.00     0.065 H 
ATOM     83  C   UNL A   1      45.475  31.084  28.669  1.00  0.00     0.037 A 
ATOM     84  H   UNL A   1      48.178  31.393  27.984  1.00  0.00     0.065 H 
BRANCH  65  85
ATOM     85  C   UNL A   1      39.769  28.888  29.522  1.00  0.00     0.064 A 
ATOM     86  C   UNL A   1      38.799  29.371  28.631  1.00  0.00     0.173 A 
ATOM     87  C   UNL A   1      39.370  28.610  30.838  1.00  0.00     0.173 A 
ATOM     88  F   UNL A   1      39.130  29.662  27.364  1.00  0.00    -0.203 F 
ATOM     89  C   UNL A   1      37.488  29.591  29.048  1.00  0.00     0.198 A 
ATOM     90  C   UNL A   1      38.051  28.803  31.245  1.00  0.00     0.198 A 
ATOM     91  F   UNL A   1      40.256  28.141  31.729  1.00  0.00    -0.203 F 
ATOM     92  F   UNL A   1      36.589  30.094  28.191  1.00  0.00    -0.200 F 
ATOM     93  C   UNL A   1      37.114  29.299  30.351  1.00  0.00     0.200 A 
ATOM     94  F   UNL A   1      37.689  28.507  32.500  1.00  0.00    -0.200 F 
ATOM     95  F   UNL A   1      35.849  29.499  30.748  1.00  0.00    -0.200 F 
ENDBRANCH  65  85
BRANCH  68  96
ATOM     96  C   UNL A   1      48.955  26.786  26.207  1.00  0.00     0.064 A 
ATOM     97  C   UNL A   1      49.292  27.056  24.873  1.00  0.00     0.173 A 
ATOM     98  C   UNL A   1      49.942  26.219  27.026  1.00  0.00     0.173 A 
ATOM     99  F   UNL A   1      48.376  27.581  24.045  1.00  0.00    -0.203 F 
ATOM    100  C   UNL A   1      50.554  26.746  24.371  1.00  0.00     0.198 A 
ATOM    101  C   UNL A   1      51.213  25.936  26.531  1.00  0.00     0.198 A 
ATOM    102  F   UNL A   1      49.673  25.946  28.311  1.00  0.00    -0.203 F 
ATOM    103  F   UNL A   1      50.831  26.967  23.079  1.00  0.00    -0.200 F 
ATOM    104  C   UNL A   1      51.515  26.191  25.201  1.00  0.00     0.200 A 
ATOM    105  F   UNL A   1      52.144  25.413  27.340  1.00  0.00    -0.200 F 
ATOM    106  F   UNL A   1      52.728  25.892  24.718  1.00  0.00    -0.200 F 
ENDBRANCH  68  96
BRANCH  83 107
ATOM    107  C   UNL A   1      46.011  32.447  28.998  1.00  0.00     0.064 A 
ATOM    108  C   UNL A   1      46.625  32.719  30.229  1.00  0.00     0.173 A 
ATOM    109  C   UNL A   1      45.944  33.482  28.053  1.00  0.00     0.173 A 
ATOM    110  F   UNL A   1      46.700  31.768  31.173  1.00  0.00    -0.203 F 
ATOM    111  C   UNL A   1      47.130  33.986  30.512  1.00  0.00     0.198 A 
ATOM    112  C   UNL A   1      46.477  34.738  28.326  1.00  0.00     0.198 A 
ATOM    113  F   UNL A   1      45.373  33.270  26.858  1.00  0.00    -0.203 F 
ATOM    114  F   UNL A   1      47.670  34.238  31.713  1.00  0.00    -0.200 F 
ATOM    115  C   UNL A   1      47.062  34.992  29.558  1.00  0.00     0.200 A 
ATOM    116  F   UNL A   1      46.424  35.704  27.399  1.00  0.00    -0.200 F 
ATOM    117  F   UNL A   1      47.556  36.208  29.828  1.00  0.00    -0.200 F 
ENDBRANCH  83 107
ENDBRANCH  48  51
ENDBRANCH  38  41
ENDBRANCH  34  37
ENDBRANCH  31  34
ENDBRANCH   1  31
TORSDOF 15
ENDMDL
MODEL 9
REMARK VINA RESULT:     -11.6      0.726      7.600
REMARK SMILES Nc1ccc(O)c(C(=O)NCCCCCCNC(=O)c2ccc(-c3c4nc(c(-c5c(F)c(F)c(F)c(F)c5F)c5ccc([nH]5)c(-c5c(F)c(F)c(F)c(F)c5F)c5nc(c(-c6c(F)c(F)c(F)c(F)c6F)c6ccc3[nH]6)C=C5)C=C4)cc2)c1
REMARK SMILES IDX 14 1 13 4 12 7 11 10 10 13 8 14 9 15 7 17 2 18 3 19 83 20
REMARK SMILES IDX 4 21 5 24 1 26 6 29 15 31 16 34 17 37 18 38 19 40 20 41
REMARK SMILES IDX 21 42 82 43 22 44 81 46 23 48 24 51 25 52 75 53 26 54 80 55
REMARK SMILES IDX 74 56 76 57 27 58 79 59 73 61 72 63 28 65 60 68 40 69 59 70
REMARK SMILES IDX 41 71 44 72 58 73 77 74 42 75 43 77 57 79 78 80 45 83 29 85
REMARK SMILES IDX 30 86 38 87 31 88 32 89 36 90 39 91 33 92 34 93 37 94 35 95
REMARK SMILES IDX 61 96 62 97 70 98 63 99 64 100 68 101 71 102 65 103 66 104
REMARK SMILES IDX 69 105 67 106 46 107 47 108 55 109 48 110 49 111 53 112
REMARK SMILES IDX 56 113 50 114 51 115 54 116 52 117
REMARK H PARENT 14 2 14 3 13 5 13 6 12 8 12 9 11 11 11 12 10 16 3 22 83 23
REMARK H PARENT 4 25 1 27 1 28 6 30 15 32 15 33 16 35 16 36 17 39 21 45 82 47
REMARK H PARENT 22 49 81 50 80 60 74 62 76 64 79 66 73 67 41 76 44 78 77 81
REMARK H PARENT 42 82 78 84
REMARK Flexibility Score: inf
ROOT
ATOM      1  C   UNL A   1      31.329  30.810  25.755  1.00  0.00    -0.052 C 
ATOM      2  H   UNL A   1      30.361  30.564  25.369  1.00  0.00     0.027 H 
ATOM      3  H   UNL A   1      32.065  30.955  24.992  1.00  0.00     0.027 H 
ENDROOT
BRANCH   1   4
ATOM      4  C   UNL A   1      31.818  29.630  26.605  1.00  0.00    -0.052 C 
ATOM      5  H   UNL A   1      32.486  30.012  27.349  1.00  0.00     0.027 H 
ATOM      6  H   UNL A   1      30.942  29.174  27.017  1.00  0.00     0.027 H 
BRANCH   4   7
ATOM      7  C   UNL A   1      32.551  28.529  25.824  1.00  0.00    -0.036 C 
ATOM      8  H   UNL A   1      33.480  28.325  26.314  1.00  0.00     0.028 H 
ATOM      9  H   UNL A   1      31.911  27.672  25.805  1.00  0.00     0.028 H 
BRANCH   7  10
ATOM     10  C   UNL A   1      32.842  28.915  24.371  1.00  0.00     0.018 C 
ATOM     11  H   UNL A   1      32.256  29.770  24.107  1.00  0.00     0.049 H 
ATOM     12  H   UNL A   1      33.882  29.146  24.269  1.00  0.00     0.049 H 
BRANCH  10  13
ATOM     13  N   UNL A   1      32.507  27.811  23.494  1.00  0.00    -0.352 N 
ATOM     14  C   UNL A   1      31.384  27.451  22.801  1.00  0.00     0.255 C 
ATOM     15  O   UNL A   1      31.451  26.400  22.156  1.00  0.00    -0.269 OA
ATOM     16  H   UNL A   1      33.253  27.182  23.369  1.00  0.00     0.163 HD
BRANCH  14  17
ATOM     17  C   UNL A   1      30.129  28.252  22.705  1.00  0.00     0.083 A 
ATOM     18  C   UNL A   1      27.755  28.654  23.127  1.00  0.00     0.032 A 
ATOM     19  C   UNL A   1      27.867  29.920  22.557  1.00  0.00    -0.035 A 
ATOM     20  C   UNL A   1      28.869  27.803  23.121  1.00  0.00    -0.023 A 
ATOM     21  C   UNL A   1      29.090  30.363  22.058  1.00  0.00    -0.017 A 
ATOM     22  H   UNL A   1      27.039  30.535  22.503  1.00  0.00     0.065 H 
ATOM     23  H   UNL A   1      28.759  26.824  23.430  1.00  0.00     0.065 H 
ATOM     24  C   UNL A   1      30.209  29.541  22.142  1.00  0.00     0.128 A 
ATOM     25  H   UNL A   1      29.165  31.299  21.628  1.00  0.00     0.066 H 
BRANCH  18  26
ATOM     26  N   UNL A   1      26.522  28.197  23.572  1.00  0.00    -0.399 N 
ATOM     27  H   UNL A   1      26.183  28.475  24.454  1.00  0.00     0.156 HD
ATOM     28  H   UNL A   1      25.986  27.596  23.006  1.00  0.00     0.156 HD
ENDBRANCH  18  26
BRANCH  24  29
ATOM     29  O   UNL A   1      31.365  30.074  21.630  1.00  0.00    -0.507 OA
ATOM     30  H   UNL A   1      31.637  30.935  21.884  1.00  0.00     0.293 HD
ENDBRANCH  24  29
ENDBRANCH  14  17
ENDBRANCH  10  13
ENDBRANCH   7  10
ENDBRANCH   4   7
ENDBRANCH   1   4
BRANCH   1  31
ATOM     31  C   UNL A   1      31.218  32.142  26.501  1.00  0.00    -0.036 C 
ATOM     32  H   UNL A   1      30.454  32.047  27.244  1.00  0.00     0.028 H 
ATOM     33  H   UNL A   1      30.993  32.887  25.767  1.00  0.00     0.028 H 
BRANCH  31  34
ATOM     34  C   UNL A   1      32.504  32.583  27.193  1.00  0.00     0.018 C 
ATOM     35  H   UNL A   1      33.330  32.401  26.537  1.00  0.00     0.049 H 
ATOM     36  H   UNL A   1      32.602  32.025  28.100  1.00  0.00     0.049 H 
BRANCH  34  37
ATOM     37  N   UNL A   1      32.474  33.997  27.532  1.00  0.00    -0.352 N 
ATOM     38  C   UNL A   1      33.175  34.675  28.497  1.00  0.00     0.251 C 
ATOM     39  H   UNL A   1      31.862  34.548  26.992  1.00  0.00     0.163 HD
ATOM     40  O   UNL A   1      32.863  35.822  28.798  1.00  0.00    -0.269 OA
BRANCH  38  41
ATOM     41  C   UNL A   1      34.305  34.016  29.186  1.00  0.00     0.039 A 
ATOM     42  C   UNL A   1      34.034  33.027  30.135  1.00  0.00    -0.049 A 
ATOM     43  C   UNL A   1      35.624  34.390  28.915  1.00  0.00    -0.049 A 
ATOM     44  C   UNL A   1      35.091  32.376  30.776  1.00  0.00    -0.053 A 
ATOM     45  H   UNL A   1      33.059  32.779  30.361  1.00  0.00     0.063 H 
ATOM     46  C   UNL A   1      36.677  33.694  29.503  1.00  0.00    -0.053 A 
ATOM     47  H   UNL A   1      35.818  35.180  28.280  1.00  0.00     0.063 H 
ATOM     48  C   UNL A   1      36.420  32.685  30.444  1.00  0.00    -0.014 A 
ATOM     49  H   UNL A   1      34.893  31.664  31.496  1.00  0.00     0.063 H 
ATOM     50  H   UNL A   1      37.650  33.921  29.247  1.00  0.00     0.063 H 
BRANCH  48  51
ATOM     51  C   UNL A   1      37.557  31.968  31.076  1.00  0.00     0.031 A 
ATOM     52  C   UNL A   1      37.999  32.334  32.466  1.00  0.00     0.074 A 
ATOM     53  C   UNL A   1      38.227  31.034  30.375  1.00  0.00     0.049 A 
ATOM     54  N   UNL A   1      39.011  31.877  33.160  1.00  0.00    -0.248 NA
ATOM     55  C   UNL A   1      37.216  33.369  33.159  1.00  0.00    -0.034 C 
ATOM     56  C   UNL A   1      37.919  30.623  29.004  1.00  0.00    -0.036 A 
ATOM     57  N   UNL A   1      39.314  30.268  30.715  1.00  0.00    -0.354 N 
ATOM     58  C   UNL A   1      38.996  32.580  34.357  1.00  0.00     0.074 A 
ATOM     59  C   UNL A   1      37.904  33.526  34.280  1.00  0.00    -0.034 C 
ATOM     60  H   UNL A   1      36.354  33.848  32.852  1.00  0.00     0.065 H 
ATOM     61  C   UNL A   1      38.784  29.668  28.627  1.00  0.00    -0.036 A 
ATOM     62  H   UNL A   1      37.160  31.008  28.421  1.00  0.00     0.065 H 
ATOM     63  C   UNL A   1      39.729  29.425  29.713  1.00  0.00     0.049 A 
ATOM     64  H   UNL A   1      39.755  30.319  31.593  1.00  0.00     0.167 HD
ATOM     65  C   UNL A   1      39.806  32.432  35.433  1.00  0.00     0.037 A 
ATOM     66  H   UNL A   1      37.691  34.232  35.003  1.00  0.00     0.065 H 
ATOM     67  H   UNL A   1      38.780  29.182  27.716  1.00  0.00     0.065 H 
ATOM     68  C   UNL A   1      40.760  28.559  29.674  1.00  0.00     0.037 A 
ATOM     69  C   UNL A   1      40.869  31.466  35.518  1.00  0.00     0.049 A 
ATOM     70  C   UNL A   1      41.644  28.418  30.883  1.00  0.00     0.074 A 
ATOM     71  C   UNL A   1      41.702  31.192  36.589  1.00  0.00    -0.036 A 
ATOM     72  N   UNL A   1      41.246  30.614  34.490  1.00  0.00    -0.354 N 
ATOM     73  N   UNL A   1      41.576  29.038  32.036  1.00  0.00    -0.248 NA
ATOM     74  C   UNL A   1      42.747  27.451  30.786  1.00  0.00    -0.034 C 
ATOM     75  C   UNL A   1      42.613  30.208  36.193  1.00  0.00    -0.036 A 
ATOM     76  H   UNL A   1      41.658  31.637  37.519  1.00  0.00     0.065 H 
ATOM     77  C   UNL A   1      42.315  29.832  34.894  1.00  0.00     0.049 A 
ATOM     78  H   UNL A   1      40.817  30.573  33.605  1.00  0.00     0.167 HD
ATOM     79  C   UNL A   1      42.602  28.515  32.811  1.00  0.00     0.074 A 
ATOM     80  C   UNL A   1      43.270  27.517  32.003  1.00  0.00    -0.034 C 
ATOM     81  H   UNL A   1      43.037  26.873  29.983  1.00  0.00     0.065 H 
ATOM     82  H   UNL A   1      43.378  29.827  36.772  1.00  0.00     0.065 H 
ATOM     83  C   UNL A   1      42.959  28.833  34.080  1.00  0.00     0.037 A 
ATOM     84  H   UNL A   1      44.054  26.932  32.331  1.00  0.00     0.065 H 
BRANCH  65  85
ATOM     85  C   UNL A   1      39.573  33.332  36.611  1.00  0.00     0.064 A 
ATOM     86  C   UNL A   1      38.711  32.969  37.656  1.00  0.00     0.173 A 
ATOM     87  C   UNL A   1      40.261  34.550  36.721  1.00  0.00     0.173 A 
ATOM     88  F   UNL A   1      38.021  31.820  37.595  1.00  0.00    -0.203 F 
ATOM     89  C   UNL A   1      38.526  33.803  38.757  1.00  0.00     0.198 A 
ATOM     90  C   UNL A   1      40.097  35.369  37.837  1.00  0.00     0.198 A 
ATOM     91  F   UNL A   1      41.101  34.943  35.753  1.00  0.00    -0.203 F 
ATOM     92  F   UNL A   1      37.664  33.455  39.722  1.00  0.00    -0.200 F 
ATOM     93  C   UNL A   1      39.225  34.997  38.850  1.00  0.00     0.200 A 
ATOM     94  F   UNL A   1      40.784  36.515  37.932  1.00  0.00    -0.200 F 
ATOM     95  F   UNL A   1      39.057  35.794  39.915  1.00  0.00    -0.200 F 
ENDBRANCH  65  85
BRANCH  68  96
ATOM     96  C   UNL A   1      41.000  27.740  28.457  1.00  0.00     0.064 A 
ATOM     97  C   UNL A   1      41.863  28.190  27.447  1.00  0.00     0.173 A 
ATOM     98  C   UNL A   1      40.365  26.504  28.269  1.00  0.00     0.173 A 
ATOM     99  F   UNL A   1      42.479  29.375  27.573  1.00  0.00    -0.203 F 
ATOM    100  C   UNL A   1      42.059  27.448  26.284  1.00  0.00     0.198 A 
ATOM    101  C   UNL A   1      40.585  25.750  27.119  1.00  0.00     0.198 A 
ATOM    102  F   UNL A   1      39.534  26.026  29.207  1.00  0.00    -0.203 F 
ATOM    103  F   UNL A   1      42.849  27.927  25.314  1.00  0.00    -0.200 F 
ATOM    104  C   UNL A   1      41.425  26.227  26.123  1.00  0.00     0.200 A 
ATOM    105  F   UNL A   1      39.980  24.563  26.973  1.00  0.00    -0.200 F 
ATOM    106  F   UNL A   1      41.614  25.514  25.005  1.00  0.00    -0.200 F 
ENDBRANCH  68  96
BRANCH  83 107
ATOM    107  C   UNL A   1      44.097  28.066  34.687  1.00  0.00     0.064 A 
ATOM    108  C   UNL A   1      43.892  26.856  35.365  1.00  0.00     0.173 A 
ATOM    109  C   UNL A   1      45.415  28.529  34.552  1.00  0.00     0.173 A 
ATOM    110  F   UNL A   1      42.649  26.378  35.534  1.00  0.00    -0.203 F 
ATOM    111  C   UNL A   1      44.962  26.150  35.909  1.00  0.00     0.198 A 
ATOM    112  C   UNL A   1      46.485  27.805  35.069  1.00  0.00     0.198 A 
ATOM    113  F   UNL A   1      45.666  29.678  33.906  1.00  0.00    -0.203 F 
ATOM    114  F   UNL A   1      44.738  25.020  36.595  1.00  0.00    -0.200 F 
ATOM    115  C   UNL A   1      46.258  26.621  35.754  1.00  0.00     0.200 A 
ATOM    116  F   UNL A   1      47.737  28.255  34.908  1.00  0.00    -0.200 F 
ATOM    117  F   UNL A   1      47.287  25.936  36.271  1.00  0.00    -0.200 F 
ENDBRANCH  83 107
ENDBRANCH  48  51
ENDBRANCH  38  41
ENDBRANCH  34  37
ENDBRANCH  31  34
ENDBRANCH   1  31
TORSDOF 15
ENDMDL
MODEL 10
REMARK VINA RESULT:     -11.6      1.039      7.748
REMARK SMILES Nc1ccc(O)c(C(=O)NCCCCCCNC(=O)c2ccc(-c3c4nc(c(-c5c(F)c(F)c(F)c(F)c5F)c5ccc([nH]5)c(-c5c(F)c(F)c(F)c(F)c5F)c5nc(c(-c6c(F)c(F)c(F)c(F)c6F)c6ccc3[nH]6)C=C5)C=C4)cc2)c1
REMARK SMILES IDX 14 1 13 4 12 7 11 10 10 13 8 14 9 15 7 17 2 18 3 19 83 20
REMARK SMILES IDX 4 21 5 24 1 26 6 29 15 31 16 34 17 37 18 38 19 40 20 41
REMARK SMILES IDX 21 42 82 43 22 44 81 46 23 48 24 51 25 52 75 53 26 54 80 55
REMARK SMILES IDX 74 56 76 57 27 58 79 59 73 61 72 63 28 65 60 68 40 69 59 70
REMARK SMILES IDX 41 71 44 72 58 73 77 74 42 75 43 77 57 79 78 80 45 83 29 85
REMARK SMILES IDX 30 86 38 87 31 88 32 89 36 90 39 91 33 92 34 93 37 94 35 95
REMARK SMILES IDX 61 96 62 97 70 98 63 99 64 100 68 101 71 102 65 103 66 104
REMARK SMILES IDX 69 105 67 106 46 107 47 108 55 109 48 110 49 111 53 112
REMARK SMILES IDX 56 113 50 114 51 115 54 116 52 117
REMARK H PARENT 14 2 14 3 13 5 13 6 12 8 12 9 11 11 11 12 10 16 3 22 83 23
REMARK H PARENT 4 25 1 27 1 28 6 30 15 32 15 33 16 35 16 36 17 39 21 45 82 47
REMARK H PARENT 22 49 81 50 80 60 74 62 76 64 79 66 73 67 41 76 44 78 77 81
REMARK H PARENT 42 82 78 84
REMARK Flexibility Score: inf
ROOT
ATOM      1  C   UNL A   1      31.394  30.963  25.874  1.00  0.00    -0.052 C 
ATOM      2  H   UNL A   1      30.395  30.609  25.734  1.00  0.00     0.027 H 
ATOM      3  H   UNL A   1      31.937  31.074  24.959  1.00  0.00     0.027 H 
ENDROOT
BRANCH   1   4
ATOM      4  C   UNL A   1      32.158  29.922  26.703  1.00  0.00    -0.052 C 
ATOM      5  H   UNL A   1      33.087  30.357  27.008  1.00  0.00     0.027 H 
ATOM      6  H   UNL A   1      31.521  29.666  27.524  1.00  0.00     0.027 H 
BRANCH   4   7
ATOM      7  C   UNL A   1      32.464  28.607  25.968  1.00  0.00    -0.036 C 
ATOM      8  H   UNL A   1      32.553  28.815  24.922  1.00  0.00     0.028 H 
ATOM      9  H   UNL A   1      33.372  28.217  26.379  1.00  0.00     0.028 H 
BRANCH   7  10
ATOM     10  C   UNL A   1      31.380  27.544  26.164  1.00  0.00     0.018 C 
ATOM     11  H   UNL A   1      31.629  26.933  27.006  1.00  0.00     0.049 H 
ATOM     12  H   UNL A   1      30.440  28.026  26.335  1.00  0.00     0.049 H 
BRANCH  10  13
ATOM     13  N   UNL A   1      31.285  26.717  24.978  1.00  0.00    -0.352 N 
ATOM     14  C   UNL A   1      30.537  26.774  23.833  1.00  0.00     0.255 C 
ATOM     15  O   UNL A   1      30.704  25.855  23.024  1.00  0.00    -0.269 OA
ATOM     16  H   UNL A   1      31.894  25.944  25.001  1.00  0.00     0.163 HD
BRANCH  14  17
ATOM     17  C   UNL A   1      29.606  27.876  23.459  1.00  0.00     0.083 A 
ATOM     18  C   UNL A   1      29.092  30.113  22.615  1.00  0.00     0.032 A 
ATOM     19  C   UNL A   1      27.731  29.825  22.678  1.00  0.00    -0.035 A 
ATOM     20  C   UNL A   1      30.012  29.164  23.084  1.00  0.00    -0.023 A 
ATOM     21  C   UNL A   1      27.293  28.581  23.126  1.00  0.00    -0.017 A 
ATOM     22  H   UNL A   1      27.041  30.537  22.389  1.00  0.00     0.065 H 
ATOM     23  H   UNL A   1      31.010  29.418  23.153  1.00  0.00     0.065 H 
ATOM     24  C   UNL A   1      28.222  27.616  23.502  1.00  0.00     0.128 A 
ATOM     25  H   UNL A   1      26.283  28.376  23.180  1.00  0.00     0.066 H 
BRANCH  18  26
ATOM     26  N   UNL A   1      29.521  31.373  22.220  1.00  0.00    -0.399 N 
ATOM     27  H   UNL A   1      29.148  31.787  21.408  1.00  0.00     0.156 HD
ATOM     28  H   UNL A   1      30.197  31.852  22.751  1.00  0.00     0.156 HD
ENDBRANCH  18  26
BRANCH  24  29
ATOM     29  O   UNL A   1      27.689  26.423  23.920  1.00  0.00    -0.507 OA
ATOM     30  H   UNL A   1      28.013  26.011  24.698  1.00  0.00     0.293 HD
ENDBRANCH  24  29
ENDBRANCH  14  17
ENDBRANCH  10  13
ENDBRANCH   7  10
ENDBRANCH   4   7
ENDBRANCH   1   4
BRANCH   1  31
ATOM     31  C   UNL A   1      31.320  32.359  26.500  1.00  0.00    -0.036 C 
ATOM     32  H   UNL A   1      30.548  32.353  27.240  1.00  0.00     0.028 H 
ATOM     33  H   UNL A   1      31.124  33.043  25.701  1.00  0.00     0.028 H 
BRANCH  31  34
ATOM     34  C   UNL A   1      32.615  32.819  27.163  1.00  0.00     0.018 C 
ATOM     35  H   UNL A   1      33.412  32.748  26.453  1.00  0.00     0.049 H 
ATOM     36  H   UNL A   1      32.797  32.191  28.010  1.00  0.00     0.049 H 
BRANCH  34  37
ATOM     37  N   UNL A   1      32.521  34.193  27.629  1.00  0.00    -0.352 N 
ATOM     38  C   UNL A   1      33.170  34.804  28.672  1.00  0.00     0.251 C 
ATOM     39  H   UNL A   1      31.901  34.768  27.125  1.00  0.00     0.163 HD
ATOM     40  O   UNL A   1      32.806  35.906  29.068  1.00  0.00    -0.269 OA
BRANCH  38  41
ATOM     41  C   UNL A   1      34.308  34.126  29.329  1.00  0.00     0.039 A 
ATOM     42  C   UNL A   1      34.049  33.200  30.342  1.00  0.00    -0.049 A 
ATOM     43  C   UNL A   1      35.624  34.424  28.965  1.00  0.00    -0.049 A 
ATOM     44  C   UNL A   1      35.112  32.531  30.955  1.00  0.00    -0.053 A 
ATOM     45  H   UNL A   1      33.079  33.010  30.635  1.00  0.00     0.063 H 
ATOM     46  C   UNL A   1      36.677  33.707  29.528  1.00  0.00    -0.053 A 
ATOM     47  H   UNL A   1      35.816  35.171  28.280  1.00  0.00     0.063 H 
ATOM     48  C   UNL A   1      36.432  32.760  30.533  1.00  0.00    -0.014 A 
ATOM     49  H   UNL A   1      34.925  31.866  31.721  1.00  0.00     0.063 H 
ATOM     50  H   UNL A   1      37.643  33.875  29.206  1.00  0.00     0.063 H 
BRANCH  48  51
ATOM     51  C   UNL A   1      37.570  32.021  31.136  1.00  0.00     0.031 A 
ATOM     52  C   UNL A   1      38.038  32.362  32.524  1.00  0.00     0.074 A 
ATOM     53  C   UNL A   1      38.219  31.090  30.411  1.00  0.00     0.049 A 
ATOM     54  N   UNL A   1      39.055  31.883  33.195  1.00  0.00    -0.248 NA
ATOM     55  C   UNL A   1      37.277  33.394  33.244  1.00  0.00    -0.034 C 
ATOM     56  C   UNL A   1      37.885  30.704  29.039  1.00  0.00    -0.036 A 
ATOM     57  N   UNL A   1      39.303  30.308  30.722  1.00  0.00    -0.354 N 
ATOM     58  C   UNL A   1      39.067  32.568  34.403  1.00  0.00     0.074 A 
ATOM     59  C   UNL A   1      37.984  33.527  34.357  1.00  0.00    -0.034 C 
ATOM     60  H   UNL A   1      36.416  33.887  32.958  1.00  0.00     0.065 H 
ATOM     61  C   UNL A   1      38.733  29.745  28.634  1.00  0.00    -0.036 A 
ATOM     62  H   UNL A   1      37.121  31.105  28.474  1.00  0.00     0.065 H 
ATOM     63  C   UNL A   1      39.692  29.476  29.702  1.00  0.00     0.049 A 
ATOM     64  H   UNL A   1      39.758  30.342  31.594  1.00  0.00     0.167 HD
ATOM     65  C   UNL A   1      39.892  32.396  35.463  1.00  0.00     0.037 A 
ATOM     66  H   UNL A   1      37.790  34.224  35.093  1.00  0.00     0.065 H 
ATOM     67  H   UNL A   1      38.710  29.273  27.716  1.00  0.00     0.065 H 
ATOM     68  C   UNL A   1      40.713  28.599  29.633  1.00  0.00     0.037 A 
ATOM     69  C   UNL A   1      40.946  31.417  35.517  1.00  0.00     0.049 A 
ATOM     70  C   UNL A   1      41.615  28.431  30.825  1.00  0.00     0.074 A 
ATOM     71  C   UNL A   1      41.792  31.118  36.570  1.00  0.00    -0.036 A 
ATOM     72  N   UNL A   1      41.298  30.577  34.471  1.00  0.00    -0.354 N 
ATOM     73  N   UNL A   1      41.572  29.034  31.989  1.00  0.00    -0.248 NA
ATOM     74  C   UNL A   1      42.705  27.454  30.697  1.00  0.00    -0.034 C 
ATOM     75  C   UNL A   1      42.686  30.131  36.146  1.00  0.00    -0.036 A 
ATOM     76  H   UNL A   1      41.768  31.550  37.507  1.00  0.00     0.065 H 
ATOM     77  C   UNL A   1      42.364  29.777  34.846  1.00  0.00     0.049 A 
ATOM     78  H   UNL A   1      40.854  30.554  33.592  1.00  0.00     0.167 HD
ATOM     79  C   UNL A   1      42.604  28.489  32.740  1.00  0.00     0.074 A 
ATOM     80  C   UNL A   1      43.248  27.496  31.906  1.00  0.00    -0.034 C 
ATOM     81  H   UNL A   1      42.977  26.885  29.881  1.00  0.00     0.065 H 
ATOM     82  H   UNL A   1      43.456  29.732  36.707  1.00  0.00     0.065 H 
ATOM     83  C   UNL A   1      42.984  28.784  34.007  1.00  0.00     0.037 A 
ATOM     84  H   UNL A   1      44.030  26.897  32.214  1.00  0.00     0.065 H 
BRANCH  65  85
ATOM     85  C   UNL A   1      39.687  33.281  36.658  1.00  0.00     0.064 A 
ATOM     86  C   UNL A   1      40.365  34.501  36.795  1.00  0.00     0.173 A 
ATOM     87  C   UNL A   1      38.763  32.928  37.654  1.00  0.00     0.173 A 
ATOM     88  F   UNL A   1      41.267  34.880  35.878  1.00  0.00    -0.203 F 
ATOM     89  C   UNL A   1      40.144  35.325  37.897  1.00  0.00     0.198 A 
ATOM     90  C   UNL A   1      38.522  33.768  38.739  1.00  0.00     0.198 A 
ATOM     91  F   UNL A   1      38.084  31.775  37.569  1.00  0.00    -0.203 F 
ATOM     92  F   UNL A   1      40.834  36.466  38.028  1.00  0.00    -0.200 F 
ATOM     93  C   UNL A   1      39.217  34.962  38.862  1.00  0.00     0.200 A 
ATOM     94  F   UNL A   1      37.616  33.422  39.663  1.00  0.00    -0.200 F 
ATOM     95  F   UNL A   1      38.995  35.761  39.915  1.00  0.00    -0.200 F 
ENDBRANCH  65  85
BRANCH  68  96
ATOM     96  C   UNL A   1      40.926  27.796  28.401  1.00  0.00     0.064 A 
ATOM     97  C   UNL A   1      40.327  26.538  28.251  1.00  0.00     0.173 A 
ATOM     98  C   UNL A   1      41.742  28.258  27.358  1.00  0.00     0.173 A 
ATOM     99  F   UNL A   1      39.553  26.044  29.229  1.00  0.00    -0.203 F 
ATOM    100  C   UNL A   1      40.557  25.760  27.117  1.00  0.00     0.198 A 
ATOM    101  C   UNL A   1      41.948  27.493  26.212  1.00  0.00     0.198 A 
ATOM    102  F   UNL A   1      42.335  29.458  27.450  1.00  0.00    -0.203 F 
ATOM    103  F   UNL A   1      40.012  24.540  27.024  1.00  0.00    -0.200 F 
ATOM    104  C   UNL A   1      41.363  26.240  26.097  1.00  0.00     0.200 A 
ATOM    105  F   UNL A   1      42.716  27.967  25.222  1.00  0.00    -0.200 F 
ATOM    106  F   UNL A   1      41.584  25.493  25.008  1.00  0.00    -0.200 F 
ENDBRANCH  68  96
BRANCH  83 107
ATOM    107  C   UNL A   1      44.123  27.995  34.585  1.00  0.00     0.064 A 
ATOM    108  C   UNL A   1      45.441  28.473  34.551  1.00  0.00     0.173 A 
ATOM    109  C   UNL A   1      43.885  26.764  35.214  1.00  0.00     0.173 A 
ATOM    110  F   UNL A   1      45.723  29.637  33.947  1.00  0.00    -0.203 F 
ATOM    111  C   UNL A   1      46.484  27.734  35.105  1.00  0.00     0.198 A 
ATOM    112  C   UNL A   1      44.924  26.043  35.795  1.00  0.00     0.198 A 
ATOM    113  F   UNL A   1      42.641  26.267  35.279  1.00  0.00    -0.203 F 
ATOM    114  F   UNL A   1      47.742  28.187  35.020  1.00  0.00    -0.200 F 
ATOM    115  C   UNL A   1      46.224  26.524  35.733  1.00  0.00     0.200 A 
ATOM    116  F   UNL A   1      44.670  24.882  36.412  1.00  0.00    -0.200 F 
ATOM    117  F   UNL A   1      47.227  25.819  36.273  1.00  0.00    -0.200 F 
ENDBRANCH  83 107
ENDBRANCH  48  51
ENDBRANCH  38  41
ENDBRANCH  34  37
ENDBRANCH  31  34
ENDBRANCH   1  31
TORSDOF 15
ENDMDL
