MODEL 1
REMARK VINA RESULT:     -13.0      0.000      0.000
REMARK SMILES O=C(NCCCCCCNC(=O)c1ccc(-n2cc(CSc3nc4ccccc4c(=O)n3-c3ccccc3)nn2)cc1)c1ccc(-c2c3nc(c(-c4c(F)c(F)c(F)c(F)c4F)c4ccc([nH]4)c(-c4c(F)c(F)c(F)c(F)c4F)c4nc(c(-c5c(F)c(F)c(F)c(F)c5F)c5ccc2[nH]5)C=C4)C=C3)cc1
REMARK SMILES IDX 8 1 7 4 6 7 5 10 4 13 3 16 1 17 2 18 43 20 44 21 105 22
REMARK SMILES IDX 45 23 104 25 46 27 47 30 48 31 98 32 49 33 103 34 97 35
REMARK SMILES IDX 99 36 50 37 102 38 96 40 95 42 51 44 83 47 63 48 82 49 64 50
REMARK SMILES IDX 67 51 81 52 100 53 65 54 66 56 80 58 101 59 68 62 52 64
REMARK SMILES IDX 53 65 61 66 54 67 55 68 59 69 62 70 56 71 57 72 60 73 58 74
REMARK SMILES IDX 84 75 85 76 93 77 86 78 87 79 91 80 94 81 88 82 89 83 92 84
REMARK SMILES IDX 90 85 69 86 70 87 78 88 71 89 72 90 76 91 79 92 73 93 74 94
REMARK SMILES IDX 77 95 75 96 9 97 10 100 11 101 12 103 13 104 14 105 42 106
REMARK SMILES IDX 15 107 41 109 16 111 17 114 18 115 40 116 19 117 39 119
REMARK SMILES IDX 20 120 21 123 22 124 23 125 32 126 24 127 30 128 25 129
REMARK SMILES IDX 29 130 31 131 26 132 28 134 27 135 33 139 34 140 38 141
REMARK SMILES IDX 35 142 37 144 36 146
REMARK H PARENT 8 2 8 3 7 5 7 6 6 8 6 9 5 11 5 12 4 14 4 15 3 19 44 24 105 26
REMARK H PARENT 45 28 104 29 103 39 97 41 99 43 102 45 96 46 64 55 67 57
REMARK H PARENT 100 60 65 61 101 63 9 98 9 99 10 102 14 108 42 110 15 112
REMARK H PARENT 41 113 18 118 20 121 20 122 25 133 26 136 28 137 27 138 34 143
REMARK H PARENT 38 145 35 147 37 148 36 149
REMARK Flexibility Score: inf
ROOT
ATOM      1  C   UNL A   1      40.655  23.037  26.864  1.00  0.00    -0.036 C 
ATOM      2  H   UNL A   1      41.127  22.832  25.925  1.00  0.00     0.028 H 
ATOM      3  H   UNL A   1      40.817  24.037  27.209  1.00  0.00     0.028 H 
ENDROOT
BRANCH   1   4
ATOM      4  C   UNL A   1      41.272  22.114  27.918  1.00  0.00    -0.052 C 
ATOM      5  H   UNL A   1      42.158  22.584  28.289  1.00  0.00     0.027 H 
ATOM      6  H   UNL A   1      40.516  21.970  28.661  1.00  0.00     0.027 H 
BRANCH   4   7
ATOM      7  C   UNL A   1      41.651  20.714  27.427  1.00  0.00    -0.052 C 
ATOM      8  H   UNL A   1      42.458  20.360  28.034  1.00  0.00     0.027 H 
ATOM      9  H   UNL A   1      40.760  20.128  27.503  1.00  0.00     0.027 H 
BRANCH   7  10
ATOM     10  C   UNL A   1      42.090  20.615  25.961  1.00  0.00    -0.036 C 
ATOM     11  H   UNL A   1      41.303  20.145  25.409  1.00  0.00     0.028 H 
ATOM     12  H   UNL A   1      42.293  21.616  25.642  1.00  0.00     0.028 H 
BRANCH  10  13
ATOM     13  C   UNL A   1      43.375  19.822  25.722  1.00  0.00     0.018 C 
ATOM     14  H   UNL A   1      43.853  19.663  26.666  1.00  0.00     0.049 H 
ATOM     15  H   UNL A   1      43.089  18.907  25.245  1.00  0.00     0.049 H 
BRANCH  13  16
ATOM     16  N   UNL A   1      44.317  20.475  24.839  1.00  0.00    -0.352 N 
ATOM     17  O   UNL A   1      45.780  21.871  23.959  1.00  0.00    -0.269 OA
ATOM     18  C   UNL A   1      44.853  21.728  24.762  1.00  0.00     0.251 C 
ATOM     19  H   UNL A   1      44.647  19.877  24.131  1.00  0.00     0.163 HD
BRANCH  18  20
ATOM     20  C   UNL A   1      44.359  22.923  25.496  1.00  0.00     0.039 A 
ATOM     21  C   UNL A   1      43.558  23.939  24.973  1.00  0.00    -0.049 A 
ATOM     22  C   UNL A   1      44.820  23.047  26.821  1.00  0.00    -0.049 A 
ATOM     23  C   UNL A   1      43.321  25.097  25.707  1.00  0.00    -0.053 A 
ATOM     24  H   UNL A   1      43.139  23.830  24.036  1.00  0.00     0.063 H 
ATOM     25  C   UNL A   1      44.580  24.195  27.564  1.00  0.00    -0.053 A 
ATOM     26  H   UNL A   1      45.347  22.270  27.249  1.00  0.00     0.063 H 
ATOM     27  C   UNL A   1      43.872  25.240  26.983  1.00  0.00    -0.014 A 
ATOM     28  H   UNL A   1      42.739  25.851  25.309  1.00  0.00     0.063 H 
ATOM     29  H   UNL A   1      44.923  24.271  28.534  1.00  0.00     0.063 H 
BRANCH  27  30
ATOM     30  C   UNL A   1      43.568  26.447  27.742  1.00  0.00     0.031 A 
ATOM     31  C   UNL A   1      44.533  27.563  27.529  1.00  0.00     0.074 A 
ATOM     32  C   UNL A   1      42.433  26.598  28.457  1.00  0.00     0.049 A 
ATOM     33  N   UNL A   1      45.269  28.166  28.405  1.00  0.00    -0.248 NA
ATOM     34  C   UNL A   1      44.796  27.982  26.141  1.00  0.00    -0.034 C 
ATOM     35  C   UNL A   1      41.278  25.698  28.516  1.00  0.00    -0.036 A 
ATOM     36  N   UNL A   1      42.029  27.654  29.219  1.00  0.00    -0.354 N 
ATOM     37  C   UNL A   1      45.962  29.158  27.711  1.00  0.00     0.074 A 
ATOM     38  C   UNL A   1      45.748  28.900  26.313  1.00  0.00    -0.034 C 
ATOM     39  H   UNL A   1      44.359  27.652  25.266  1.00  0.00     0.065 H 
ATOM     40  C   UNL A   1      40.231  26.347  29.076  1.00  0.00    -0.036 A 
ATOM     41  H   UNL A   1      41.266  24.721  28.183  1.00  0.00     0.065 H 
ATOM     42  C   UNL A   1      40.674  27.654  29.530  1.00  0.00     0.049 A 
ATOM     43  H   UNL A   1      42.646  28.358  29.524  1.00  0.00     0.167 HD
ATOM     44  C   UNL A   1      46.463  30.249  28.355  1.00  0.00     0.037 A 
ATOM     45  H   UNL A   1      46.261  29.363  25.546  1.00  0.00     0.065 H 
ATOM     46  H   UNL A   1      39.273  25.974  29.166  1.00  0.00     0.065 H 
ATOM     47  C   UNL A   1      39.963  28.682  30.061  1.00  0.00     0.037 A 
ATOM     48  C   UNL A   1      46.616  29.991  29.764  1.00  0.00     0.049 A 
ATOM     49  C   UNL A   1      40.929  29.625  30.676  1.00  0.00     0.074 A 
ATOM     50  C   UNL A   1      47.351  29.099  30.520  1.00  0.00    -0.036 A 
ATOM     51  N   UNL A   1      45.675  30.506  30.620  1.00  0.00    -0.354 N 
ATOM     52  N   UNL A   1      41.633  29.353  31.739  1.00  0.00    -0.248 NA
ATOM     53  C   UNL A   1      41.447  30.696  29.838  1.00  0.00    -0.034 C 
ATOM     54  C   UNL A   1      46.505  28.763  31.619  1.00  0.00    -0.036 A 
ATOM     55  H   UNL A   1      48.305  28.753  30.333  1.00  0.00     0.065 H 
ATOM     56  C   UNL A   1      45.336  29.512  31.497  1.00  0.00     0.049 A 
ATOM     57  H   UNL A   1      45.311  31.421  30.606  1.00  0.00     0.167 HD
ATOM     58  C   UNL A   1      42.882  29.891  31.476  1.00  0.00     0.074 A 
ATOM     59  C   UNL A   1      42.686  30.773  30.328  1.00  0.00    -0.034 C 
ATOM     60  H   UNL A   1      40.990  31.238  29.088  1.00  0.00     0.065 H 
ATOM     61  H   UNL A   1      46.720  28.087  32.368  1.00  0.00     0.065 H 
ATOM     62  C   UNL A   1      44.006  29.351  32.029  1.00  0.00     0.037 A 
ATOM     63  H   UNL A   1      43.422  31.384  29.939  1.00  0.00     0.065 H 
BRANCH  44  64
ATOM     64  C   UNL A   1      46.413  31.662  27.803  1.00  0.00     0.064 A 
ATOM     65  C   UNL A   1      45.172  32.165  27.355  1.00  0.00     0.173 A 
ATOM     66  C   UNL A   1      47.546  32.389  27.379  1.00  0.00     0.173 A 
ATOM     67  F   UNL A   1      44.023  31.569  27.707  1.00  0.00    -0.203 F 
ATOM     68  C   UNL A   1      45.088  33.220  26.442  1.00  0.00     0.198 A 
ATOM     69  C   UNL A   1      47.453  33.472  26.505  1.00  0.00     0.198 A 
ATOM     70  F   UNL A   1      48.794  32.028  27.693  1.00  0.00    -0.203 F 
ATOM     71  F   UNL A   1      43.898  33.556  25.924  1.00  0.00    -0.200 F 
ATOM     72  C   UNL A   1      46.230  33.859  26.003  1.00  0.00     0.200 A 
ATOM     73  F   UNL A   1      48.574  34.076  26.088  1.00  0.00    -0.200 F 
ATOM     74  F   UNL A   1      46.161  34.812  25.065  1.00  0.00    -0.200 F 
ENDBRANCH  44  64
BRANCH  47  75
ATOM     75  C   UNL A   1      38.560  29.077  29.773  1.00  0.00     0.064 A 
ATOM     76  C   UNL A   1      37.690  29.483  30.799  1.00  0.00     0.173 A 
ATOM     77  C   UNL A   1      38.135  29.338  28.456  1.00  0.00     0.173 A 
ATOM     78  F   UNL A   1      38.040  29.322  32.084  1.00  0.00    -0.203 F 
ATOM     79  C   UNL A   1      36.478  30.130  30.523  1.00  0.00     0.198 A 
ATOM     80  C   UNL A   1      36.925  29.977  28.182  1.00  0.00     0.198 A 
ATOM     81  F   UNL A   1      38.931  29.069  27.412  1.00  0.00    -0.203 F 
ATOM     82  F   UNL A   1      35.704  30.559  31.530  1.00  0.00    -0.200 F 
ATOM     83  C   UNL A   1      36.103  30.386  29.215  1.00  0.00     0.200 A 
ATOM     84  F   UNL A   1      36.594  30.255  26.913  1.00  0.00    -0.200 F 
ATOM     85  F   UNL A   1      34.974  31.059  28.951  1.00  0.00    -0.200 F 
ENDBRANCH  47  75
BRANCH  62  86
ATOM     86  C   UNL A   1      43.831  28.336  33.122  1.00  0.00     0.064 A 
ATOM     87  C   UNL A   1      43.722  26.953  32.900  1.00  0.00     0.173 A 
ATOM     88  C   UNL A   1      43.921  28.772  34.449  1.00  0.00     0.173 A 
ATOM     89  F   UNL A   1      43.734  26.449  31.659  1.00  0.00    -0.203 F 
ATOM     90  C   UNL A   1      43.659  26.054  33.962  1.00  0.00     0.198 A 
ATOM     91  C   UNL A   1      43.896  27.869  35.508  1.00  0.00     0.198 A 
ATOM     92  F   UNL A   1      44.085  30.077  34.719  1.00  0.00    -0.203 F 
ATOM     93  F   UNL A   1      43.546  24.738  33.726  1.00  0.00    -0.200 F 
ATOM     94  C   UNL A   1      43.755  26.513  35.265  1.00  0.00     0.200 A 
ATOM     95  F   UNL A   1      44.043  28.313  36.764  1.00  0.00    -0.200 F 
ATOM     96  F   UNL A   1      43.741  25.645  36.287  1.00  0.00    -0.200 F 
ENDBRANCH  62  86
ENDBRANCH  27  30
ENDBRANCH  18  20
ENDBRANCH  13  16
ENDBRANCH  10  13
ENDBRANCH   7  10
ENDBRANCH   4   7
ENDBRANCH   1   4
BRANCH   1  97
ATOM     97  C   UNL A   1      39.148  22.884  26.680  1.00  0.00     0.018 C 
ATOM     98  H   UNL A   1      38.739  23.832  26.402  1.00  0.00     0.049 H 
ATOM     99  H   UNL A   1      38.741  22.537  27.607  1.00  0.00     0.049 H 
BRANCH  97 100
ATOM    100  N   UNL A   1      38.811  21.910  25.655  1.00  0.00    -0.352 N 
ATOM    101  C   UNL A   1      37.592  21.643  25.086  1.00  0.00     0.251 C 
ATOM    102  H   UNL A   1      39.561  21.368  25.321  1.00  0.00     0.163 HD
ATOM    103  O   UNL A   1      37.453  20.688  24.319  1.00  0.00    -0.269 OA
BRANCH 101 104
ATOM    104  C   UNL A   1      36.431  22.487  25.422  1.00  0.00     0.039 A 
ATOM    105  C   UNL A   1      36.327  23.753  24.835  1.00  0.00    -0.047 A 
ATOM    106  C   UNL A   1      35.447  22.023  26.304  1.00  0.00    -0.047 A 
ATOM    107  C   UNL A   1      35.185  24.527  25.043  1.00  0.00    -0.036 A 
ATOM    108  H   UNL A   1      37.096  24.115  24.249  1.00  0.00     0.063 H 
ATOM    109  C   UNL A   1      34.325  22.809  26.547  1.00  0.00    -0.036 A 
ATOM    110  H   UNL A   1      35.554  21.108  26.768  1.00  0.00     0.063 H 
ATOM    111  C   UNL A   1      34.190  24.048  25.895  1.00  0.00     0.066 A 
ATOM    112  H   UNL A   1      35.077  25.439  24.572  1.00  0.00     0.065 H 
ATOM    113  H   UNL A   1      33.596  22.484  27.202  1.00  0.00     0.065 H 
BRANCH 111 114
ATOM    114  N   UNL A   1      33.101  24.877  26.215  1.00  0.00    -0.220 N 
ATOM    115  C   UNL A   1      33.152  26.237  26.273  1.00  0.00     0.055 A 
ATOM    116  N   UNL A   1      31.866  24.453  26.538  1.00  0.00    -0.062 NA
ATOM    117  C   UNL A   1      31.909  26.654  26.669  1.00  0.00     0.093 A 
ATOM    118  H   UNL A   1      33.966  26.835  26.060  1.00  0.00     0.086 H 
ATOM    119  N   UNL A   1      31.149  25.525  26.884  1.00  0.00    -0.134 NA
BRANCH 117 120
ATOM    120  C   UNL A   1      31.466  27.999  27.112  1.00  0.00     0.047 C 
ATOM    121  H   UNL A   1      31.879  28.130  28.091  1.00  0.00     0.045 H 
ATOM    122  H   UNL A   1      30.411  27.919  26.958  1.00  0.00     0.045 H 
BRANCH 120 123
ATOM    123  S   UNL A   1      31.813  29.525  26.237  1.00  0.00    -0.081 SA
BRANCH 123 124
ATOM    124  C   UNL A   1      30.915  29.736  24.758  1.00  0.00     0.176 A 
ATOM    125  N   UNL A   1      30.426  30.939  24.642  1.00  0.00    -0.223 NA
ATOM    126  N   UNL A   1      30.702  28.783  23.778  1.00  0.00    -0.255 N 
ATOM    127  C   UNL A   1      29.565  31.206  23.568  1.00  0.00     0.079 A 
ATOM    128  C   UNL A   1      29.410  28.819  23.240  1.00  0.00     0.266 A 
ATOM    129  C   UNL A   1      29.284  32.508  23.158  1.00  0.00    -0.035 A 
ATOM    130  C   UNL A   1      28.886  30.160  22.959  1.00  0.00     0.066 A 
ATOM    131  O   UNL A   1      28.699  27.846  23.001  1.00  0.00    -0.268 OA
ATOM    132  C   UNL A   1      28.287  32.745  22.201  1.00  0.00    -0.060 A 
ATOM    133  H   UNL A   1      29.810  33.299  23.560  1.00  0.00     0.065 H 
ATOM    134  C   UNL A   1      27.845  30.379  22.053  1.00  0.00    -0.047 A 
ATOM    135  C   UNL A   1      27.541  31.684  21.680  1.00  0.00    -0.061 A 
ATOM    136  H   UNL A   1      28.103  33.709  21.880  1.00  0.00     0.062 H 
ATOM    137  H   UNL A   1      27.310  29.584  21.667  1.00  0.00     0.063 H 
ATOM    138  H   UNL A   1      26.768  31.869  21.022  1.00  0.00     0.062 H 
BRANCH 126 139
ATOM    139  C   UNL A   1      31.611  27.760  23.306  1.00  0.00     0.051 A 
ATOM    140  C   UNL A   1      32.888  28.131  22.831  1.00  0.00    -0.038 A 
ATOM    141  C   UNL A   1      31.303  26.398  23.229  1.00  0.00    -0.038 A 
ATOM    142  C   UNL A   1      33.687  27.258  22.091  1.00  0.00    -0.060 A 
ATOM    143  H   UNL A   1      33.241  29.079  23.038  1.00  0.00     0.064 H 
ATOM    144  C   UNL A   1      32.064  25.533  22.429  1.00  0.00    -0.060 A 
ATOM    145  H   UNL A   1      30.506  26.024  23.768  1.00  0.00     0.064 H 
ATOM    146  C   UNL A   1      33.238  25.975  21.828  1.00  0.00    -0.062 A 
ATOM    147  H   UNL A   1      34.608  27.568  21.740  1.00  0.00     0.062 H 
ATOM    148  H   UNL A   1      31.751  24.560  22.285  1.00  0.00     0.062 H 
ATOM    149  H   UNL A   1      33.766  25.356  21.194  1.00  0.00     0.062 H 
ENDBRANCH 126 139
ENDBRANCH 123 124
ENDBRANCH 120 123
ENDBRANCH 117 120
ENDBRANCH 111 114
ENDBRANCH 101 104
ENDBRANCH  97 100
ENDBRANCH   1  97
TORSDOF 18
ENDMDL
MODEL 2
REMARK VINA RESULT:     -12.9      3.975      9.580
REMARK SMILES O=C(NCCCCCCNC(=O)c1ccc(-n2cc(CSc3nc4ccccc4c(=O)n3-c3ccccc3)nn2)cc1)c1ccc(-c2c3nc(c(-c4c(F)c(F)c(F)c(F)c4F)c4ccc([nH]4)c(-c4c(F)c(F)c(F)c(F)c4F)c4nc(c(-c5c(F)c(F)c(F)c(F)c5F)c5ccc2[nH]5)C=C4)C=C3)cc1
REMARK SMILES IDX 8 1 7 4 6 7 5 10 4 13 3 16 1 17 2 18 43 20 44 21 105 22
REMARK SMILES IDX 45 23 104 25 46 27 47 30 48 31 98 32 49 33 103 34 97 35
REMARK SMILES IDX 99 36 50 37 102 38 96 40 95 42 51 44 83 47 63 48 82 49 64 50
REMARK SMILES IDX 67 51 81 52 100 53 65 54 66 56 80 58 101 59 68 62 52 64
REMARK SMILES IDX 53 65 61 66 54 67 55 68 59 69 62 70 56 71 57 72 60 73 58 74
REMARK SMILES IDX 84 75 85 76 93 77 86 78 87 79 91 80 94 81 88 82 89 83 92 84
REMARK SMILES IDX 90 85 69 86 70 87 78 88 71 89 72 90 76 91 79 92 73 93 74 94
REMARK SMILES IDX 77 95 75 96 9 97 10 100 11 101 12 103 13 104 14 105 42 106
REMARK SMILES IDX 15 107 41 109 16 111 17 114 18 115 40 116 19 117 39 119
REMARK SMILES IDX 20 120 21 123 22 124 23 125 32 126 24 127 30 128 25 129
REMARK SMILES IDX 29 130 31 131 26 132 28 134 27 135 33 139 34 140 38 141
REMARK SMILES IDX 35 142 37 144 36 146
REMARK H PARENT 8 2 8 3 7 5 7 6 6 8 6 9 5 11 5 12 4 14 4 15 3 19 44 24 105 26
REMARK H PARENT 45 28 104 29 103 39 97 41 99 43 102 45 96 46 64 55 67 57
REMARK H PARENT 100 60 65 61 101 63 9 98 9 99 10 102 14 108 42 110 15 112
REMARK H PARENT 41 113 18 118 20 121 20 122 25 133 26 136 28 137 27 138 34 143
REMARK H PARENT 38 145 35 147 37 148 36 149
REMARK Flexibility Score: inf
ROOT
ATOM      1  C   UNL A   1      34.410  35.916  32.313  1.00  0.00    -0.036 C 
ATOM      2  H   UNL A   1      35.116  35.519  31.614  1.00  0.00     0.028 H 
ATOM      3  H   UNL A   1      34.626  36.923  32.605  1.00  0.00     0.028 H 
ENDROOT
BRANCH   1   4
ATOM      4  C   UNL A   1      34.478  35.075  33.589  1.00  0.00    -0.052 C 
ATOM      5  H   UNL A   1      35.359  35.359  34.125  1.00  0.00     0.027 H 
ATOM      6  H   UNL A   1      33.569  35.269  34.119  1.00  0.00     0.027 H 
BRANCH   4   7
ATOM      7  C   UNL A   1      34.525  33.559  33.377  1.00  0.00    -0.052 C 
ATOM      8  H   UNL A   1      35.000  33.122  34.230  1.00  0.00     0.027 H 
ATOM      9  H   UNL A   1      33.509  33.253  33.240  1.00  0.00     0.027 H 
BRANCH   7  10
ATOM     10  C   UNL A   1      35.274  33.081  32.127  1.00  0.00    -0.036 C 
ATOM     11  H   UNL A   1      34.936  32.093  31.894  1.00  0.00     0.028 H 
ATOM     12  H   UNL A   1      35.060  33.795  31.360  1.00  0.00     0.028 H 
BRANCH  10  13
ATOM     13  C   UNL A   1      36.797  33.041  32.261  1.00  0.00     0.018 C 
ATOM     14  H   UNL A   1      37.068  33.542  33.168  1.00  0.00     0.049 H 
ATOM     15  H   UNL A   1      37.080  32.009  32.259  1.00  0.00     0.049 H 
BRANCH  13  16
ATOM     16  N   UNL A   1      37.503  33.670  31.167  1.00  0.00    -0.352 N 
ATOM     17  O   UNL A   1      38.698  34.044  29.351  1.00  0.00    -0.269 OA
ATOM     18  C   UNL A   1      38.455  33.264  30.277  1.00  0.00     0.251 C 
ATOM     19  H   UNL A   1      37.235  34.607  31.033  1.00  0.00     0.163 HD
BRANCH  18  20
ATOM     20  C   UNL A   1      39.261  32.019  30.386  1.00  0.00     0.039 A 
ATOM     21  C   UNL A   1      40.652  31.942  30.469  1.00  0.00    -0.049 A 
ATOM     22  C   UNL A   1      38.525  30.819  30.326  1.00  0.00    -0.049 A 
ATOM     23  C   UNL A   1      41.296  30.712  30.375  1.00  0.00    -0.053 A 
ATOM     24  H   UNL A   1      41.206  32.803  30.599  1.00  0.00     0.063 H 
ATOM     25  C   UNL A   1      39.159  29.587  30.242  1.00  0.00    -0.053 A 
ATOM     26  H   UNL A   1      37.494  30.857  30.344  1.00  0.00     0.063 H 
ATOM     27  C   UNL A   1      40.548  29.543  30.216  1.00  0.00    -0.014 A 
ATOM     28  H   UNL A   1      42.326  30.662  30.423  1.00  0.00     0.063 H 
ATOM     29  H   UNL A   1      38.607  28.717  30.200  1.00  0.00     0.063 H 
BRANCH  27  30
ATOM     30  C   UNL A   1      41.251  28.266  30.166  1.00  0.00     0.031 A 
ATOM     31  C   UNL A   1      41.928  27.892  31.441  1.00  0.00     0.074 A 
ATOM     32  C   UNL A   1      41.173  27.426  29.113  1.00  0.00     0.049 A 
ATOM     33  N   UNL A   1      43.185  27.660  31.643  1.00  0.00    -0.248 NA
ATOM     34  C   UNL A   1      41.116  27.888  32.670  1.00  0.00    -0.034 C 
ATOM     35  C   UNL A   1      40.319  27.541  27.929  1.00  0.00    -0.036 A 
ATOM     36  N   UNL A   1      41.784  26.221  28.927  1.00  0.00    -0.354 N 
ATOM     37  C   UNL A   1      43.300  27.312  32.990  1.00  0.00     0.074 A 
ATOM     38  C   UNL A   1      42.033  27.614  33.598  1.00  0.00    -0.034 C 
ATOM     39  H   UNL A   1      40.103  28.053  32.783  1.00  0.00     0.065 H 
ATOM     40  C   UNL A   1      40.296  26.357  27.274  1.00  0.00    -0.036 A 
ATOM     41  H   UNL A   1      39.814  28.394  27.638  1.00  0.00     0.065 H 
ATOM     42  C   UNL A   1      41.228  25.445  27.915  1.00  0.00     0.049 A 
ATOM     43  H   UNL A   1      42.554  25.924  29.463  1.00  0.00     0.167 HD
ATOM     44  C   UNL A   1      44.360  26.583  33.440  1.00  0.00     0.037 A 
ATOM     45  H   UNL A   1      41.858  27.618  34.615  1.00  0.00     0.065 H 
ATOM     46  H   UNL A   1      39.710  26.137  26.454  1.00  0.00     0.065 H 
ATOM     47  C   UNL A   1      41.472  24.132  27.672  1.00  0.00     0.037 A 
ATOM     48  C   UNL A   1      45.473  26.674  32.530  1.00  0.00     0.049 A 
ATOM     49  C   UNL A   1      42.746  23.780  28.346  1.00  0.00     0.074 A 
ATOM     50  C   UNL A   1      46.268  27.700  32.058  1.00  0.00    -0.036 A 
ATOM     51  N   UNL A   1      45.707  25.615  31.689  1.00  0.00    -0.354 N 
ATOM     52  N   UNL A   1      43.911  24.231  27.976  1.00  0.00    -0.248 NA
ATOM     53  C   UNL A   1      42.667  23.293  29.715  1.00  0.00    -0.034 C 
ATOM     54  C   UNL A   1      46.536  27.363  30.697  1.00  0.00    -0.036 A 
ATOM     55  H   UNL A   1      46.598  28.529  32.576  1.00  0.00     0.065 H 
ATOM     56  C   UNL A   1      45.939  26.129  30.442  1.00  0.00     0.049 A 
ATOM     57  H   UNL A   1      45.707  24.662  31.936  1.00  0.00     0.167 HD
ATOM     58  C   UNL A   1      44.575  24.495  29.163  1.00  0.00     0.074 A 
ATOM     59  C   UNL A   1      43.792  23.826  30.199  1.00  0.00    -0.034 C 
ATOM     60  H   UNL A   1      41.954  22.706  30.176  1.00  0.00     0.065 H 
ATOM     61  H   UNL A   1      47.073  27.931  30.024  1.00  0.00     0.065 H 
ATOM     62  C   UNL A   1      45.529  25.469  29.229  1.00  0.00     0.037 A 
ATOM     63  H   UNL A   1      44.074  23.771  31.190  1.00  0.00     0.065 H 
BRANCH  44  64
ATOM     64  C   UNL A   1      44.252  25.464  34.460  1.00  0.00     0.064 A 
ATOM     65  C   UNL A   1      44.749  25.690  35.762  1.00  0.00     0.173 A 
ATOM     66  C   UNL A   1      44.018  24.112  34.132  1.00  0.00     0.173 A 
ATOM     67  F   UNL A   1      44.994  26.937  36.195  1.00  0.00    -0.203 F 
ATOM     68  C   UNL A   1      45.116  24.640  36.607  1.00  0.00     0.198 A 
ATOM     69  C   UNL A   1      44.340  23.067  34.998  1.00  0.00     0.198 A 
ATOM     70  F   UNL A   1      43.575  23.727  32.931  1.00  0.00    -0.203 F 
ATOM     71  F   UNL A   1      45.730  24.905  37.768  1.00  0.00    -0.200 F 
ATOM     72  C   UNL A   1      44.929  23.329  36.216  1.00  0.00     0.200 A 
ATOM     73  F   UNL A   1      44.156  21.802  34.598  1.00  0.00    -0.200 F 
ATOM     74  F   UNL A   1      45.356  22.320  36.986  1.00  0.00    -0.200 F 
ENDBRANCH  44  64
BRANCH  47  75
ATOM     75  C   UNL A   1      40.523  23.090  27.201  1.00  0.00     0.064 A 
ATOM     76  C   UNL A   1      39.206  23.414  26.832  1.00  0.00     0.173 A 
ATOM     77  C   UNL A   1      40.977  21.810  26.830  1.00  0.00     0.173 A 
ATOM     78  F   UNL A   1      38.711  24.632  27.098  1.00  0.00    -0.203 F 
ATOM     79  C   UNL A   1      38.400  22.517  26.119  1.00  0.00     0.198 A 
ATOM     80  C   UNL A   1      40.171  20.915  26.124  1.00  0.00     0.198 A 
ATOM     81  F   UNL A   1      42.244  21.438  27.057  1.00  0.00    -0.203 F 
ATOM     82  F   UNL A   1      37.171  22.885  25.730  1.00  0.00    -0.200 F 
ATOM     83  C   UNL A   1      38.888  21.273  25.756  1.00  0.00     0.200 A 
ATOM     84  F   UNL A   1      40.670  19.730  25.745  1.00  0.00    -0.200 F 
ATOM     85  F   UNL A   1      38.141  20.438  25.020  1.00  0.00    -0.200 F 
ENDBRANCH  47  75
BRANCH  62  86
ATOM     86  C   UNL A   1      46.019  26.057  27.937  1.00  0.00     0.064 A 
ATOM     87  C   UNL A   1      45.431  27.167  27.306  1.00  0.00     0.173 A 
ATOM     88  C   UNL A   1      47.213  25.564  27.397  1.00  0.00     0.173 A 
ATOM     89  F   UNL A   1      44.346  27.759  27.819  1.00  0.00    -0.203 F 
ATOM     90  C   UNL A   1      45.992  27.726  26.159  1.00  0.00     0.198 A 
ATOM     91  C   UNL A   1      47.792  26.148  26.274  1.00  0.00     0.198 A 
ATOM     92  F   UNL A   1      47.850  24.544  27.993  1.00  0.00    -0.203 F 
ATOM     93  F   UNL A   1      45.408  28.780  25.569  1.00  0.00    -0.200 F 
ATOM     94  C   UNL A   1      47.176  27.221  25.650  1.00  0.00     0.200 A 
ATOM     95  F   UNL A   1      48.965  25.690  25.817  1.00  0.00    -0.200 F 
ATOM     96  F   UNL A   1      47.742  27.787  24.574  1.00  0.00    -0.200 F 
ENDBRANCH  62  86
ENDBRANCH  27  30
ENDBRANCH  18  20
ENDBRANCH  13  16
ENDBRANCH  10  13
ENDBRANCH   7  10
ENDBRANCH   4   7
ENDBRANCH   1   4
BRANCH   1  97
ATOM     97  C   UNL A   1      33.041  35.949  31.638  1.00  0.00     0.018 C 
ATOM     98  H   UNL A   1      32.311  36.251  32.359  1.00  0.00     0.049 H 
ATOM     99  H   UNL A   1      32.840  34.968  31.262  1.00  0.00     0.049 H 
BRANCH  97 100
ATOM    100  N   UNL A   1      32.999  36.872  30.516  1.00  0.00    -0.352 N 
ATOM    101  C   UNL A   1      33.296  36.642  29.198  1.00  0.00     0.251 C 
ATOM    102  H   UNL A   1      32.717  37.790  30.732  1.00  0.00     0.163 HD
ATOM    103  O   UNL A   1      33.336  37.574  28.391  1.00  0.00    -0.269 OA
BRANCH 101 104
ATOM    104  C   UNL A   1      33.604  35.272  28.749  1.00  0.00     0.039 A 
ATOM    105  C   UNL A   1      34.939  34.850  28.744  1.00  0.00    -0.047 A 
ATOM    106  C   UNL A   1      32.578  34.409  28.348  1.00  0.00    -0.047 A 
ATOM    107  C   UNL A   1      35.250  33.525  28.436  1.00  0.00    -0.036 A 
ATOM    108  H   UNL A   1      35.692  35.518  28.967  1.00  0.00     0.063 H 
ATOM    109  C   UNL A   1      32.888  33.097  27.999  1.00  0.00    -0.036 A 
ATOM    110  H   UNL A   1      31.602  34.741  28.311  1.00  0.00     0.063 H 
ATOM    111  C   UNL A   1      34.222  32.657  28.069  1.00  0.00     0.066 A 
ATOM    112  H   UNL A   1      36.226  33.193  28.480  1.00  0.00     0.065 H 
ATOM    113  H   UNL A   1      32.143  32.452  27.692  1.00  0.00     0.065 H 
BRANCH 111 114
ATOM    114  N   UNL A   1      34.541  31.362  27.628  1.00  0.00    -0.220 N 
ATOM    115  C   UNL A   1      33.647  30.479  27.100  1.00  0.00     0.055 A 
ATOM    116  N   UNL A   1      35.760  30.794  27.689  1.00  0.00    -0.062 NA
ATOM    117  C   UNL A   1      34.342  29.325  26.853  1.00  0.00     0.093 A 
ATOM    118  H   UNL A   1      32.645  30.647  26.921  1.00  0.00     0.086 H 
ATOM    119  N   UNL A   1      35.635  29.528  27.282  1.00  0.00    -0.134 NA
BRANCH 117 120
ATOM    120  C   UNL A   1      33.832  27.978  26.497  1.00  0.00     0.047 C 
ATOM    121  H   UNL A   1      34.211  27.319  27.250  1.00  0.00     0.045 H 
ATOM    122  H   UNL A   1      34.156  27.907  25.480  1.00  0.00     0.045 H 
BRANCH 120 123
ATOM    123  S   UNL A   1      32.097  27.560  26.322  1.00  0.00    -0.081 SA
BRANCH 123 124
ATOM    124  C   UNL A   1      31.786  26.123  25.386  1.00  0.00     0.176 A 
ATOM    125  N   UNL A   1      32.128  25.035  26.020  1.00  0.00    -0.223 NA
ATOM    126  N   UNL A   1      31.245  26.066  24.114  1.00  0.00    -0.255 N 
ATOM    127  C   UNL A   1      32.063  23.817  25.330  1.00  0.00     0.079 A 
ATOM    128  C   UNL A   1      31.847  25.102  23.298  1.00  0.00     0.266 A 
ATOM    129  C   UNL A   1      32.058  22.593  25.998  1.00  0.00    -0.035 A 
ATOM    130  C   UNL A   1      32.110  23.811  23.943  1.00  0.00     0.066 A 
ATOM    131  O   UNL A   1      32.169  25.250  22.121  1.00  0.00    -0.268 OA
ATOM    132  C   UNL A   1      32.170  21.397  25.277  1.00  0.00    -0.060 A 
ATOM    133  H   UNL A   1      31.973  22.570  27.026  1.00  0.00     0.065 H 
ATOM    134  C   UNL A   1      32.289  22.635  23.211  1.00  0.00    -0.047 A 
ATOM    135  C   UNL A   1      32.327  21.420  23.888  1.00  0.00    -0.061 A 
ATOM    136  H   UNL A   1      32.138  20.493  25.775  1.00  0.00     0.062 H 
ATOM    137  H   UNL A   1      32.391  22.667  22.184  1.00  0.00     0.063 H 
ATOM    138  H   UNL A   1      32.470  20.540  23.369  1.00  0.00     0.062 H 
BRANCH 126 139
ATOM    139  C   UNL A   1      30.207  26.897  23.541  1.00  0.00     0.051 A 
ATOM    140  C   UNL A   1      30.565  28.009  22.749  1.00  0.00    -0.038 A 
ATOM    141  C   UNL A   1      28.837  26.716  23.755  1.00  0.00    -0.038 A 
ATOM    142  C   UNL A   1      29.652  29.013  22.422  1.00  0.00    -0.060 A 
ATOM    143  H   UNL A   1      31.534  28.082  22.400  1.00  0.00     0.064 H 
ATOM    144  C   UNL A   1      27.925  27.750  23.494  1.00  0.00    -0.060 A 
ATOM    145  H   UNL A   1      28.491  25.811  24.111  1.00  0.00     0.064 H 
ATOM    146  C   UNL A   1      28.342  28.916  22.861  1.00  0.00    -0.062 A 
ATOM    147  H   UNL A   1      29.952  29.824  21.857  1.00  0.00     0.062 H 
ATOM    148  H   UNL A   1      26.938  27.645  23.773  1.00  0.00     0.062 H 
ATOM    149  H   UNL A   1      27.684  29.699  22.720  1.00  0.00     0.062 H 
ENDBRANCH 126 139
ENDBRANCH 123 124
ENDBRANCH 120 123
ENDBRANCH 117 120
ENDBRANCH 111 114
ENDBRANCH 101 104
ENDBRANCH  97 100
ENDBRANCH   1  97
TORSDOF 18
ENDMDL
MODEL 3
REMARK VINA RESULT:     -12.7      3.365      9.499
REMARK SMILES O=C(NCCCCCCNC(=O)c1ccc(-n2cc(CSc3nc4ccccc4c(=O)n3-c3ccccc3)nn2)cc1)c1ccc(-c2c3nc(c(-c4c(F)c(F)c(F)c(F)c4F)c4ccc([nH]4)c(-c4c(F)c(F)c(F)c(F)c4F)c4nc(c(-c5c(F)c(F)c(F)c(F)c5F)c5ccc2[nH]5)C=C4)C=C3)cc1
REMARK SMILES IDX 8 1 7 4 6 7 5 10 4 13 3 16 1 17 2 18 43 20 44 21 105 22
REMARK SMILES IDX 45 23 104 25 46 27 47 30 48 31 98 32 49 33 103 34 97 35
REMARK SMILES IDX 99 36 50 37 102 38 96 40 95 42 51 44 83 47 63 48 82 49 64 50
REMARK SMILES IDX 67 51 81 52 100 53 65 54 66 56 80 58 101 59 68 62 52 64
REMARK SMILES IDX 53 65 61 66 54 67 55 68 59 69 62 70 56 71 57 72 60 73 58 74
REMARK SMILES IDX 84 75 85 76 93 77 86 78 87 79 91 80 94 81 88 82 89 83 92 84
REMARK SMILES IDX 90 85 69 86 70 87 78 88 71 89 72 90 76 91 79 92 73 93 74 94
REMARK SMILES IDX 77 95 75 96 9 97 10 100 11 101 12 103 13 104 14 105 42 106
REMARK SMILES IDX 15 107 41 109 16 111 17 114 18 115 40 116 19 117 39 119
REMARK SMILES IDX 20 120 21 123 22 124 23 125 32 126 24 127 30 128 25 129
REMARK SMILES IDX 29 130 31 131 26 132 28 134 27 135 33 139 34 140 38 141
REMARK SMILES IDX 35 142 37 144 36 146
REMARK H PARENT 8 2 8 3 7 5 7 6 6 8 6 9 5 11 5 12 4 14 4 15 3 19 44 24 105 26
REMARK H PARENT 45 28 104 29 103 39 97 41 99 43 102 45 96 46 64 55 67 57
REMARK H PARENT 100 60 65 61 101 63 9 98 9 99 10 102 14 108 42 110 15 112
REMARK H PARENT 41 113 18 118 20 121 20 122 25 133 26 136 28 137 27 138 34 143
REMARK H PARENT 38 145 35 147 37 148 36 149
REMARK Flexibility Score: inf
ROOT
ATOM      1  C   UNL A   1      36.124  30.573  28.041  1.00  0.00    -0.036 C 
ATOM      2  H   UNL A   1      36.505  30.563  29.041  1.00  0.00     0.028 H 
ATOM      3  H   UNL A   1      36.804  30.160  27.325  1.00  0.00     0.028 H 
ENDROOT
BRANCH   1   4
ATOM      4  C   UNL A   1      35.902  32.031  27.631  1.00  0.00    -0.052 C 
ATOM      5  H   UNL A   1      36.200  32.135  26.609  1.00  0.00     0.027 H 
ATOM      6  H   UNL A   1      34.864  32.229  27.799  1.00  0.00     0.027 H 
BRANCH   4   7
ATOM      7  C   UNL A   1      36.667  33.071  28.454  1.00  0.00    -0.052 C 
ATOM      8  H   UNL A   1      37.318  32.547  29.123  1.00  0.00     0.027 H 
ATOM      9  H   UNL A   1      37.177  33.686  27.743  1.00  0.00     0.027 H 
BRANCH   7  10
ATOM     10  C   UNL A   1      35.806  34.027  29.290  1.00  0.00    -0.036 C 
ATOM     11  H   UNL A   1      36.310  34.201  30.218  1.00  0.00     0.028 H 
ATOM     12  H   UNL A   1      35.684  34.911  28.700  1.00  0.00     0.028 H 
BRANCH  10  13
ATOM     13  C   UNL A   1      34.397  33.523  29.603  1.00  0.00     0.018 C 
ATOM     14  H   UNL A   1      33.693  34.229  29.215  1.00  0.00     0.049 H 
ATOM     15  H   UNL A   1      34.307  32.558  29.148  1.00  0.00     0.049 H 
BRANCH  13  16
ATOM     16  N   UNL A   1      34.134  33.345  31.014  1.00  0.00    -0.352 N 
ATOM     17  O   UNL A   1      34.345  33.080  33.193  1.00  0.00    -0.269 OA
ATOM     18  C   UNL A   1      34.871  32.934  32.086  1.00  0.00     0.251 C 
ATOM     19  H   UNL A   1      33.207  33.573  31.256  1.00  0.00     0.163 HD
BRANCH  18  20
ATOM     20  C   UNL A   1      36.196  32.263  32.013  1.00  0.00     0.039 A 
ATOM     21  C   UNL A   1      37.441  32.881  32.132  1.00  0.00    -0.049 A 
ATOM     22  C   UNL A   1      36.157  30.885  31.723  1.00  0.00    -0.049 A 
ATOM     23  C   UNL A   1      38.608  32.174  31.856  1.00  0.00    -0.053 A 
ATOM     24  H   UNL A   1      37.497  33.869  32.428  1.00  0.00     0.063 H 
ATOM     25  C   UNL A   1      37.316  30.170  31.455  1.00  0.00    -0.053 A 
ATOM     26  H   UNL A   1      35.248  30.397  31.708  1.00  0.00     0.063 H 
ATOM     27  C   UNL A   1      38.537  30.833  31.473  1.00  0.00    -0.014 A 
ATOM     28  H   UNL A   1      39.526  32.641  31.933  1.00  0.00     0.063 H 
ATOM     29  H   UNL A   1      37.272  29.161  31.245  1.00  0.00     0.063 H 
BRANCH  27  30
ATOM     30  C   UNL A   1      39.781  30.110  31.234  1.00  0.00     0.031 A 
ATOM     31  C   UNL A   1      40.573  29.833  32.466  1.00  0.00     0.074 A 
ATOM     32  C   UNL A   1      40.115  29.603  30.028  1.00  0.00     0.049 A 
ATOM     33  N   UNL A   1      41.782  30.203  32.742  1.00  0.00    -0.248 NA
ATOM     34  C   UNL A   1      39.889  29.155  33.580  1.00  0.00    -0.034 C 
ATOM     35  C   UNL A   1      39.299  29.555  28.813  1.00  0.00    -0.036 A 
ATOM     36  N   UNL A   1      41.241  28.926  29.661  1.00  0.00    -0.354 N 
ATOM     37  C   UNL A   1      42.075  29.658  33.993  1.00  0.00     0.074 A 
ATOM     38  C   UNL A   1      40.834  29.158  34.520  1.00  0.00    -0.034 C 
ATOM     39  H   UNL A   1      38.929  28.775  33.622  1.00  0.00     0.065 H 
ATOM     40  C   UNL A   1      39.857  28.694  27.931  1.00  0.00    -0.036 A 
ATOM     41  H   UNL A   1      38.434  30.094  28.654  1.00  0.00     0.065 H 
ATOM     42  C   UNL A   1      41.128  28.232  28.462  1.00  0.00     0.049 A 
ATOM     43  H   UNL A   1      42.064  28.929  30.200  1.00  0.00     0.167 HD
ATOM     44  C   UNL A   1      43.363  29.456  34.389  1.00  0.00     0.037 A 
ATOM     45  H   UNL A   1      40.695  28.844  35.493  1.00  0.00     0.065 H 
ATOM     46  H   UNL A   1      39.446  28.410  27.028  1.00  0.00     0.065 H 
ATOM     47  C   UNL A   1      41.989  27.298  27.980  1.00  0.00     0.037 A 
ATOM     48  C   UNL A   1      44.270  30.282  33.633  1.00  0.00     0.049 A 
ATOM     49  C   UNL A   1      43.279  27.468  28.693  1.00  0.00     0.074 A 
ATOM     50  C   UNL A   1      44.444  31.642  33.464  1.00  0.00    -0.036 A 
ATOM     51  N   UNL A   1      44.987  29.694  32.621  1.00  0.00    -0.354 N 
ATOM     52  N   UNL A   1      44.061  28.499  28.542  1.00  0.00    -0.248 NA
ATOM     53  C   UNL A   1      43.473  26.707  29.918  1.00  0.00    -0.034 C 
ATOM     54  C   UNL A   1      44.824  31.798  32.097  1.00  0.00    -0.036 A 
ATOM     55  H   UNL A   1      44.327  32.383  34.172  1.00  0.00     0.065 H 
ATOM     56  C   UNL A   1      44.915  30.525  31.536  1.00  0.00     0.049 A 
ATOM     57  H   UNL A   1      45.464  28.834  32.666  1.00  0.00     0.167 HD
ATOM     58  C   UNL A   1      44.523  28.775  29.819  1.00  0.00     0.074 A 
ATOM     59  C   UNL A   1      44.191  27.593  30.611  1.00  0.00    -0.034 C 
ATOM     60  H   UNL A   1      43.152  25.760  30.174  1.00  0.00     0.065 H 
ATOM     61  H   UNL A   1      44.998  32.692  31.613  1.00  0.00     0.065 H 
ATOM     62  C   UNL A   1      44.869  30.045  30.178  1.00  0.00     0.037 A 
ATOM     63  H   UNL A   1      44.478  27.459  31.593  1.00  0.00     0.065 H 
BRANCH  44  64
ATOM     64  C   UNL A   1      43.841  28.228  35.142  1.00  0.00     0.064 A 
ATOM     65  C   UNL A   1      43.496  26.955  34.639  1.00  0.00     0.173 A 
ATOM     66  C   UNL A   1      44.300  28.243  36.476  1.00  0.00     0.173 A 
ATOM     67  F   UNL A   1      43.063  26.810  33.377  1.00  0.00    -0.203 F 
ATOM     68  C   UNL A   1      43.475  25.818  35.452  1.00  0.00     0.198 A 
ATOM     69  C   UNL A   1      44.324  27.097  37.270  1.00  0.00     0.198 A 
ATOM     70  F   UNL A   1      44.640  29.371  37.109  1.00  0.00    -0.203 F 
ATOM     71  F   UNL A   1      42.988  24.666  34.971  1.00  0.00    -0.200 F 
ATOM     72  C   UNL A   1      43.871  25.895  36.772  1.00  0.00     0.200 A 
ATOM     73  F   UNL A   1      44.707  27.194  38.551  1.00  0.00    -0.200 F 
ATOM     74  F   UNL A   1      43.773  24.830  37.577  1.00  0.00    -0.200 F 
ENDBRANCH  44  64
BRANCH  47  75
ATOM     75  C   UNL A   1      41.676  26.066  27.213  1.00  0.00     0.064 A 
ATOM     76  C   UNL A   1      42.495  25.636  26.155  1.00  0.00     0.173 A 
ATOM     77  C   UNL A   1      40.732  25.135  27.688  1.00  0.00     0.173 A 
ATOM     78  F   UNL A   1      43.457  26.439  25.677  1.00  0.00    -0.203 F 
ATOM     79  C   UNL A   1      42.388  24.345  25.620  1.00  0.00     0.198 A 
ATOM     80  C   UNL A   1      40.623  23.851  27.151  1.00  0.00     0.198 A 
ATOM     81  F   UNL A   1      39.965  25.416  28.750  1.00  0.00    -0.203 F 
ATOM     82  F   UNL A   1      43.229  23.949  24.653  1.00  0.00    -0.200 F 
ATOM     83  C   UNL A   1      41.460  23.451  26.126  1.00  0.00     0.200 A 
ATOM     84  F   UNL A   1      39.748  22.983  27.677  1.00  0.00    -0.200 F 
ATOM     85  F   UNL A   1      41.399  22.196  25.658  1.00  0.00    -0.200 F 
ENDBRANCH  47  75
BRANCH  62  86
ATOM     86  C   UNL A   1      44.983  31.074  29.091  1.00  0.00     0.064 A 
ATOM     87  C   UNL A   1      43.959  31.975  28.751  1.00  0.00     0.173 A 
ATOM     88  C   UNL A   1      46.226  31.244  28.469  1.00  0.00     0.173 A 
ATOM     89  F   UNL A   1      42.775  31.943  29.375  1.00  0.00    -0.203 F 
ATOM     90  C   UNL A   1      44.162  32.971  27.798  1.00  0.00     0.198 A 
ATOM     91  C   UNL A   1      46.437  32.263  27.545  1.00  0.00     0.198 A 
ATOM     92  F   UNL A   1      47.256  30.449  28.798  1.00  0.00    -0.203 F 
ATOM     93  F   UNL A   1      43.167  33.815  27.484  1.00  0.00    -0.200 F 
ATOM     94  C   UNL A   1      45.403  33.119  27.202  1.00  0.00     0.200 A 
ATOM     95  F   UNL A   1      47.654  32.435  27.012  1.00  0.00    -0.200 F 
ATOM     96  F   UNL A   1      45.613  34.105  26.319  1.00  0.00    -0.200 F 
ENDBRANCH  62  86
ENDBRANCH  27  30
ENDBRANCH  18  20
ENDBRANCH  13  16
ENDBRANCH  10  13
ENDBRANCH   7  10
ENDBRANCH   4   7
ENDBRANCH   1   4
BRANCH   1  97
ATOM     97  C   UNL A   1      34.874  29.698  28.001  1.00  0.00     0.018 C 
ATOM     98  H   UNL A   1      34.825  29.130  28.905  1.00  0.00     0.049 H 
ATOM     99  H   UNL A   1      34.949  29.064  27.142  1.00  0.00     0.049 H 
BRANCH  97 100
ATOM    100  N   UNL A   1      33.655  30.479  27.872  1.00  0.00    -0.352 N 
ATOM    101  C   UNL A   1      32.679  30.403  26.912  1.00  0.00     0.251 C 
ATOM    102  H   UNL A   1      33.509  31.156  28.571  1.00  0.00     0.163 HD
ATOM    103  O   UNL A   1      31.769  31.234  26.875  1.00  0.00    -0.269 OA
BRANCH 101 104
ATOM    104  C   UNL A   1      32.739  29.337  25.895  1.00  0.00     0.039 A 
ATOM    105  C   UNL A   1      33.234  29.648  24.623  1.00  0.00    -0.047 A 
ATOM    106  C   UNL A   1      32.319  28.038  26.203  1.00  0.00    -0.047 A 
ATOM    107  C   UNL A   1      33.411  28.638  23.677  1.00  0.00    -0.036 A 
ATOM    108  H   UNL A   1      33.466  30.625  24.384  1.00  0.00     0.063 H 
ATOM    109  C   UNL A   1      32.455  27.034  25.248  1.00  0.00    -0.036 A 
ATOM    110  H   UNL A   1      31.914  27.826  27.127  1.00  0.00     0.063 H 
ATOM    111  C   UNL A   1      33.023  27.337  23.998  1.00  0.00     0.066 A 
ATOM    112  H   UNL A   1      33.823  28.850  22.755  1.00  0.00     0.065 H 
ATOM    113  H   UNL A   1      32.141  26.073  25.457  1.00  0.00     0.065 H 
BRANCH 111 114
ATOM    114  N   UNL A   1      33.072  26.342  23.007  1.00  0.00    -0.220 N 
ATOM    115  C   UNL A   1      32.636  25.061  23.170  1.00  0.00     0.055 A 
ATOM    116  N   UNL A   1      33.580  26.496  21.770  1.00  0.00    -0.062 NA
ATOM    117  C   UNL A   1      32.911  24.406  21.999  1.00  0.00     0.093 A 
ATOM    118  H   UNL A   1      32.189  24.663  24.010  1.00  0.00     0.086 H 
ATOM    119  N   UNL A   1      33.549  25.303  21.171  1.00  0.00    -0.134 NA
BRANCH 117 120
ATOM    120  C   UNL A   1      32.862  22.955  21.700  1.00  0.00     0.047 C 
ATOM    121  H   UNL A   1      33.859  22.596  21.850  1.00  0.00     0.045 H 
ATOM    122  H   UNL A   1      32.415  22.968  20.728  1.00  0.00     0.045 H 
BRANCH 120 123
ATOM    123  S   UNL A   1      31.797  21.778  22.536  1.00  0.00    -0.081 SA
BRANCH 123 124
ATOM    124  C   UNL A   1      32.638  20.573  23.473  1.00  0.00     0.176 A 
ATOM    125  N   UNL A   1      32.523  19.379  22.962  1.00  0.00    -0.223 NA
ATOM    126  N   UNL A   1      33.360  20.785  24.634  1.00  0.00    -0.255 N 
ATOM    127  C   UNL A   1      33.033  18.294  23.689  1.00  0.00     0.079 A 
ATOM    128  C   UNL A   1      33.185  19.776  25.588  1.00  0.00     0.266 A 
ATOM    129  C   UNL A   1      33.280  17.059  23.090  1.00  0.00    -0.035 A 
ATOM    130  C   UNL A   1      33.200  18.407  25.062  1.00  0.00     0.066 A 
ATOM    131  O   UNL A   1      33.017  19.943  26.794  1.00  0.00    -0.268 OA
ATOM    132  C   UNL A   1      33.620  15.951  23.877  1.00  0.00    -0.060 A 
ATOM    133  H   UNL A   1      33.211  16.962  22.065  1.00  0.00     0.065 H 
ATOM    134  C   UNL A   1      33.473  17.301  25.870  1.00  0.00    -0.047 A 
ATOM    135  C   UNL A   1      33.676  16.062  25.270  1.00  0.00    -0.061 A 
ATOM    136  H   UNL A   1      33.829  15.046  23.426  1.00  0.00     0.062 H 
ATOM    137  H   UNL A   1      33.524  17.401  26.897  1.00  0.00     0.063 H 
ATOM    138  H   UNL A   1      33.868  15.229  25.848  1.00  0.00     0.062 H 
BRANCH 126 139
ATOM    139  C   UNL A   1      34.197  21.915  24.978  1.00  0.00     0.051 A 
ATOM    140  C   UNL A   1      33.761  22.829  25.962  1.00  0.00    -0.038 A 
ATOM    141  C   UNL A   1      35.416  22.217  24.363  1.00  0.00    -0.038 A 
ATOM    142  C   UNL A   1      34.354  24.081  26.127  1.00  0.00    -0.060 A 
ATOM    143  H   UNL A   1      32.977  22.562  26.579  1.00  0.00     0.064 H 
ATOM    144  C   UNL A   1      35.979  23.498  24.470  1.00  0.00    -0.060 A 
ATOM    145  H   UNL A   1      35.909  21.488  23.822  1.00  0.00     0.064 H 
ATOM    146  C   UNL A   1      35.424  24.443  25.325  1.00  0.00    -0.062 A 
ATOM    147  H   UNL A   1      33.998  24.735  26.843  1.00  0.00     0.062 H 
ATOM    148  H   UNL A   1      36.811  23.740  23.911  1.00  0.00     0.062 H 
ATOM    149  H   UNL A   1      35.803  25.403  25.361  1.00  0.00     0.062 H 
ENDBRANCH 126 139
ENDBRANCH 123 124
ENDBRANCH 120 123
ENDBRANCH 117 120
ENDBRANCH 111 114
ENDBRANCH 101 104
ENDBRANCH  97 100
ENDBRANCH   1  97
TORSDOF 18
ENDMDL
MODEL 4
REMARK VINA RESULT:     -12.6      3.879      9.655
REMARK SMILES O=C(NCCCCCCNC(=O)c1ccc(-n2cc(CSc3nc4ccccc4c(=O)n3-c3ccccc3)nn2)cc1)c1ccc(-c2c3nc(c(-c4c(F)c(F)c(F)c(F)c4F)c4ccc([nH]4)c(-c4c(F)c(F)c(F)c(F)c4F)c4nc(c(-c5c(F)c(F)c(F)c(F)c5F)c5ccc2[nH]5)C=C4)C=C3)cc1
REMARK SMILES IDX 8 1 7 4 6 7 5 10 4 13 3 16 1 17 2 18 43 20 44 21 105 22
REMARK SMILES IDX 45 23 104 25 46 27 47 30 48 31 98 32 49 33 103 34 97 35
REMARK SMILES IDX 99 36 50 37 102 38 96 40 95 42 51 44 83 47 63 48 82 49 64 50
REMARK SMILES IDX 67 51 81 52 100 53 65 54 66 56 80 58 101 59 68 62 52 64
REMARK SMILES IDX 53 65 61 66 54 67 55 68 59 69 62 70 56 71 57 72 60 73 58 74
REMARK SMILES IDX 84 75 85 76 93 77 86 78 87 79 91 80 94 81 88 82 89 83 92 84
REMARK SMILES IDX 90 85 69 86 70 87 78 88 71 89 72 90 76 91 79 92 73 93 74 94
REMARK SMILES IDX 77 95 75 96 9 97 10 100 11 101 12 103 13 104 14 105 42 106
REMARK SMILES IDX 15 107 41 109 16 111 17 114 18 115 40 116 19 117 39 119
REMARK SMILES IDX 20 120 21 123 22 124 23 125 32 126 24 127 30 128 25 129
REMARK SMILES IDX 29 130 31 131 26 132 28 134 27 135 33 139 34 140 38 141
REMARK SMILES IDX 35 142 37 144 36 146
REMARK H PARENT 8 2 8 3 7 5 7 6 6 8 6 9 5 11 5 12 4 14 4 15 3 19 44 24 105 26
REMARK H PARENT 45 28 104 29 103 39 97 41 99 43 102 45 96 46 64 55 67 57
REMARK H PARENT 100 60 65 61 101 63 9 98 9 99 10 102 14 108 42 110 15 112
REMARK H PARENT 41 113 18 118 20 121 20 122 25 133 26 136 28 137 27 138 34 143
REMARK H PARENT 38 145 35 147 37 148 36 149
REMARK Flexibility Score: inf
ROOT
ATOM      1  C   UNL A   1      34.014  36.116  33.081  1.00  0.00    -0.036 C 
ATOM      2  H   UNL A   1      34.713  36.770  32.603  1.00  0.00     0.028 H 
ATOM      3  H   UNL A   1      33.500  36.574  33.901  1.00  0.00     0.028 H 
ENDROOT
BRANCH   1   4
ATOM      4  C   UNL A   1      34.790  34.935  33.667  1.00  0.00    -0.052 C 
ATOM      5  H   UNL A   1      35.822  35.058  33.411  1.00  0.00     0.027 H 
ATOM      6  H   UNL A   1      34.602  34.951  34.719  1.00  0.00     0.027 H 
BRANCH   4   7
ATOM      7  C   UNL A   1      34.347  33.550  33.183  1.00  0.00    -0.052 C 
ATOM      8  H   UNL A   1      33.778  33.095  33.966  1.00  0.00     0.027 H 
ATOM      9  H   UNL A   1      33.793  33.720  32.284  1.00  0.00     0.027 H 
BRANCH   7  10
ATOM     10  C   UNL A   1      35.475  32.584  32.800  1.00  0.00    -0.036 C 
ATOM     11  H   UNL A   1      35.404  31.724  33.434  1.00  0.00     0.028 H 
ATOM     12  H   UNL A   1      35.337  32.360  31.763  1.00  0.00     0.028 H 
BRANCH  10  13
ATOM     13  C   UNL A   1      36.888  33.154  32.931  1.00  0.00     0.018 C 
ATOM     14  H   UNL A   1      36.873  33.921  33.677  1.00  0.00     0.049 H 
ATOM     15  H   UNL A   1      37.528  32.336  33.192  1.00  0.00     0.049 H 
BRANCH  13  16
ATOM     16  N   UNL A   1      37.412  33.719  31.707  1.00  0.00    -0.352 N 
ATOM     17  O   UNL A   1      38.401  34.004  29.756  1.00  0.00    -0.269 OA
ATOM     18  C   UNL A   1      38.344  33.330  30.789  1.00  0.00     0.251 C 
ATOM     19  H   UNL A   1      37.001  34.586  31.486  1.00  0.00     0.163 HD
BRANCH  18  20
ATOM     20  C   UNL A   1      39.327  32.230  30.974  1.00  0.00     0.039 A 
ATOM     21  C   UNL A   1      40.660  32.372  31.363  1.00  0.00    -0.049 A 
ATOM     22  C   UNL A   1      38.857  30.942  30.650  1.00  0.00    -0.049 A 
ATOM     23  C   UNL A   1      41.527  31.285  31.316  1.00  0.00    -0.053 A 
ATOM     24  H   UNL A   1      41.004  33.290  31.687  1.00  0.00     0.063 H 
ATOM     25  C   UNL A   1      39.713  29.850  30.609  1.00  0.00    -0.053 A 
ATOM     26  H   UNL A   1      37.857  30.807  30.436  1.00  0.00     0.063 H 
ATOM     27  C   UNL A   1      41.060  30.037  30.894  1.00  0.00    -0.014 A 
ATOM     28  H   UNL A   1      42.515  31.399  31.591  1.00  0.00     0.063 H 
ATOM     29  H   UNL A   1      39.355  28.913  30.371  1.00  0.00     0.063 H 
BRANCH  27  30
ATOM     30  C   UNL A   1      41.985  28.909  30.899  1.00  0.00     0.031 A 
ATOM     31  C   UNL A   1      42.395  28.462  32.261  1.00  0.00     0.074 A 
ATOM     32  C   UNL A   1      42.322  28.232  29.782  1.00  0.00     0.049 A 
ATOM     33  N   UNL A   1      43.587  28.404  32.761  1.00  0.00    -0.248 NA
ATOM     34  C   UNL A   1      41.328  28.148  33.227  1.00  0.00    -0.034 C 
ATOM     35  C   UNL A   1      41.771  28.386  28.433  1.00  0.00    -0.036 A 
ATOM     36  N   UNL A   1      43.177  27.179  29.638  1.00  0.00    -0.354 N 
ATOM     37  C   UNL A   1      43.441  27.882  34.047  1.00  0.00     0.074 A 
ATOM     38  C   UNL A   1      42.031  27.887  34.330  1.00  0.00    -0.034 C 
ATOM     39  H   UNL A   1      40.306  28.133  33.087  1.00  0.00     0.065 H 
ATOM     40  C   UNL A   1      42.130  27.323  27.677  1.00  0.00    -0.036 A 
ATOM     41  H   UNL A   1      41.198  29.181  28.110  1.00  0.00     0.065 H 
ATOM     42  C   UNL A   1      43.037  26.484  28.442  1.00  0.00     0.049 A 
ATOM     43  H   UNL A   1      43.838  26.932  30.324  1.00  0.00     0.167 HD
ATOM     44  C   UNL A   1      44.480  27.271  34.681  1.00  0.00     0.037 A 
ATOM     45  H   UNL A   1      41.620  27.713  35.260  1.00  0.00     0.065 H 
ATOM     46  H   UNL A   1      41.811  27.137  26.714  1.00  0.00     0.065 H 
ATOM     47  C   UNL A   1      43.578  25.276  28.137  1.00  0.00     0.037 A 
ATOM     48  C   UNL A   1      45.741  27.670  34.109  1.00  0.00     0.049 A 
ATOM     49  C   UNL A   1      44.696  25.034  29.082  1.00  0.00     0.074 A 
ATOM     50  C   UNL A   1      46.416  28.867  33.970  1.00  0.00    -0.036 A 
ATOM     51  N   UNL A   1      46.366  26.797  33.254  1.00  0.00    -0.354 N 
ATOM     52  N   UNL A   1      45.808  25.712  29.078  1.00  0.00    -0.248 NA
ATOM     53  C   UNL A   1      44.386  24.343  30.324  1.00  0.00    -0.034 C 
ATOM     54  C   UNL A   1      47.061  28.781  32.699  1.00  0.00    -0.036 A 
ATOM     55  H   UNL A   1      46.449  29.651  34.640  1.00  0.00     0.065 H 
ATOM     56  C   UNL A   1      46.788  27.521  32.171  1.00  0.00     0.049 A 
ATOM     57  H   UNL A   1      46.488  25.830  33.392  1.00  0.00     0.167 HD
ATOM     58  C   UNL A   1      46.106  25.900  30.418  1.00  0.00     0.074 A 
ATOM     59  C   UNL A   1      45.239  24.969  31.138  1.00  0.00    -0.034 C 
ATOM     60  H   UNL A   1      43.707  23.590  30.519  1.00  0.00     0.065 H 
ATOM     61  H   UNL A   1      47.626  29.520  32.253  1.00  0.00     0.065 H 
ATOM     62  C   UNL A   1      46.814  26.991  30.832  1.00  0.00     0.037 A 
ATOM     63  H   UNL A   1      45.281  24.814  32.157  1.00  0.00     0.065 H 
BRANCH  44  64
ATOM     64  C   UNL A   1      44.346  26.011  35.516  1.00  0.00     0.064 A 
ATOM     65  C   UNL A   1      44.983  25.967  36.776  1.00  0.00     0.173 A 
ATOM     66  C   UNL A   1      43.937  24.760  35.006  1.00  0.00     0.173 A 
ATOM     67  F   UNL A   1      45.401  27.095  37.372  1.00  0.00    -0.203 F 
ATOM     68  C   UNL A   1      45.309  24.760  37.398  1.00  0.00     0.198 A 
ATOM     69  C   UNL A   1      44.222  23.560  35.655  1.00  0.00     0.198 A 
ATOM     70  F   UNL A   1      43.346  24.627  33.814  1.00  0.00    -0.203 F 
ATOM     71  F   UNL A   1      46.053  24.767  38.513  1.00  0.00    -0.200 F 
ATOM     72  C   UNL A   1      44.946  23.556  36.828  1.00  0.00     0.200 A 
ATOM     73  F   UNL A   1      43.865  22.402  35.081  1.00  0.00    -0.200 F 
ATOM     74  F   UNL A   1      45.330  22.397  37.376  1.00  0.00    -0.200 F 
ENDBRANCH  44  64
BRANCH  47  75
ATOM     75  C   UNL A   1      42.985  24.180  27.329  1.00  0.00     0.064 A 
ATOM     76  C   UNL A   1      43.750  23.472  26.386  1.00  0.00     0.173 A 
ATOM     77  C   UNL A   1      41.741  23.617  27.672  1.00  0.00     0.173 A 
ATOM     78  F   UNL A   1      44.971  23.908  26.042  1.00  0.00    -0.203 F 
ATOM     79  C   UNL A   1      43.303  22.263  25.835  1.00  0.00     0.198 A 
ATOM     80  C   UNL A   1      41.295  22.416  27.119  1.00  0.00     0.198 A 
ATOM     81  F   UNL A   1      40.977  24.168  28.625  1.00  0.00    -0.203 F 
ATOM     82  F   UNL A   1      44.087  21.584  24.986  1.00  0.00    -0.200 F 
ATOM     83  C   UNL A   1      42.081  21.731  26.211  1.00  0.00     0.200 A 
ATOM     84  F   UNL A   1      40.128  21.892  27.521  1.00  0.00    -0.200 F 
ATOM     85  F   UNL A   1      41.680  20.545  25.733  1.00  0.00    -0.200 F 
ENDBRANCH  47  75
BRANCH  62  86
ATOM     86  C   UNL A   1      47.478  27.833  29.781  1.00  0.00     0.064 A 
ATOM     87  C   UNL A   1      48.738  27.550  29.227  1.00  0.00     0.173 A 
ATOM     88  C   UNL A   1      46.745  28.884  29.216  1.00  0.00     0.173 A 
ATOM     89  F   UNL A   1      49.455  26.499  29.644  1.00  0.00    -0.203 F 
ATOM     90  C   UNL A   1      49.257  28.316  28.185  1.00  0.00     0.198 A 
ATOM     91  C   UNL A   1      47.249  29.623  28.150  1.00  0.00     0.198 A 
ATOM     92  F   UNL A   1      45.511  29.162  29.665  1.00  0.00    -0.203 F 
ATOM     93  F   UNL A   1      50.466  28.032  27.679  1.00  0.00    -0.200 F 
ATOM     94  C   UNL A   1      48.508  29.346  27.643  1.00  0.00     0.200 A 
ATOM     95  F   UNL A   1      46.499  30.584  27.593  1.00  0.00    -0.200 F 
ATOM     96  F   UNL A   1      48.986  30.055  26.610  1.00  0.00    -0.200 F 
ENDBRANCH  62  86
ENDBRANCH  27  30
ENDBRANCH  18  20
ENDBRANCH  13  16
ENDBRANCH  10  13
ENDBRANCH   7  10
ENDBRANCH   4   7
ENDBRANCH   1   4
BRANCH   1  97
ATOM     97  C   UNL A   1      32.944  35.738  32.061  1.00  0.00     0.018 C 
ATOM     98  H   UNL A   1      31.992  35.731  32.548  1.00  0.00     0.049 H 
ATOM     99  H   UNL A   1      33.193  34.773  31.670  1.00  0.00     0.049 H 
BRANCH  97 100
ATOM    100  N   UNL A   1      32.889  36.668  30.944  1.00  0.00    -0.352 N 
ATOM    101  C   UNL A   1      33.194  36.451  29.625  1.00  0.00     0.251 C 
ATOM    102  H   UNL A   1      32.593  37.580  31.166  1.00  0.00     0.163 HD
ATOM    103  O   UNL A   1      33.221  37.389  28.825  1.00  0.00    -0.269 OA
BRANCH 101 104
ATOM    104  C   UNL A   1      33.524  35.089  29.168  1.00  0.00     0.039 A 
ATOM    105  C   UNL A   1      32.660  34.454  28.268  1.00  0.00    -0.047 A 
ATOM    106  C   UNL A   1      34.685  34.451  29.619  1.00  0.00    -0.047 A 
ATOM    107  C   UNL A   1      33.003  33.214  27.729  1.00  0.00    -0.036 A 
ATOM    108  H   UNL A   1      31.769  34.902  28.004  1.00  0.00     0.063 H 
ATOM    109  C   UNL A   1      35.011  33.195  29.115  1.00  0.00    -0.036 A 
ATOM    110  H   UNL A   1      35.293  34.906  30.317  1.00  0.00     0.063 H 
ATOM    111  C   UNL A   1      34.179  32.594  28.154  1.00  0.00     0.066 A 
ATOM    112  H   UNL A   1      32.397  32.762  27.026  1.00  0.00     0.065 H 
ATOM    113  H   UNL A   1      35.859  32.708  29.446  1.00  0.00     0.065 H 
BRANCH 111 114
ATOM    114  N   UNL A   1      34.463  31.289  27.719  1.00  0.00    -0.220 N 
ATOM    115  C   UNL A   1      33.554  30.441  27.159  1.00  0.00     0.055 A 
ATOM    116  N   UNL A   1      35.657  30.677  27.817  1.00  0.00    -0.062 NA
ATOM    117  C   UNL A   1      34.214  29.263  26.931  1.00  0.00     0.093 A 
ATOM    118  H   UNL A   1      32.566  30.647  26.949  1.00  0.00     0.086 H 
ATOM    119  N   UNL A   1      35.499  29.417  27.402  1.00  0.00    -0.134 NA
BRANCH 117 120
ATOM    120  C   UNL A   1      33.666  27.937  26.555  1.00  0.00     0.047 C 
ATOM    121  H   UNL A   1      33.970  27.268  27.333  1.00  0.00     0.045 H 
ATOM    122  H   UNL A   1      34.045  27.843  25.559  1.00  0.00     0.045 H 
BRANCH 120 123
ATOM    123  S   UNL A   1      31.927  27.595  26.280  1.00  0.00    -0.081 SA
BRANCH 123 124
ATOM    124  C   UNL A   1      31.607  26.171  25.327  1.00  0.00     0.176 A 
ATOM    125  N   UNL A   1      31.971  25.076  25.935  1.00  0.00    -0.223 NA
ATOM    126  N   UNL A   1      31.040  26.131  24.066  1.00  0.00    -0.255 N 
ATOM    127  C   UNL A   1      31.900  23.868  25.226  1.00  0.00     0.079 A 
ATOM    128  C   UNL A   1      31.632  25.186  23.221  1.00  0.00     0.266 A 
ATOM    129  C   UNL A   1      31.919  22.634  25.874  1.00  0.00    -0.035 A 
ATOM    130  C   UNL A   1      31.919  23.887  23.838  1.00  0.00     0.066 A 
ATOM    131  O   UNL A   1      31.929  25.356  22.041  1.00  0.00    -0.268 OA
ATOM    132  C   UNL A   1      32.025  21.451  25.130  1.00  0.00    -0.060 A 
ATOM    133  H   UNL A   1      31.855  22.592  26.903  1.00  0.00     0.065 H 
ATOM    134  C   UNL A   1      32.091  22.724  23.083  1.00  0.00    -0.047 A 
ATOM    135  C   UNL A   1      32.152  21.498  23.739  1.00  0.00    -0.061 A 
ATOM    136  H   UNL A   1      32.010  20.538  25.613  1.00  0.00     0.062 H 
ATOM    137  H   UNL A   1      32.171  22.774  22.055  1.00  0.00     0.063 H 
ATOM    138  H   UNL A   1      32.291  20.628  23.202  1.00  0.00     0.062 H 
BRANCH 126 139
ATOM    139  C   UNL A   1      29.984  26.963  23.529  1.00  0.00     0.051 A 
ATOM    140  C   UNL A   1      30.317  28.119  22.790  1.00  0.00    -0.038 A 
ATOM    141  C   UNL A   1      28.618  26.741  23.730  1.00  0.00    -0.038 A 
ATOM    142  C   UNL A   1      29.382  29.115  22.507  1.00  0.00    -0.060 A 
ATOM    143  H   UNL A   1      31.285  28.231  22.448  1.00  0.00     0.064 H 
ATOM    144  C   UNL A   1      27.683  27.764  23.514  1.00  0.00    -0.060 A 
ATOM    145  H   UNL A   1      28.293  25.812  24.042  1.00  0.00     0.064 H 
ATOM    146  C   UNL A   1      28.073  28.967  22.937  1.00  0.00    -0.062 A 
ATOM    147  H   UNL A   1      29.663  29.958  21.982  1.00  0.00     0.062 H 
ATOM    148  H   UNL A   1      26.697  27.623  23.784  1.00  0.00     0.062 H 
ATOM    149  H   UNL A   1      27.398  29.740  22.830  1.00  0.00     0.062 H 
ENDBRANCH 126 139
ENDBRANCH 123 124
ENDBRANCH 120 123
ENDBRANCH 117 120
ENDBRANCH 111 114
ENDBRANCH 101 104
ENDBRANCH  97 100
ENDBRANCH   1  97
TORSDOF 18
ENDMDL
MODEL 5
REMARK VINA RESULT:     -12.5      3.920      9.247
REMARK SMILES O=C(NCCCCCCNC(=O)c1ccc(-n2cc(CSc3nc4ccccc4c(=O)n3-c3ccccc3)nn2)cc1)c1ccc(-c2c3nc(c(-c4c(F)c(F)c(F)c(F)c4F)c4ccc([nH]4)c(-c4c(F)c(F)c(F)c(F)c4F)c4nc(c(-c5c(F)c(F)c(F)c(F)c5F)c5ccc2[nH]5)C=C4)C=C3)cc1
REMARK SMILES IDX 8 1 7 4 6 7 5 10 4 13 3 16 1 17 2 18 43 20 44 21 105 22
REMARK SMILES IDX 45 23 104 25 46 27 47 30 48 31 98 32 49 33 103 34 97 35
REMARK SMILES IDX 99 36 50 37 102 38 96 40 95 42 51 44 83 47 63 48 82 49 64 50
REMARK SMILES IDX 67 51 81 52 100 53 65 54 66 56 80 58 101 59 68 62 52 64
REMARK SMILES IDX 53 65 61 66 54 67 55 68 59 69 62 70 56 71 57 72 60 73 58 74
REMARK SMILES IDX 84 75 85 76 93 77 86 78 87 79 91 80 94 81 88 82 89 83 92 84
REMARK SMILES IDX 90 85 69 86 70 87 78 88 71 89 72 90 76 91 79 92 73 93 74 94
REMARK SMILES IDX 77 95 75 96 9 97 10 100 11 101 12 103 13 104 14 105 42 106
REMARK SMILES IDX 15 107 41 109 16 111 17 114 18 115 40 116 19 117 39 119
REMARK SMILES IDX 20 120 21 123 22 124 23 125 32 126 24 127 30 128 25 129
REMARK SMILES IDX 29 130 31 131 26 132 28 134 27 135 33 139 34 140 38 141
REMARK SMILES IDX 35 142 37 144 36 146
REMARK H PARENT 8 2 8 3 7 5 7 6 6 8 6 9 5 11 5 12 4 14 4 15 3 19 44 24 105 26
REMARK H PARENT 45 28 104 29 103 39 97 41 99 43 102 45 96 46 64 55 67 57
REMARK H PARENT 100 60 65 61 101 63 9 98 9 99 10 102 14 108 42 110 15 112
REMARK H PARENT 41 113 18 118 20 121 20 122 25 133 26 136 28 137 27 138 34 143
REMARK H PARENT 38 145 35 147 37 148 36 149
REMARK Flexibility Score: inf
ROOT
ATOM      1  C   UNL A   1      34.458  35.661  32.203  1.00  0.00    -0.036 C 
ATOM      2  H   UNL A   1      35.050  35.144  31.478  1.00  0.00     0.028 H 
ATOM      3  H   UNL A   1      34.812  36.650  32.411  1.00  0.00     0.028 H 
ENDROOT
BRANCH   1   4
ATOM      4  C   UNL A   1      34.539  34.890  33.522  1.00  0.00    -0.052 C 
ATOM      5  H   UNL A   1      35.361  35.282  34.083  1.00  0.00     0.027 H 
ATOM      6  H   UNL A   1      33.591  35.020  33.999  1.00  0.00     0.027 H 
BRANCH   4   7
ATOM      7  C   UNL A   1      34.738  33.377  33.390  1.00  0.00    -0.052 C 
ATOM      8  H   UNL A   1      35.363  33.055  34.197  1.00  0.00     0.027 H 
ATOM      9  H   UNL A   1      33.757  32.953  33.403  1.00  0.00     0.027 H 
BRANCH   7  10
ATOM     10  C   UNL A   1      35.380  32.899  32.081  1.00  0.00    -0.036 C 
ATOM     11  H   UNL A   1      34.987  31.930  31.853  1.00  0.00     0.028 H 
ATOM     12  H   UNL A   1      35.143  33.638  31.345  1.00  0.00     0.028 H 
BRANCH  10  13
ATOM     13  C   UNL A   1      36.906  32.797  32.109  1.00  0.00     0.018 C 
ATOM     14  H   UNL A   1      37.258  33.269  33.002  1.00  0.00     0.049 H 
ATOM     15  H   UNL A   1      37.146  31.755  32.071  1.00  0.00     0.049 H 
BRANCH  13  16
ATOM     16  N   UNL A   1      37.559  33.417  30.977  1.00  0.00    -0.352 N 
ATOM     17  O   UNL A   1      38.702  33.781  29.126  1.00  0.00    -0.269 OA
ATOM     18  C   UNL A   1      38.517  33.027  30.086  1.00  0.00     0.251 C 
ATOM     19  H   UNL A   1      37.239  34.333  30.813  1.00  0.00     0.163 HD
BRANCH  18  20
ATOM     20  C   UNL A   1      39.389  31.831  30.229  1.00  0.00     0.039 A 
ATOM     21  C   UNL A   1      40.765  31.838  30.459  1.00  0.00    -0.049 A 
ATOM     22  C   UNL A   1      38.747  30.592  30.037  1.00  0.00    -0.049 A 
ATOM     23  C   UNL A   1      41.497  30.656  30.384  1.00  0.00    -0.053 A 
ATOM     24  H   UNL A   1      41.243  32.724  30.687  1.00  0.00     0.063 H 
ATOM     25  C   UNL A   1      39.468  29.408  29.970  1.00  0.00    -0.053 A 
ATOM     26  H   UNL A   1      37.720  30.564  29.944  1.00  0.00     0.063 H 
ATOM     27  C   UNL A   1      40.851  29.452  30.093  1.00  0.00    -0.014 A 
ATOM     28  H   UNL A   1      42.517  30.669  30.542  1.00  0.00     0.063 H 
ATOM     29  H   UNL A   1      38.984  28.508  29.830  1.00  0.00     0.063 H 
BRANCH  27  30
ATOM     30  C   UNL A   1      41.642  28.226  30.065  1.00  0.00     0.031 A 
ATOM     31  C   UNL A   1      42.189  27.822  31.392  1.00  0.00     0.074 A 
ATOM     32  C   UNL A   1      41.744  27.444  28.970  1.00  0.00     0.049 A 
ATOM     33  N   UNL A   1      43.426  27.658  31.732  1.00  0.00    -0.248 NA
ATOM     34  C   UNL A   1      41.241  27.698  32.513  1.00  0.00    -0.034 C 
ATOM     35  C   UNL A   1      41.029  27.575  27.699  1.00  0.00    -0.036 A 
ATOM     36  N   UNL A   1      42.453  26.292  28.799  1.00  0.00    -0.354 N 
ATOM     37  C   UNL A   1      43.407  27.241  33.064  1.00  0.00     0.074 A 
ATOM     38  C   UNL A   1      42.060  27.428  33.530  1.00  0.00    -0.034 C 
ATOM     39  H   UNL A   1      40.213  27.794  32.511  1.00  0.00     0.065 H 
ATOM     40  C   UNL A   1      41.162  26.431  26.989  1.00  0.00    -0.036 A 
ATOM     41  H   UNL A   1      40.504  28.409  27.392  1.00  0.00     0.065 H 
ATOM     42  C   UNL A   1      42.073  25.543  27.691  1.00  0.00     0.049 A 
ATOM     43  H   UNL A   1      43.174  26.014  29.409  1.00  0.00     0.167 HD
ATOM     44  C   UNL A   1      44.454  26.554  33.602  1.00  0.00     0.037 A 
ATOM     45  H   UNL A   1      41.767  27.364  34.517  1.00  0.00     0.065 H 
ATOM     46  H   UNL A   1      40.693  26.222  26.094  1.00  0.00     0.065 H 
ATOM     47  C   UNL A   1      42.433  24.263  27.414  1.00  0.00     0.037 A 
ATOM     48  C   UNL A   1      45.657  26.766  32.837  1.00  0.00     0.049 A 
ATOM     49  C   UNL A   1      43.641  23.953  28.219  1.00  0.00     0.074 A 
ATOM     50  C   UNL A   1      46.430  27.864  32.515  1.00  0.00    -0.036 A 
ATOM     51  N   UNL A   1      46.059  25.773  31.979  1.00  0.00    -0.354 N 
ATOM     52  N   UNL A   1      44.807  24.495  28.014  1.00  0.00    -0.248 NA
ATOM     53  C   UNL A   1      43.436  23.384  29.542  1.00  0.00    -0.034 C 
ATOM     54  C   UNL A   1      46.877  27.623  31.182  1.00  0.00    -0.036 A 
ATOM     55  H   UNL A   1      46.641  28.681  33.110  1.00  0.00     0.065 H 
ATOM     56  C   UNL A   1      46.400  26.371  30.796  1.00  0.00     0.049 A 
ATOM     57  H   UNL A   1      46.095  24.809  32.177  1.00  0.00     0.167 HD
ATOM     58  C   UNL A   1      45.309  24.732  29.283  1.00  0.00     0.074 A 
ATOM     59  C   UNL A   1      44.457  23.957  30.183  1.00  0.00    -0.034 C 
ATOM     60  H   UNL A   1      42.715  22.729  29.885  1.00  0.00     0.065 H 
ATOM     61  H   UNL A   1      47.450  28.260  30.607  1.00  0.00     0.065 H 
ATOM     62  C   UNL A   1      46.180  25.757  29.511  1.00  0.00     0.037 A 
ATOM     63  H   UNL A   1      44.626  23.864  31.197  1.00  0.00     0.065 H 
BRANCH  44  64
ATOM     64  C   UNL A   1      44.305  25.375  34.544  1.00  0.00     0.064 A 
ATOM     65  C   UNL A   1      44.773  25.508  35.870  1.00  0.00     0.173 A 
ATOM     66  C   UNL A   1      44.058  24.050  34.125  1.00  0.00     0.173 A 
ATOM     67  F   UNL A   1      45.027  26.720  36.388  1.00  0.00    -0.203 F 
ATOM     68  C   UNL A   1      45.104  24.400  36.654  1.00  0.00     0.198 A 
ATOM     69  C   UNL A   1      44.343  22.947  34.930  1.00  0.00     0.198 A 
ATOM     70  F   UNL A   1      43.639  23.750  32.891  1.00  0.00    -0.203 F 
ATOM     71  F   UNL A   1      45.694  24.580  37.843  1.00  0.00    -0.200 F 
ATOM     72  C   UNL A   1      44.906  23.120  36.175  1.00  0.00     0.200 A 
ATOM     73  F   UNL A   1      44.149  21.713  34.445  1.00  0.00    -0.200 F 
ATOM     74  F   UNL A   1      45.299  22.057  36.888  1.00  0.00    -0.200 F 
ENDBRANCH  44  64
BRANCH  47  75
ATOM     75  C   UNL A   1      41.619  23.194  26.782  1.00  0.00     0.064 A 
ATOM     76  C   UNL A   1      42.196  21.976  26.381  1.00  0.00     0.173 A 
ATOM     77  C   UNL A   1      40.212  23.233  26.822  1.00  0.00     0.173 A 
ATOM     78  F   UNL A   1      43.529  21.834  26.367  1.00  0.00    -0.203 F 
ATOM     79  C   UNL A   1      41.411  20.860  26.061  1.00  0.00     0.198 A 
ATOM     80  C   UNL A   1      39.431  22.123  26.497  1.00  0.00     0.198 A 
ATOM     81  F   UNL A   1      39.568  24.317  27.274  1.00  0.00    -0.203 F 
ATOM     82  F   UNL A   1      41.998  19.698  25.743  1.00  0.00    -0.200 F 
ATOM     83  C   UNL A   1      40.030  20.932  26.129  1.00  0.00     0.200 A 
ATOM     84  F   UNL A   1      38.097  22.194  26.607  1.00  0.00    -0.200 F 
ATOM     85  F   UNL A   1      39.280  19.849  25.883  1.00  0.00    -0.200 F 
ENDBRANCH  47  75
BRANCH  62  86
ATOM     86  C   UNL A   1      46.776  26.447  28.319  1.00  0.00     0.064 A 
ATOM     87  C   UNL A   1      47.905  25.982  27.624  1.00  0.00     0.173 A 
ATOM     88  C   UNL A   1      46.090  27.541  27.777  1.00  0.00     0.173 A 
ATOM     89  F   UNL A   1      48.555  24.880  28.021  1.00  0.00    -0.203 F 
ATOM     90  C   UNL A   1      48.352  26.613  26.465  1.00  0.00     0.198 A 
ATOM     91  C   UNL A   1      46.515  28.147  26.598  1.00  0.00     0.198 A 
ATOM     92  F   UNL A   1      44.971  27.992  28.365  1.00  0.00    -0.203 F 
ATOM     93  F   UNL A   1      49.438  26.156  25.824  1.00  0.00    -0.200 F 
ATOM     94  C   UNL A   1      47.651  27.690  25.949  1.00  0.00     0.200 A 
ATOM     95  F   UNL A   1      45.803  29.154  26.074  1.00  0.00    -0.200 F 
ATOM     96  F   UNL A   1      48.052  28.271  24.809  1.00  0.00    -0.200 F 
ENDBRANCH  62  86
ENDBRANCH  27  30
ENDBRANCH  18  20
ENDBRANCH  13  16
ENDBRANCH  10  13
ENDBRANCH   7  10
ENDBRANCH   4   7
ENDBRANCH   1   4
BRANCH   1  97
ATOM     97  C   UNL A   1      33.048  35.820  31.640  1.00  0.00     0.018 C 
ATOM     98  H   UNL A   1      32.408  36.186  32.415  1.00  0.00     0.049 H 
ATOM     99  H   UNL A   1      32.729  34.862  31.286  1.00  0.00     0.049 H 
BRANCH  97 100
ATOM    100  N   UNL A   1      33.001  36.745  30.519  1.00  0.00    -0.352 N 
ATOM    101  C   UNL A   1      33.282  36.515  29.197  1.00  0.00     0.251 C 
ATOM    102  H   UNL A   1      32.728  37.665  30.740  1.00  0.00     0.163 HD
ATOM    103  O   UNL A   1      33.320  37.447  28.392  1.00  0.00    -0.269 OA
BRANCH 101 104
ATOM    104  C   UNL A   1      33.573  35.143  28.744  1.00  0.00     0.039 A 
ATOM    105  C   UNL A   1      34.903  34.706  28.734  1.00  0.00    -0.047 A 
ATOM    106  C   UNL A   1      32.536  34.292  28.342  1.00  0.00    -0.047 A 
ATOM    107  C   UNL A   1      35.199  33.379  28.420  1.00  0.00    -0.036 A 
ATOM    108  H   UNL A   1      35.665  35.365  28.957  1.00  0.00     0.063 H 
ATOM    109  C   UNL A   1      32.831  32.979  27.988  1.00  0.00    -0.036 A 
ATOM    110  H   UNL A   1      31.564  34.635  28.308  1.00  0.00     0.063 H 
ATOM    111  C   UNL A   1      34.160  32.523  28.053  1.00  0.00     0.066 A 
ATOM    112  H   UNL A   1      36.171  33.035  28.460  1.00  0.00     0.065 H 
ATOM    113  H   UNL A   1      32.078  32.343  27.680  1.00  0.00     0.065 H 
BRANCH 111 114
ATOM    114  N   UNL A   1      34.464  31.226  27.607  1.00  0.00    -0.220 N 
ATOM    115  C   UNL A   1      33.563  30.363  27.057  1.00  0.00     0.055 A 
ATOM    116  N   UNL A   1      35.671  30.637  27.682  1.00  0.00    -0.062 NA
ATOM    117  C   UNL A   1      34.242  29.199  26.812  1.00  0.00     0.093 A 
ATOM    118  H   UNL A   1      32.567  30.550  26.864  1.00  0.00     0.086 H 
ATOM    119  N   UNL A   1      35.532  29.377  27.264  1.00  0.00    -0.134 NA
BRANCH 117 120
ATOM    120  C   UNL A   1      33.715  27.865  26.438  1.00  0.00     0.047 C 
ATOM    121  H   UNL A   1      34.296  27.159  26.994  1.00  0.00     0.045 H 
ATOM    122  H   UNL A   1      33.777  27.920  25.371  1.00  0.00     0.045 H 
BRANCH 120 123
ATOM    123  S   UNL A   1      32.009  27.350  26.642  1.00  0.00    -0.081 SA
BRANCH 123 124
ATOM    124  C   UNL A   1      31.028  27.496  25.209  1.00  0.00     0.176 A 
ATOM    125  N   UNL A   1      31.035  28.706  24.725  1.00  0.00    -0.223 NA
ATOM    126  N   UNL A   1      30.299  26.489  24.602  1.00  0.00    -0.255 N 
ATOM    127  C   UNL A   1      30.177  28.998  23.655  1.00  0.00     0.079 A 
ATOM    128  C   UNL A   1      29.052  26.916  24.128  1.00  0.00     0.266 A 
ATOM    129  C   UNL A   1      30.361  30.124  22.853  1.00  0.00    -0.035 A 
ATOM    130  C   UNL A   1      29.053  28.213  23.444  1.00  0.00     0.066 A 
ATOM    131  O   UNL A   1      27.989  26.311  24.245  1.00  0.00    -0.268 OA
ATOM    132  C   UNL A   1      29.389  30.480  21.908  1.00  0.00    -0.060 A 
ATOM    133  H   UNL A   1      31.213  30.696  22.956  1.00  0.00     0.065 H 
ATOM    134  C   UNL A   1      28.042  28.587  22.555  1.00  0.00    -0.047 A 
ATOM    135  C   UNL A   1      28.212  29.736  21.788  1.00  0.00    -0.061 A 
ATOM    136  H   UNL A   1      29.543  31.298  21.297  1.00  0.00     0.062 H 
ATOM    137  H   UNL A   1      27.183  28.020  22.468  1.00  0.00     0.063 H 
ATOM    138  H   UNL A   1      27.473  30.037  21.133  1.00  0.00     0.062 H 
BRANCH 126 139
ATOM    139  C   UNL A   1      30.644  25.091  24.456  1.00  0.00     0.051 A 
ATOM    140  C   UNL A   1      30.993  24.339  25.600  1.00  0.00    -0.038 A 
ATOM    141  C   UNL A   1      30.714  24.412  23.235  1.00  0.00    -0.038 A 
ATOM    142  C   UNL A   1      31.621  23.096  25.508  1.00  0.00    -0.060 A 
ATOM    143  H   UNL A   1      30.777  24.722  26.534  1.00  0.00     0.064 H 
ATOM    144  C   UNL A   1      31.406  23.197  23.127  1.00  0.00    -0.060 A 
ATOM    145  H   UNL A   1      30.251  24.812  22.404  1.00  0.00     0.064 H 
ATOM    146  C   UNL A   1      31.893  22.557  24.261  1.00  0.00    -0.062 A 
ATOM    147  H   UNL A   1      31.881  22.581  26.364  1.00  0.00     0.062 H 
ATOM    148  H   UNL A   1      31.553  22.773  22.198  1.00  0.00     0.062 H 
ATOM    149  H   UNL A   1      32.450  21.693  24.176  1.00  0.00     0.062 H 
ENDBRANCH 126 139
ENDBRANCH 123 124
ENDBRANCH 120 123
ENDBRANCH 117 120
ENDBRANCH 111 114
ENDBRANCH 101 104
ENDBRANCH  97 100
ENDBRANCH   1  97
TORSDOF 18
ENDMDL
MODEL 6
REMARK VINA RESULT:     -12.5      2.659      3.764
REMARK SMILES O=C(NCCCCCCNC(=O)c1ccc(-n2cc(CSc3nc4ccccc4c(=O)n3-c3ccccc3)nn2)cc1)c1ccc(-c2c3nc(c(-c4c(F)c(F)c(F)c(F)c4F)c4ccc([nH]4)c(-c4c(F)c(F)c(F)c(F)c4F)c4nc(c(-c5c(F)c(F)c(F)c(F)c5F)c5ccc2[nH]5)C=C4)C=C3)cc1
REMARK SMILES IDX 8 1 7 4 6 7 5 10 4 13 3 16 1 17 2 18 43 20 44 21 105 22
REMARK SMILES IDX 45 23 104 25 46 27 47 30 48 31 98 32 49 33 103 34 97 35
REMARK SMILES IDX 99 36 50 37 102 38 96 40 95 42 51 44 83 47 63 48 82 49 64 50
REMARK SMILES IDX 67 51 81 52 100 53 65 54 66 56 80 58 101 59 68 62 52 64
REMARK SMILES IDX 53 65 61 66 54 67 55 68 59 69 62 70 56 71 57 72 60 73 58 74
REMARK SMILES IDX 84 75 85 76 93 77 86 78 87 79 91 80 94 81 88 82 89 83 92 84
REMARK SMILES IDX 90 85 69 86 70 87 78 88 71 89 72 90 76 91 79 92 73 93 74 94
REMARK SMILES IDX 77 95 75 96 9 97 10 100 11 101 12 103 13 104 14 105 42 106
REMARK SMILES IDX 15 107 41 109 16 111 17 114 18 115 40 116 19 117 39 119
REMARK SMILES IDX 20 120 21 123 22 124 23 125 32 126 24 127 30 128 25 129
REMARK SMILES IDX 29 130 31 131 26 132 28 134 27 135 33 139 34 140 38 141
REMARK SMILES IDX 35 142 37 144 36 146
REMARK H PARENT 8 2 8 3 7 5 7 6 6 8 6 9 5 11 5 12 4 14 4 15 3 19 44 24 105 26
REMARK H PARENT 45 28 104 29 103 39 97 41 99 43 102 45 96 46 64 55 67 57
REMARK H PARENT 100 60 65 61 101 63 9 98 9 99 10 102 14 108 42 110 15 112
REMARK H PARENT 41 113 18 118 20 121 20 122 25 133 26 136 28 137 27 138 34 143
REMARK H PARENT 38 145 35 147 37 148 36 149
REMARK Flexibility Score: inf
ROOT
ATOM      1  C   UNL A   1      40.132  24.853  26.604  1.00  0.00    -0.036 C 
ATOM      2  H   UNL A   1      40.874  24.505  25.917  1.00  0.00     0.028 H 
ATOM      3  H   UNL A   1      39.716  25.802  26.333  1.00  0.00     0.028 H 
ENDROOT
BRANCH   1   4
ATOM      4  C   UNL A   1      40.801  25.051  27.967  1.00  0.00    -0.052 C 
ATOM      5  H   UNL A   1      41.189  26.048  28.002  1.00  0.00     0.027 H 
ATOM      6  H   UNL A   1      40.044  24.858  28.697  1.00  0.00     0.027 H 
BRANCH   4   7
ATOM      7  C   UNL A   1      41.947  24.087  28.285  1.00  0.00    -0.052 C 
ATOM      8  H   UNL A   1      42.751  24.658  28.700  1.00  0.00     0.027 H 
ATOM      9  H   UNL A   1      41.538  23.360  28.954  1.00  0.00     0.027 H 
BRANCH   7  10
ATOM     10  C   UNL A   1      42.502  23.293  27.095  1.00  0.00    -0.036 C 
ATOM     11  H   UNL A   1      42.070  22.314  27.120  1.00  0.00     0.028 H 
ATOM     12  H   UNL A   1      42.244  23.849  26.219  1.00  0.00     0.028 H 
BRANCH  10  13
ATOM     13  C   UNL A   1      44.023  23.139  27.073  1.00  0.00     0.018 C 
ATOM     14  H   UNL A   1      44.410  23.493  28.005  1.00  0.00     0.049 H 
ATOM     15  H   UNL A   1      44.226  22.101  26.909  1.00  0.00     0.049 H 
BRANCH  13  16
ATOM     16  N   UNL A   1      44.674  23.866  26.004  1.00  0.00    -0.352 N 
ATOM     17  O   UNL A   1      45.644  25.428  24.787  1.00  0.00    -0.269 OA
ATOM     18  C   UNL A   1      44.874  25.185  25.721  1.00  0.00     0.251 C 
ATOM     19  H   UNL A   1      45.062  23.269  25.325  1.00  0.00     0.163 HD
BRANCH  18  20
ATOM     20  C   UNL A   1      44.183  26.323  26.385  1.00  0.00     0.039 A 
ATOM     21  C   UNL A   1      43.192  27.128  25.822  1.00  0.00    -0.049 A 
ATOM     22  C   UNL A   1      44.647  26.636  27.678  1.00  0.00    -0.049 A 
ATOM     23  C   UNL A   1      42.761  28.277  26.478  1.00  0.00    -0.053 A 
ATOM     24  H   UNL A   1      42.777  26.869  24.913  1.00  0.00     0.063 H 
ATOM     25  C   UNL A   1      44.216  27.775  28.343  1.00  0.00    -0.053 A 
ATOM     26  H   UNL A   1      45.322  26.006  28.139  1.00  0.00     0.063 H 
ATOM     27  C   UNL A   1      43.309  28.621  27.716  1.00  0.00    -0.014 A 
ATOM     28  H   UNL A   1      42.038  28.876  26.050  1.00  0.00     0.063 H 
ATOM     29  H   UNL A   1      44.564  27.990  29.290  1.00  0.00     0.063 H 
BRANCH  27  30
ATOM     30  C   UNL A   1      42.804  29.808  28.397  1.00  0.00     0.031 A 
ATOM     31  C   UNL A   1      43.562  31.055  28.094  1.00  0.00     0.074 A 
ATOM     32  C   UNL A   1      41.662  29.810  29.117  1.00  0.00     0.049 A 
ATOM     33  N   UNL A   1      44.185  31.834  28.917  1.00  0.00    -0.248 NA
ATOM     34  C   UNL A   1      43.745  31.416  26.677  1.00  0.00    -0.034 C 
ATOM     35  C   UNL A   1      40.680  28.732  29.254  1.00  0.00    -0.036 A 
ATOM     36  N   UNL A   1      41.085  30.832  29.812  1.00  0.00    -0.354 N 
ATOM     37  C   UNL A   1      44.695  32.880  28.146  1.00  0.00     0.074 A 
ATOM     38  C   UNL A   1      44.524  32.494  26.772  1.00  0.00    -0.034 C 
ATOM     39  H   UNL A   1      43.368  30.956  25.833  1.00  0.00     0.065 H 
ATOM     40  C   UNL A   1      39.539  29.228  29.784  1.00  0.00    -0.036 A 
ATOM     41  H   UNL A   1      40.835  27.747  28.988  1.00  0.00     0.065 H 
ATOM     42  C   UNL A   1      39.752  30.620  30.142  1.00  0.00     0.049 A 
ATOM     43  H   UNL A   1      41.572  31.651  30.058  1.00  0.00     0.167 HD
ATOM     44  C   UNL A   1      45.003  34.083  28.707  1.00  0.00     0.037 A 
ATOM     45  H   UNL A   1      44.947  32.984  25.969  1.00  0.00     0.065 H 
ATOM     46  H   UNL A   1      38.660  28.704  29.913  1.00  0.00     0.065 H 
ATOM     47  C   UNL A   1      38.875  31.545  30.613  1.00  0.00     0.037 A 
ATOM     48  C   UNL A   1      45.203  33.953  30.128  1.00  0.00     0.049 A 
ATOM     49  C   UNL A   1      39.666  32.681  31.149  1.00  0.00     0.074 A 
ATOM     50  C   UNL A   1      46.082  33.256  30.932  1.00  0.00    -0.036 A 
ATOM     51  N   UNL A   1      44.189  34.357  30.961  1.00  0.00    -0.354 N 
ATOM     52  N   UNL A   1      40.410  32.607  32.216  1.00  0.00    -0.248 NA
ATOM     53  C   UNL A   1      39.989  33.764  30.232  1.00  0.00    -0.034 C 
ATOM     54  C   UNL A   1      45.310  32.856  32.064  1.00  0.00    -0.036 A 
ATOM     55  H   UNL A   1      47.081  33.066  30.754  1.00  0.00     0.065 H 
ATOM     56  C   UNL A   1      44.029  33.382  31.909  1.00  0.00     0.049 A 
ATOM     57  H   UNL A   1      43.673  35.192  30.891  1.00  0.00     0.167 HD
ATOM     58  C   UNL A   1      41.547  33.332  31.899  1.00  0.00     0.074 A 
ATOM     59  C   UNL A   1      41.199  34.086  30.697  1.00  0.00    -0.034 C 
ATOM     60  H   UNL A   1      39.443  34.166  29.454  1.00  0.00     0.065 H 
ATOM     61  H   UNL A   1      45.642  32.280  32.853  1.00  0.00     0.065 H 
ATOM     62  C   UNL A   1      42.749  33.033  32.471  1.00  0.00     0.037 A 
ATOM     63  H   UNL A   1      41.816  34.786  30.257  1.00  0.00     0.065 H 
BRANCH  44  64
ATOM     64  C   UNL A   1      44.708  35.424  28.062  1.00  0.00     0.064 A 
ATOM     65  C   UNL A   1      45.724  36.405  28.053  1.00  0.00     0.173 A 
ATOM     66  C   UNL A   1      43.410  35.902  27.779  1.00  0.00     0.173 A 
ATOM     67  F   UNL A   1      47.002  36.070  28.290  1.00  0.00    -0.203 F 
ATOM     68  C   UNL A   1      45.438  37.766  27.917  1.00  0.00     0.198 A 
ATOM     69  C   UNL A   1      43.136  37.256  27.596  1.00  0.00     0.198 A 
ATOM     70  F   UNL A   1      42.335  35.107  27.776  1.00  0.00    -0.203 F 
ATOM     71  F   UNL A   1      46.416  38.669  28.075  1.00  0.00    -0.200 F 
ATOM     72  C   UNL A   1      44.142  38.192  27.708  1.00  0.00     0.200 A 
ATOM     73  F   UNL A   1      41.871  37.649  27.399  1.00  0.00    -0.200 F 
ATOM     74  F   UNL A   1      43.852  39.498  27.662  1.00  0.00    -0.200 F 
ENDBRANCH  44  64
BRANCH  47  75
ATOM     75  C   UNL A   1      37.425  31.672  30.320  1.00  0.00     0.064 A 
ATOM     76  C   UNL A   1      36.506  32.033  31.321  1.00  0.00     0.173 A 
ATOM     77  C   UNL A   1      36.954  31.724  28.994  1.00  0.00     0.173 A 
ATOM     78  F   UNL A   1      36.886  32.064  32.607  1.00  0.00    -0.203 F 
ATOM     79  C   UNL A   1      35.202  32.440  31.010  1.00  0.00     0.198 A 
ATOM     80  C   UNL A   1      35.652  32.124  28.686  1.00  0.00     0.198 A 
ATOM     81  F   UNL A   1      37.776  31.484  27.964  1.00  0.00    -0.203 F 
ATOM     82  F   UNL A   1      34.373  32.837  31.987  1.00  0.00    -0.200 F 
ATOM     83  C   UNL A   1      34.780  32.495  29.692  1.00  0.00     0.200 A 
ATOM     84  F   UNL A   1      35.271  32.212  27.404  1.00  0.00    -0.200 F 
ATOM     85  F   UNL A   1      33.554  32.944  29.389  1.00  0.00    -0.200 F 
ENDBRANCH  47  75
BRANCH  62  86
ATOM     86  C   UNL A   1      42.755  32.081  33.632  1.00  0.00     0.064 A 
ATOM     87  C   UNL A   1      42.846  30.685  33.503  1.00  0.00     0.173 A 
ATOM     88  C   UNL A   1      42.813  32.616  34.925  1.00  0.00     0.173 A 
ATOM     89  F   UNL A   1      42.901  30.104  32.298  1.00  0.00    -0.203 F 
ATOM     90  C   UNL A   1      42.946  29.861  34.623  1.00  0.00     0.198 A 
ATOM     91  C   UNL A   1      42.951  31.795  36.040  1.00  0.00     0.198 A 
ATOM     92  F   UNL A   1      42.789  33.946  35.104  1.00  0.00    -0.203 F 
ATOM     93  F   UNL A   1      43.023  28.530  34.476  1.00  0.00    -0.200 F 
ATOM     94  C   UNL A   1      43.006  30.418  35.889  1.00  0.00     0.200 A 
ATOM     95  F   UNL A   1      43.062  32.341  37.258  1.00  0.00    -0.200 F 
ATOM     96  F   UNL A   1      43.147  29.631  36.965  1.00  0.00    -0.200 F 
ENDBRANCH  62  86
ENDBRANCH  27  30
ENDBRANCH  18  20
ENDBRANCH  13  16
ENDBRANCH  10  13
ENDBRANCH   7  10
ENDBRANCH   4   7
ENDBRANCH   1   4
BRANCH   1  97
ATOM     97  C   UNL A   1      38.974  23.859  26.597  1.00  0.00     0.018 C 
ATOM     98  H   UNL A   1      38.253  24.178  25.874  1.00  0.00     0.049 H 
ATOM     99  H   UNL A   1      38.559  23.836  27.583  1.00  0.00     0.049 H 
BRANCH  97 100
ATOM    100  N   UNL A   1      39.404  22.511  26.264  1.00  0.00    -0.352 N 
ATOM    101  C   UNL A   1      38.686  21.495  25.688  1.00  0.00     0.251 C 
ATOM    102  H   UNL A   1      40.340  22.298  26.482  1.00  0.00     0.163 HD
ATOM    103  O   UNL A   1      39.166  20.362  25.594  1.00  0.00    -0.269 OA
BRANCH 101 104
ATOM    104  C   UNL A   1      37.317  21.751  25.207  1.00  0.00     0.039 A 
ATOM    105  C   UNL A   1      37.137  22.611  24.117  1.00  0.00    -0.047 A 
ATOM    106  C   UNL A   1      36.221  21.136  25.823  1.00  0.00    -0.047 A 
ATOM    107  C   UNL A   1      35.866  22.784  23.567  1.00  0.00    -0.036 A 
ATOM    108  H   UNL A   1      37.943  23.119  23.722  1.00  0.00     0.063 H 
ATOM    109  C   UNL A   1      34.945  21.338  25.303  1.00  0.00    -0.036 A 
ATOM    110  H   UNL A   1      36.357  20.540  26.654  1.00  0.00     0.063 H 
ATOM    111  C   UNL A   1      34.779  22.143  24.162  1.00  0.00     0.066 A 
ATOM    112  H   UNL A   1      35.733  23.376  22.732  1.00  0.00     0.065 H 
ATOM    113  H   UNL A   1      34.126  20.899  25.753  1.00  0.00     0.065 H 
BRANCH 111 114
ATOM    114  N   UNL A   1      33.482  22.417  23.698  1.00  0.00    -0.220 N 
ATOM    115  C   UNL A   1      32.804  23.576  23.928  1.00  0.00     0.055 A 
ATOM    116  N   UNL A   1      32.711  21.571  22.989  1.00  0.00    -0.062 NA
ATOM    117  C   UNL A   1      31.567  23.420  23.360  1.00  0.00     0.093 A 
ATOM    118  H   UNL A   1      33.153  24.406  24.431  1.00  0.00     0.086 H 
ATOM    119  N   UNL A   1      31.516  22.147  22.837  1.00  0.00    -0.134 NA
BRANCH 117 120
ATOM    120  C   UNL A   1      30.356  24.264  23.501  1.00  0.00     0.047 C 
ATOM    121  H   UNL A   1      29.541  23.580  23.618  1.00  0.00     0.045 H 
ATOM    122  H   UNL A   1      30.444  24.882  22.632  1.00  0.00     0.045 H 
BRANCH 120 123
ATOM    123  S   UNL A   1      30.124  25.510  24.770  1.00  0.00    -0.081 SA
BRANCH 123 124
ATOM    124  C   UNL A   1      30.103  27.151  24.183  1.00  0.00     0.176 A 
ATOM    125  N   UNL A   1      28.976  27.456  23.602  1.00  0.00    -0.223 NA
ATOM    126  N   UNL A   1      31.126  28.077  24.285  1.00  0.00    -0.255 N 
ATOM    127  C   UNL A   1      28.875  28.698  22.960  1.00  0.00     0.079 A 
ATOM    128  C   UNL A   1      31.276  28.866  23.138  1.00  0.00     0.266 A 
ATOM    129  C   UNL A   1      27.640  29.256  22.632  1.00  0.00    -0.035 A 
ATOM    130  C   UNL A   1      30.026  29.349  22.543  1.00  0.00     0.066 A 
ATOM    131  O   UNL A   1      32.341  29.168  22.604  1.00  0.00    -0.268 OA
ATOM    132  C   UNL A   1      27.578  30.409  21.837  1.00  0.00    -0.060 A 
ATOM    133  H   UNL A   1      26.771  28.818  22.973  1.00  0.00     0.065 H 
ATOM    134  C   UNL A   1      29.985  30.461  21.696  1.00  0.00    -0.047 A 
ATOM    135  C   UNL A   1      28.748  30.987  21.336  1.00  0.00    -0.061 A 
ATOM    136  H   UNL A   1      26.663  30.835  21.620  1.00  0.00     0.062 H 
ATOM    137  H   UNL A   1      30.859  30.884  21.344  1.00  0.00     0.063 H 
ATOM    138  H   UNL A   1      28.695  31.800  20.703  1.00  0.00     0.062 H 
BRANCH 126 139
ATOM    139  C   UNL A   1      32.053  28.276  25.379  1.00  0.00     0.051 A 
ATOM    140  C   UNL A   1      31.819  29.313  26.308  1.00  0.00    -0.038 A 
ATOM    141  C   UNL A   1      33.226  27.539  25.570  1.00  0.00    -0.038 A 
ATOM    142  C   UNL A   1      32.805  29.755  27.192  1.00  0.00    -0.060 A 
ATOM    143  H   UNL A   1      30.888  29.759  26.335  1.00  0.00     0.064 H 
ATOM    144  C   UNL A   1      34.249  28.017  26.403  1.00  0.00    -0.060 A 
ATOM    145  H   UNL A   1      33.342  26.632  25.091  1.00  0.00     0.064 H 
ATOM    146  C   UNL A   1      34.051  29.149  27.186  1.00  0.00    -0.062 A 
ATOM    147  H   UNL A   1      32.608  30.529  27.846  1.00  0.00     0.062 H 
ATOM    148  H   UNL A   1      35.155  27.525  26.436  1.00  0.00     0.062 H 
ATOM    149  H   UNL A   1      34.821  29.533  27.756  1.00  0.00     0.062 H 
ENDBRANCH 126 139
ENDBRANCH 123 124
ENDBRANCH 120 123
ENDBRANCH 117 120
ENDBRANCH 111 114
ENDBRANCH 101 104
ENDBRANCH  97 100
ENDBRANCH   1  97
TORSDOF 18
ENDMDL
MODEL 7
REMARK VINA RESULT:     -12.4      2.745      4.256
REMARK SMILES O=C(NCCCCCCNC(=O)c1ccc(-n2cc(CSc3nc4ccccc4c(=O)n3-c3ccccc3)nn2)cc1)c1ccc(-c2c3nc(c(-c4c(F)c(F)c(F)c(F)c4F)c4ccc([nH]4)c(-c4c(F)c(F)c(F)c(F)c4F)c4nc(c(-c5c(F)c(F)c(F)c(F)c5F)c5ccc2[nH]5)C=C4)C=C3)cc1
REMARK SMILES IDX 8 1 7 4 6 7 5 10 4 13 3 16 1 17 2 18 43 20 44 21 105 22
REMARK SMILES IDX 45 23 104 25 46 27 47 30 48 31 98 32 49 33 103 34 97 35
REMARK SMILES IDX 99 36 50 37 102 38 96 40 95 42 51 44 83 47 63 48 82 49 64 50
REMARK SMILES IDX 67 51 81 52 100 53 65 54 66 56 80 58 101 59 68 62 52 64
REMARK SMILES IDX 53 65 61 66 54 67 55 68 59 69 62 70 56 71 57 72 60 73 58 74
REMARK SMILES IDX 84 75 85 76 93 77 86 78 87 79 91 80 94 81 88 82 89 83 92 84
REMARK SMILES IDX 90 85 69 86 70 87 78 88 71 89 72 90 76 91 79 92 73 93 74 94
REMARK SMILES IDX 77 95 75 96 9 97 10 100 11 101 12 103 13 104 14 105 42 106
REMARK SMILES IDX 15 107 41 109 16 111 17 114 18 115 40 116 19 117 39 119
REMARK SMILES IDX 20 120 21 123 22 124 23 125 32 126 24 127 30 128 25 129
REMARK SMILES IDX 29 130 31 131 26 132 28 134 27 135 33 139 34 140 38 141
REMARK SMILES IDX 35 142 37 144 36 146
REMARK H PARENT 8 2 8 3 7 5 7 6 6 8 6 9 5 11 5 12 4 14 4 15 3 19 44 24 105 26
REMARK H PARENT 45 28 104 29 103 39 97 41 99 43 102 45 96 46 64 55 67 57
REMARK H PARENT 100 60 65 61 101 63 9 98 9 99 10 102 14 108 42 110 15 112
REMARK H PARENT 41 113 18 118 20 121 20 122 25 133 26 136 28 137 27 138 34 143
REMARK H PARENT 38 145 35 147 37 148 36 149
REMARK Flexibility Score: inf
ROOT
ATOM      1  C   UNL A   1      39.887  24.813  26.502  1.00  0.00    -0.036 C 
ATOM      2  H   UNL A   1      40.629  24.301  25.928  1.00  0.00     0.028 H 
ATOM      3  H   UNL A   1      39.580  25.741  26.065  1.00  0.00     0.028 H 
ENDROOT
BRANCH   1   4
ATOM      4  C   UNL A   1      40.493  25.159  27.864  1.00  0.00    -0.052 C 
ATOM      5  H   UNL A   1      40.954  26.122  27.785  1.00  0.00     0.027 H 
ATOM      6  H   UNL A   1      39.685  25.125  28.564  1.00  0.00     0.027 H 
BRANCH   4   7
ATOM      7  C   UNL A   1      41.544  24.175  28.387  1.00  0.00    -0.052 C 
ATOM      8  H   UNL A   1      42.370  24.744  28.761  1.00  0.00     0.027 H 
ATOM      9  H   UNL A   1      41.047  23.588  29.130  1.00  0.00     0.027 H 
BRANCH   7  10
ATOM     10  C   UNL A   1      42.090  23.174  27.362  1.00  0.00    -0.036 C 
ATOM     11  H   UNL A   1      41.746  22.198  27.636  1.00  0.00     0.028 H 
ATOM     12  H   UNL A   1      41.732  23.498  26.408  1.00  0.00     0.028 H 
BRANCH  10  13
ATOM     13  C   UNL A   1      43.614  23.125  27.253  1.00  0.00     0.018 C 
ATOM     14  H   UNL A   1      44.028  23.619  28.108  1.00  0.00     0.049 H 
ATOM     15  H   UNL A   1      43.887  22.092  27.200  1.00  0.00     0.049 H 
BRANCH  13  16
ATOM     16  N   UNL A   1      44.141  23.757  26.064  1.00  0.00    -0.352 N 
ATOM     17  O   UNL A   1      44.982  25.204  24.627  1.00  0.00    -0.269 OA
ATOM     18  C   UNL A   1      44.329  25.048  25.663  1.00  0.00     0.251 C 
ATOM     19  H   UNL A   1      44.431  23.104  25.387  1.00  0.00     0.163 HD
BRANCH  18  20
ATOM     20  C   UNL A   1      43.747  26.248  26.322  1.00  0.00     0.039 A 
ATOM     21  C   UNL A   1      42.786  27.101  25.780  1.00  0.00    -0.049 A 
ATOM     22  C   UNL A   1      44.292  26.565  27.582  1.00  0.00    -0.049 A 
ATOM     23  C   UNL A   1      42.463  28.295  26.419  1.00  0.00    -0.053 A 
ATOM     24  H   UNL A   1      42.311  26.846  24.900  1.00  0.00     0.063 H 
ATOM     25  C   UNL A   1      43.969  27.749  28.231  1.00  0.00    -0.053 A 
ATOM     26  H   UNL A   1      44.945  25.905  28.031  1.00  0.00     0.063 H 
ATOM     27  C   UNL A   1      43.091  28.635  27.620  1.00  0.00    -0.014 A 
ATOM     28  H   UNL A   1      41.761  28.929  26.006  1.00  0.00     0.063 H 
ATOM     29  H   UNL A   1      44.375  27.967  29.153  1.00  0.00     0.063 H 
BRANCH  27  30
ATOM     30  C   UNL A   1      42.697  29.872  28.286  1.00  0.00     0.031 A 
ATOM     31  C   UNL A   1      43.548  31.047  27.943  1.00  0.00     0.074 A 
ATOM     32  C   UNL A   1      41.575  29.981  29.027  1.00  0.00     0.049 A 
ATOM     33  N   UNL A   1      44.249  31.789  28.738  1.00  0.00    -0.248 NA
ATOM     34  C   UNL A   1      43.731  31.366  26.516  1.00  0.00    -0.034 C 
ATOM     35  C   UNL A   1      40.512  28.989  29.204  1.00  0.00    -0.036 A 
ATOM     36  N   UNL A   1      41.097  31.060  29.711  1.00  0.00    -0.354 N 
ATOM     37  C   UNL A   1      44.826  32.775  27.937  1.00  0.00     0.074 A 
ATOM     38  C   UNL A   1      44.597  32.378  26.574  1.00  0.00    -0.034 C 
ATOM     39  H   UNL A   1      43.300  30.923  25.689  1.00  0.00     0.065 H 
ATOM     40  C   UNL A   1      39.425  29.587  29.746  1.00  0.00    -0.036 A 
ATOM     41  H   UNL A   1      40.580  27.990  28.955  1.00  0.00     0.065 H 
ATOM     42  C   UNL A   1      39.758  30.964  30.071  1.00  0.00     0.049 A 
ATOM     43  H   UNL A   1      41.654  31.840  29.932  1.00  0.00     0.167 HD
ATOM     44  C   UNL A   1      45.243  33.959  28.468  1.00  0.00     0.037 A 
ATOM     45  H   UNL A   1      45.042  32.817  25.753  1.00  0.00     0.065 H 
ATOM     46  H   UNL A   1      38.509  29.139  29.902  1.00  0.00     0.065 H 
ATOM     47  C   UNL A   1      38.969  31.966  30.539  1.00  0.00     0.037 A 
ATOM     48  C   UNL A   1      45.460  33.840  29.887  1.00  0.00     0.049 A 
ATOM     49  C   UNL A   1      39.860  33.043  31.037  1.00  0.00     0.074 A 
ATOM     50  C   UNL A   1      46.296  33.088  30.688  1.00  0.00    -0.036 A 
ATOM     51  N   UNL A   1      44.500  34.341  30.730  1.00  0.00    -0.354 N 
ATOM     52  N   UNL A   1      40.617  32.929  32.091  1.00  0.00    -0.248 NA
ATOM     53  C   UNL A   1      40.252  34.078  30.093  1.00  0.00    -0.034 C 
ATOM     54  C   UNL A   1      45.518  32.774  31.842  1.00  0.00    -0.036 A 
ATOM     55  H   UNL A   1      47.273  32.814  30.495  1.00  0.00     0.065 H 
ATOM     56  C   UNL A   1      44.281  33.400  31.700  1.00  0.00     0.049 A 
ATOM     57  H   UNL A   1      44.052  35.214  30.653  1.00  0.00     0.167 HD
ATOM     58  C   UNL A   1      41.802  33.553  31.739  1.00  0.00     0.074 A 
ATOM     59  C   UNL A   1      41.492  34.309  30.528  1.00  0.00    -0.034 C 
ATOM     60  H   UNL A   1      39.724  34.509  29.316  1.00  0.00     0.065 H 
ATOM     61  H   UNL A   1      45.817  32.188  32.637  1.00  0.00     0.065 H 
ATOM     62  C   UNL A   1      42.988  33.167  32.293  1.00  0.00     0.037 A 
ATOM     63  H   UNL A   1      42.156  34.948  30.062  1.00  0.00     0.065 H 
BRANCH  44  64
ATOM     64  C   UNL A   1      45.045  35.308  27.801  1.00  0.00     0.064 A 
ATOM     65  C   UNL A   1      46.105  36.239  27.839  1.00  0.00     0.173 A 
ATOM     66  C   UNL A   1      43.787  35.843  27.449  1.00  0.00     0.173 A 
ATOM     67  F   UNL A   1      47.352  35.847  28.143  1.00  0.00    -0.203 F 
ATOM     68  C   UNL A   1      45.891  37.611  27.681  1.00  0.00     0.198 A 
ATOM     69  C   UNL A   1      43.587  37.207  27.245  1.00  0.00     0.198 A 
ATOM     70  F   UNL A   1      42.677  35.099  27.396  1.00  0.00    -0.203 F 
ATOM     71  F   UNL A   1      46.901  38.469  27.884  1.00  0.00    -0.200 F 
ATOM     72  C   UNL A   1      44.628  38.096  27.403  1.00  0.00     0.200 A 
ATOM     73  F   UNL A   1      42.353  37.658  26.981  1.00  0.00    -0.200 F 
ATOM     74  F   UNL A   1      44.403  39.413  27.335  1.00  0.00    -0.200 F 
ENDBRANCH  44  64
BRANCH  47  75
ATOM     75  C   UNL A   1      37.528  32.205  30.271  1.00  0.00     0.064 A 
ATOM     76  C   UNL A   1      36.556  31.999  31.265  1.00  0.00     0.173 A 
ATOM     77  C   UNL A   1      37.110  32.915  29.129  1.00  0.00     0.173 A 
ATOM     78  F   UNL A   1      36.881  31.380  32.410  1.00  0.00    -0.203 F 
ATOM     79  C   UNL A   1      35.251  32.491  31.131  1.00  0.00     0.198 A 
ATOM     80  C   UNL A   1      35.808  33.400  28.994  1.00  0.00     0.198 A 
ATOM     81  F   UNL A   1      37.983  33.240  28.166  1.00  0.00    -0.203 F 
ATOM     82  F   UNL A   1      34.368  32.328  32.127  1.00  0.00    -0.200 F 
ATOM     83  C   UNL A   1      34.882  33.200  30.000  1.00  0.00     0.200 A 
ATOM     84  F   UNL A   1      35.477  34.119  27.913  1.00  0.00    -0.200 F 
ATOM     85  F   UNL A   1      33.653  33.725  29.898  1.00  0.00    -0.200 F 
ENDBRANCH  47  75
BRANCH  62  86
ATOM     86  C   UNL A   1      42.940  32.240  33.473  1.00  0.00     0.064 A 
ATOM     87  C   UNL A   1      42.767  32.667  34.801  1.00  0.00     0.173 A 
ATOM     88  C   UNL A   1      42.927  30.861  33.230  1.00  0.00     0.173 A 
ATOM     89  F   UNL A   1      42.666  33.967  35.101  1.00  0.00    -0.203 F 
ATOM     90  C   UNL A   1      42.632  31.750  35.842  1.00  0.00     0.198 A 
ATOM     91  C   UNL A   1      42.754  29.948  34.267  1.00  0.00     0.198 A 
ATOM     92  F   UNL A   1      43.029  30.398  31.975  1.00  0.00    -0.203 F 
ATOM     93  F   UNL A   1      42.476  32.181  37.103  1.00  0.00    -0.200 F 
ATOM     94  C   UNL A   1      42.618  30.392  35.572  1.00  0.00     0.200 A 
ATOM     95  F   UNL A   1      42.687  28.638  33.994  1.00  0.00    -0.200 F 
ATOM     96  F   UNL A   1      42.442  29.510  36.566  1.00  0.00    -0.200 F 
ENDBRANCH  62  86
ENDBRANCH  27  30
ENDBRANCH  18  20
ENDBRANCH  13  16
ENDBRANCH  10  13
ENDBRANCH   7  10
ENDBRANCH   4   7
ENDBRANCH   1   4
BRANCH   1  97
ATOM     97  C   UNL A   1      38.641  23.934  26.560  1.00  0.00     0.018 C 
ATOM     98  H   UNL A   1      37.870  24.392  25.977  1.00  0.00     0.049 H 
ATOM     99  H   UNL A   1      38.355  23.842  27.587  1.00  0.00     0.049 H 
BRANCH  97 100
ATOM    100  N   UNL A   1      38.883  22.596  26.045  1.00  0.00    -0.352 N 
ATOM    101  C   UNL A   1      38.042  21.781  25.331  1.00  0.00     0.251 C 
ATOM    102  H   UNL A   1      39.774  22.223  26.235  1.00  0.00     0.163 HD
ATOM    103  O   UNL A   1      38.359  20.616  25.083  1.00  0.00    -0.269 OA
BRANCH 101 104
ATOM    104  C   UNL A   1      36.735  22.295  24.886  1.00  0.00     0.039 A 
ATOM    105  C   UNL A   1      36.653  22.946  23.649  1.00  0.00    -0.047 A 
ATOM    106  C   UNL A   1      35.596  22.124  25.681  1.00  0.00    -0.047 A 
ATOM    107  C   UNL A   1      35.412  23.340  23.149  1.00  0.00    -0.036 A 
ATOM    108  H   UNL A   1      37.511  23.135  23.108  1.00  0.00     0.063 H 
ATOM    109  C   UNL A   1      34.361  22.553  25.204  1.00  0.00    -0.036 A 
ATOM    110  H   UNL A   1      35.671  21.684  26.611  1.00  0.00     0.063 H 
ATOM    111  C   UNL A   1      34.273  23.138  23.928  1.00  0.00     0.066 A 
ATOM    112  H   UNL A   1      35.338  23.774  22.215  1.00  0.00     0.065 H 
ATOM    113  H   UNL A   1      33.514  22.442  25.784  1.00  0.00     0.065 H 
BRANCH 111 114
ATOM    114  N   UNL A   1      33.041  23.652  23.491  1.00  0.00    -0.220 N 
ATOM    115  C   UNL A   1      32.852  24.914  23.011  1.00  0.00     0.055 A 
ATOM    116  N   UNL A   1      31.869  22.992  23.510  1.00  0.00    -0.062 NA
ATOM    117  C   UNL A   1      31.513  25.032  22.752  1.00  0.00     0.093 A 
ATOM    118  H   UNL A   1      33.576  25.636  22.871  1.00  0.00     0.086 H 
ATOM    119  N   UNL A   1      30.918  23.847  23.126  1.00  0.00    -0.134 NA
BRANCH 117 120
ATOM    120  C   UNL A   1      30.721  26.246  22.435  1.00  0.00     0.047 C 
ATOM    121  H   UNL A   1      29.868  25.898  21.891  1.00  0.00     0.045 H 
ATOM    122  H   UNL A   1      31.469  26.853  21.969  1.00  0.00     0.045 H 
BRANCH 120 123
ATOM    123  S   UNL A   1      30.079  27.391  23.656  1.00  0.00    -0.081 SA
BRANCH 123 124
ATOM    124  C   UNL A   1      31.175  27.751  24.963  1.00  0.00     0.176 A 
ATOM    125  N   UNL A   1      31.387  29.031  25.094  1.00  0.00    -0.223 NA
ATOM    126  N   UNL A   1      31.788  26.838  25.802  1.00  0.00    -0.255 N 
ATOM    127  C   UNL A   1      32.356  29.453  26.015  1.00  0.00     0.079 A 
ATOM    128  C   UNL A   1      33.117  27.164  26.100  1.00  0.00     0.266 A 
ATOM    129  C   UNL A   1      32.403  30.767  26.481  1.00  0.00    -0.035 A 
ATOM    130  C   UNL A   1      33.362  28.579  26.400  1.00  0.00     0.066 A 
ATOM    131  O   UNL A   1      34.065  26.383  26.123  1.00  0.00    -0.268 OA
ATOM    132  C   UNL A   1      33.486  31.198  27.260  1.00  0.00    -0.060 A 
ATOM    133  H   UNL A   1      31.641  31.422  26.250  1.00  0.00     0.065 H 
ATOM    134  C   UNL A   1      34.481  29.005  27.120  1.00  0.00    -0.047 A 
ATOM    135  C   UNL A   1      34.543  30.329  27.545  1.00  0.00    -0.061 A 
ATOM    136  H   UNL A   1      33.502  32.163  27.626  1.00  0.00     0.062 H 
ATOM    137  H   UNL A   1      35.249  28.349  27.333  1.00  0.00     0.063 H 
ATOM    138  H   UNL A   1      35.365  30.668  28.068  1.00  0.00     0.062 H 
BRANCH 126 139
ATOM    139  C   UNL A   1      31.249  25.606  26.338  1.00  0.00     0.051 A 
ATOM    140  C   UNL A   1      32.127  24.640  26.876  1.00  0.00    -0.038 A 
ATOM    141  C   UNL A   1      29.895  25.258  26.320  1.00  0.00    -0.038 A 
ATOM    142  C   UNL A   1      31.724  23.327  27.126  1.00  0.00    -0.060 A 
ATOM    143  H   UNL A   1      33.099  24.913  27.091  1.00  0.00     0.064 H 
ATOM    144  C   UNL A   1      29.493  23.926  26.501  1.00  0.00    -0.060 A 
ATOM    145  H   UNL A   1      29.182  25.989  26.171  1.00  0.00     0.064 H 
ATOM    146  C   UNL A   1      30.415  22.952  26.867  1.00  0.00    -0.062 A 
ATOM    147  H   UNL A   1      32.396  22.640  27.501  1.00  0.00     0.062 H 
ATOM    148  H   UNL A   1      28.504  23.666  26.362  1.00  0.00     0.062 H 
ATOM    149  H   UNL A   1      30.130  21.963  26.945  1.00  0.00     0.062 H 
ENDBRANCH 126 139
ENDBRANCH 123 124
ENDBRANCH 120 123
ENDBRANCH 117 120
ENDBRANCH 111 114
ENDBRANCH 101 104
ENDBRANCH  97 100
ENDBRANCH   1  97
TORSDOF 18
ENDMDL
MODEL 8
REMARK VINA RESULT:     -12.3      3.552      9.204
REMARK SMILES O=C(NCCCCCCNC(=O)c1ccc(-n2cc(CSc3nc4ccccc4c(=O)n3-c3ccccc3)nn2)cc1)c1ccc(-c2c3nc(c(-c4c(F)c(F)c(F)c(F)c4F)c4ccc([nH]4)c(-c4c(F)c(F)c(F)c(F)c4F)c4nc(c(-c5c(F)c(F)c(F)c(F)c5F)c5ccc2[nH]5)C=C4)C=C3)cc1
REMARK SMILES IDX 8 1 7 4 6 7 5 10 4 13 3 16 1 17 2 18 43 20 44 21 105 22
REMARK SMILES IDX 45 23 104 25 46 27 47 30 48 31 98 32 49 33 103 34 97 35
REMARK SMILES IDX 99 36 50 37 102 38 96 40 95 42 51 44 83 47 63 48 82 49 64 50
REMARK SMILES IDX 67 51 81 52 100 53 65 54 66 56 80 58 101 59 68 62 52 64
REMARK SMILES IDX 53 65 61 66 54 67 55 68 59 69 62 70 56 71 57 72 60 73 58 74
REMARK SMILES IDX 84 75 85 76 93 77 86 78 87 79 91 80 94 81 88 82 89 83 92 84
REMARK SMILES IDX 90 85 69 86 70 87 78 88 71 89 72 90 76 91 79 92 73 93 74 94
REMARK SMILES IDX 77 95 75 96 9 97 10 100 11 101 12 103 13 104 14 105 42 106
REMARK SMILES IDX 15 107 41 109 16 111 17 114 18 115 40 116 19 117 39 119
REMARK SMILES IDX 20 120 21 123 22 124 23 125 32 126 24 127 30 128 25 129
REMARK SMILES IDX 29 130 31 131 26 132 28 134 27 135 33 139 34 140 38 141
REMARK SMILES IDX 35 142 37 144 36 146
REMARK H PARENT 8 2 8 3 7 5 7 6 6 8 6 9 5 11 5 12 4 14 4 15 3 19 44 24 105 26
REMARK H PARENT 45 28 104 29 103 39 97 41 99 43 102 45 96 46 64 55 67 57
REMARK H PARENT 100 60 65 61 101 63 9 98 9 99 10 102 14 108 42 110 15 112
REMARK H PARENT 41 113 18 118 20 121 20 122 25 133 26 136 28 137 27 138 34 143
REMARK H PARENT 38 145 35 147 37 148 36 149
REMARK Flexibility Score: inf
ROOT
ATOM      1  C   UNL A   1      36.611  30.031  31.483  1.00  0.00    -0.036 C 
ATOM      2  H   UNL A   1      36.233  29.109  31.870  1.00  0.00     0.028 H 
ATOM      3  H   UNL A   1      37.664  30.009  31.291  1.00  0.00     0.028 H 
ENDROOT
BRANCH   1   4
ATOM      4  C   UNL A   1      36.389  31.117  32.539  1.00  0.00    -0.052 C 
ATOM      5  H   UNL A   1      35.877  31.932  32.072  1.00  0.00     0.027 H 
ATOM      6  H   UNL A   1      35.833  30.653  33.326  1.00  0.00     0.027 H 
BRANCH   4   7
ATOM      7  C   UNL A   1      37.659  31.670  33.192  1.00  0.00    -0.052 C 
ATOM      8  H   UNL A   1      37.729  31.257  34.177  1.00  0.00     0.027 H 
ATOM      9  H   UNL A   1      38.463  31.392  32.544  1.00  0.00     0.027 H 
BRANCH   7  10
ATOM     10  C   UNL A   1      37.735  33.197  33.318  1.00  0.00    -0.036 C 
ATOM     11  H   UNL A   1      36.968  33.619  32.701  1.00  0.00     0.028 H 
ATOM     12  H   UNL A   1      37.614  33.418  34.357  1.00  0.00     0.028 H 
BRANCH  10  13
ATOM     13  C   UNL A   1      39.070  33.815  32.902  1.00  0.00     0.018 C 
ATOM     14  H   UNL A   1      39.261  34.658  33.532  1.00  0.00     0.049 H 
ATOM     15  H   UNL A   1      39.810  33.048  33.004  1.00  0.00     0.049 H 
BRANCH  13  16
ATOM     16  N   UNL A   1      39.114  34.256  31.525  1.00  0.00    -0.352 N 
ATOM     17  O   UNL A   1      39.167  34.323  29.321  1.00  0.00    -0.269 OA
ATOM     18  C   UNL A   1      39.415  33.662  30.334  1.00  0.00     0.251 C 
ATOM     19  H   UNL A   1      38.870  35.204  31.425  1.00  0.00     0.163 HD
BRANCH  18  20
ATOM     20  C   UNL A   1      40.081  32.342  30.174  1.00  0.00     0.039 A 
ATOM     21  C   UNL A   1      39.445  31.116  29.975  1.00  0.00    -0.049 A 
ATOM     22  C   UNL A   1      41.483  32.355  30.313  1.00  0.00    -0.049 A 
ATOM     23  C   UNL A   1      40.169  29.929  30.031  1.00  0.00    -0.053 A 
ATOM     24  H   UNL A   1      38.430  31.090  29.786  1.00  0.00     0.063 H 
ATOM     25  C   UNL A   1      42.215  31.177  30.361  1.00  0.00    -0.053 A 
ATOM     26  H   UNL A   1      41.976  33.259  30.382  1.00  0.00     0.063 H 
ATOM     27  C   UNL A   1      41.546  29.962  30.270  1.00  0.00    -0.014 A 
ATOM     28  H   UNL A   1      39.691  29.025  29.897  1.00  0.00     0.063 H 
ATOM     29  H   UNL A   1      43.241  31.202  30.462  1.00  0.00     0.063 H 
BRANCH  27  30
ATOM     30  C   UNL A   1      42.282  28.703  30.278  1.00  0.00     0.031 A 
ATOM     31  C   UNL A   1      42.753  28.280  31.627  1.00  0.00     0.074 A 
ATOM     32  C   UNL A   1      42.397  27.914  29.190  1.00  0.00     0.049 A 
ATOM     33  N   UNL A   1      43.966  28.063  32.021  1.00  0.00    -0.248 NA
ATOM     34  C   UNL A   1      41.754  28.201  32.707  1.00  0.00    -0.034 C 
ATOM     35  C   UNL A   1      41.743  28.070  27.888  1.00  0.00    -0.036 A 
ATOM     36  N   UNL A   1      43.062  26.731  29.051  1.00  0.00    -0.354 N 
ATOM     37  C   UNL A   1      43.872  27.652  33.351  1.00  0.00     0.074 A 
ATOM     38  C   UNL A   1      42.516  27.900  33.759  1.00  0.00    -0.034 C 
ATOM     39  H   UNL A   1      40.732  28.342  32.661  1.00  0.00     0.065 H 
ATOM     40  C   UNL A   1      41.857  26.919  27.187  1.00  0.00    -0.036 A 
ATOM     41  H   UNL A   1      41.269  28.926  27.558  1.00  0.00     0.065 H 
ATOM     42  C   UNL A   1      42.697  25.995  27.929  1.00  0.00     0.049 A 
ATOM     43  H   UNL A   1      43.742  26.423  29.692  1.00  0.00     0.167 HD
ATOM     44  C   UNL A   1      44.864  26.922  33.935  1.00  0.00     0.037 A 
ATOM     45  H   UNL A   1      42.178  27.851  34.733  1.00  0.00     0.065 H 
ATOM     46  H   UNL A   1      41.418  26.728  26.273  1.00  0.00     0.065 H 
ATOM     47  C   UNL A   1      43.012  24.700  27.670  1.00  0.00     0.037 A 
ATOM     48  C   UNL A   1      46.107  27.078  33.223  1.00  0.00     0.049 A 
ATOM     49  C   UNL A   1      44.169  24.340  28.526  1.00  0.00     0.074 A 
ATOM     50  C   UNL A   1      46.940  28.140  32.933  1.00  0.00    -0.036 A 
ATOM     51  N   UNL A   1      46.501  26.066  32.385  1.00  0.00    -0.354 N 
ATOM     52  N   UNL A   1      45.367  24.830  28.371  1.00  0.00    -0.248 NA
ATOM     53  C   UNL A   1      43.883  23.785  29.841  1.00  0.00    -0.034 C 
ATOM     54  C   UNL A   1      47.433  27.875  31.620  1.00  0.00    -0.036 A 
ATOM     55  H   UNL A   1      47.160  28.949  33.535  1.00  0.00     0.065 H 
ATOM     56  C   UNL A   1      46.918  26.644  31.216  1.00  0.00     0.049 A 
ATOM     57  H   UNL A   1      46.487  25.102  32.585  1.00  0.00     0.167 HD
ATOM     58  C   UNL A   1      45.823  25.049  29.660  1.00  0.00     0.074 A 
ATOM     59  C   UNL A   1      44.900  24.315  30.524  1.00  0.00    -0.034 C 
ATOM     60  H   UNL A   1      43.120  23.164  30.153  1.00  0.00     0.065 H 
ATOM     61  H   UNL A   1      48.057  28.485  31.070  1.00  0.00     0.065 H 
ATOM     62  C   UNL A   1      46.727  26.036  29.924  1.00  0.00     0.037 A 
ATOM     63  H   UNL A   1      45.020  24.218  31.544  1.00  0.00     0.065 H 
BRANCH  44  64
ATOM     64  C   UNL A   1      44.623  25.753  34.872  1.00  0.00     0.064 A 
ATOM     65  C   UNL A   1      45.282  25.745  36.121  1.00  0.00     0.173 A 
ATOM     66  C   UNL A   1      44.076  24.515  34.473  1.00  0.00     0.173 A 
ATOM     67  F   UNL A   1      45.827  26.867  36.616  1.00  0.00    -0.203 F 
ATOM     68  C   UNL A   1      45.499  24.563  36.835  1.00  0.00     0.198 A 
ATOM     69  C   UNL A   1      44.253  23.347  35.214  1.00  0.00     0.198 A 
ATOM     70  F   UNL A   1      43.445  24.349  33.306  1.00  0.00    -0.203 F 
ATOM     71  F   UNL A   1      46.267  24.583  37.933  1.00  0.00    -0.200 F 
ATOM     72  C   UNL A   1      45.001  23.363  36.371  1.00  0.00     0.200 A 
ATOM     73  F   UNL A   1      43.766  22.191  34.743  1.00  0.00    -0.200 F 
ATOM     74  F   UNL A   1      45.278  22.217  37.006  1.00  0.00    -0.200 F 
ENDBRANCH  44  64
BRANCH  47  75
ATOM     75  C   UNL A   1      42.180  23.665  27.005  1.00  0.00     0.064 A 
ATOM     76  C   UNL A   1      42.764  22.563  26.356  1.00  0.00     0.173 A 
ATOM     77  C   UNL A   1      40.794  23.585  27.241  1.00  0.00     0.173 A 
ATOM     78  F   UNL A   1      44.087  22.531  26.139  1.00  0.00    -0.203 F 
ATOM     79  C   UNL A   1      42.009  21.442  25.985  1.00  0.00     0.198 A 
ATOM     80  C   UNL A   1      40.042  22.471  26.867  1.00  0.00     0.198 A 
ATOM     81  F   UNL A   1      40.159  24.543  27.930  1.00  0.00    -0.203 F 
ATOM     82  F   UNL A   1      42.612  20.384  25.425  1.00  0.00    -0.200 F 
ATOM     83  C   UNL A   1      40.651  21.393  26.251  1.00  0.00     0.200 A 
ATOM     84  F   UNL A   1      38.736  22.420  27.167  1.00  0.00    -0.200 F 
ATOM     85  F   UNL A   1      39.939  20.297  25.954  1.00  0.00    -0.200 F 
ENDBRANCH  47  75
BRANCH  62  86
ATOM     86  C   UNL A   1      47.404  26.695  28.757  1.00  0.00     0.064 A 
ATOM     87  C   UNL A   1      46.902  27.830  28.097  1.00  0.00     0.173 A 
ATOM     88  C   UNL A   1      48.677  26.243  28.389  1.00  0.00     0.173 A 
ATOM     89  F   UNL A   1      45.739  28.384  28.461  1.00  0.00    -0.203 F 
ATOM     90  C   UNL A   1      47.627  28.454  27.083  1.00  0.00     0.198 A 
ATOM     91  C   UNL A   1      49.415  26.891  27.403  1.00  0.00     0.198 A 
ATOM     92  F   UNL A   1      49.230  25.200  29.027  1.00  0.00    -0.203 F 
ATOM     93  F   UNL A   1      47.124  29.531  26.461  1.00  0.00    -0.200 F 
ATOM     94  C   UNL A   1      48.885  27.988  26.743  1.00  0.00     0.200 A 
ATOM     95  F   UNL A   1      50.653  26.469  27.115  1.00  0.00    -0.200 F 
ATOM     96  F   UNL A   1      49.603  28.614  25.799  1.00  0.00    -0.200 F 
ENDBRANCH  62  86
ENDBRANCH  27  30
ENDBRANCH  18  20
ENDBRANCH  13  16
ENDBRANCH  10  13
ENDBRANCH   7  10
ENDBRANCH   4   7
ENDBRANCH   1   4
BRANCH   1  97
ATOM     97  C   UNL A   1      35.935  30.296  30.140  1.00  0.00     0.018 C 
ATOM     98  H   UNL A   1      35.195  29.542  29.975  1.00  0.00     0.049 H 
ATOM     99  H   UNL A   1      36.693  30.274  29.385  1.00  0.00     0.049 H 
BRANCH  97 100
ATOM    100  N   UNL A   1      35.294  31.599  30.089  1.00  0.00    -0.352 N 
ATOM    101  C   UNL A   1      34.470  32.118  29.125  1.00  0.00     0.251 C 
ATOM    102  H   UNL A   1      35.477  32.192  30.854  1.00  0.00     0.163 HD
ATOM    103  O   UNL A   1      34.115  33.298  29.171  1.00  0.00    -0.269 OA
BRANCH 101 104
ATOM    104  C   UNL A   1      34.032  31.266  28.005  1.00  0.00     0.039 A 
ATOM    105  C   UNL A   1      32.787  31.515  27.416  1.00  0.00    -0.047 A 
ATOM    106  C   UNL A   1      34.853  30.234  27.535  1.00  0.00    -0.047 A 
ATOM    107  C   UNL A   1      32.396  30.802  26.283  1.00  0.00    -0.036 A 
ATOM    108  H   UNL A   1      32.158  32.226  27.821  1.00  0.00     0.063 H 
ATOM    109  C   UNL A   1      34.448  29.491  26.429  1.00  0.00    -0.036 A 
ATOM    110  H   UNL A   1      35.749  30.027  28.002  1.00  0.00     0.063 H 
ATOM    111  C   UNL A   1      33.231  29.797  25.795  1.00  0.00     0.066 A 
ATOM    112  H   UNL A   1      31.502  31.015  25.812  1.00  0.00     0.065 H 
ATOM    113  H   UNL A   1      35.039  28.721  26.077  1.00  0.00     0.065 H 
BRANCH 111 114
ATOM    114  N   UNL A   1      32.785  28.985  24.739  1.00  0.00    -0.220 N 
ATOM    115  C   UNL A   1      33.581  28.155  24.007  1.00  0.00     0.055 A 
ATOM    116  N   UNL A   1      31.522  28.930  24.276  1.00  0.00    -0.062 NA
ATOM    117  C   UNL A   1      32.778  27.593  23.051  1.00  0.00     0.093 A 
ATOM    118  H   UNL A   1      34.588  27.984  24.147  1.00  0.00     0.086 H 
ATOM    119  N   UNL A   1      31.521  28.136  23.202  1.00  0.00    -0.134 NA
BRANCH 117 120
ATOM    120  C   UNL A   1      33.155  26.800  21.855  1.00  0.00     0.047 C 
ATOM    121  H   UNL A   1      34.209  26.940  21.738  1.00  0.00     0.045 H 
ATOM    122  H   UNL A   1      32.459  27.181  21.138  1.00  0.00     0.045 H 
BRANCH 120 123
ATOM    123  S   UNL A   1      32.882  25.036  21.676  1.00  0.00    -0.081 SA
BRANCH 123 124
ATOM    124  C   UNL A   1      33.577  24.059  22.941  1.00  0.00     0.176 A 
ATOM    125  N   UNL A   1      34.792  23.677  22.661  1.00  0.00    -0.223 NA
ATOM    126  N   UNL A   1      32.970  23.691  24.128  1.00  0.00    -0.255 N 
ATOM    127  C   UNL A   1      35.420  22.771  23.527  1.00  0.00     0.079 A 
ATOM    128  C   UNL A   1      33.250  22.373  24.509  1.00  0.00     0.266 A 
ATOM    129  C   UNL A   1      36.801  22.583  23.519  1.00  0.00    -0.035 A 
ATOM    130  C   UNL A   1      34.647  21.957  24.344  1.00  0.00     0.066 A 
ATOM    131  O   UNL A   1      32.441  21.560  24.948  1.00  0.00    -0.268 OA
ATOM    132  C   UNL A   1      37.375  21.548  24.270  1.00  0.00    -0.060 A 
ATOM    133  H   UNL A   1      37.402  23.208  22.959  1.00  0.00     0.065 H 
ATOM    134  C   UNL A   1      35.192  20.880  25.047  1.00  0.00    -0.047 A 
ATOM    135  C   UNL A   1      36.567  20.672  25.000  1.00  0.00    -0.061 A 
ATOM    136  H   UNL A   1      38.401  21.431  24.283  1.00  0.00     0.062 H 
ATOM    137  H   UNL A   1      34.584  20.248  25.592  1.00  0.00     0.063 H 
ATOM    138  H   UNL A   1      36.989  19.875  25.502  1.00  0.00     0.062 H 
BRANCH 126 139
ATOM    139  C   UNL A   1      32.071  24.466  24.956  1.00  0.00     0.051 A 
ATOM    140  C   UNL A   1      30.718  24.600  24.576  1.00  0.00    -0.038 A 
ATOM    141  C   UNL A   1      32.452  25.158  26.110  1.00  0.00    -0.038 A 
ATOM    142  C   UNL A   1      29.879  25.561  25.143  1.00  0.00    -0.060 A 
ATOM    143  H   UNL A   1      30.337  23.967  23.855  1.00  0.00     0.064 H 
ATOM    144  C   UNL A   1      31.642  26.174  26.640  1.00  0.00    -0.060 A 
ATOM    145  H   UNL A   1      33.341  24.920  26.577  1.00  0.00     0.064 H 
ATOM    146  C   UNL A   1      30.368  26.400  26.130  1.00  0.00    -0.062 A 
ATOM    147  H   UNL A   1      28.899  25.646  24.828  1.00  0.00     0.062 H 
ATOM    148  H   UNL A   1      31.993  26.757  27.415  1.00  0.00     0.062 H 
ATOM    149  H   UNL A   1      29.795  27.183  26.481  1.00  0.00     0.062 H 
ENDBRANCH 126 139
ENDBRANCH 123 124
ENDBRANCH 120 123
ENDBRANCH 117 120
ENDBRANCH 111 114
ENDBRANCH 101 104
ENDBRANCH  97 100
ENDBRANCH   1  97
TORSDOF 18
ENDMDL
MODEL 9
REMARK VINA RESULT:     -12.1      5.434     12.357
REMARK SMILES O=C(NCCCCCCNC(=O)c1ccc(-n2cc(CSc3nc4ccccc4c(=O)n3-c3ccccc3)nn2)cc1)c1ccc(-c2c3nc(c(-c4c(F)c(F)c(F)c(F)c4F)c4ccc([nH]4)c(-c4c(F)c(F)c(F)c(F)c4F)c4nc(c(-c5c(F)c(F)c(F)c(F)c5F)c5ccc2[nH]5)C=C4)C=C3)cc1
REMARK SMILES IDX 8 1 7 4 6 7 5 10 4 13 3 16 1 17 2 18 43 20 44 21 105 22
REMARK SMILES IDX 45 23 104 25 46 27 47 30 48 31 98 32 49 33 103 34 97 35
REMARK SMILES IDX 99 36 50 37 102 38 96 40 95 42 51 44 83 47 63 48 82 49 64 50
REMARK SMILES IDX 67 51 81 52 100 53 65 54 66 56 80 58 101 59 68 62 52 64
REMARK SMILES IDX 53 65 61 66 54 67 55 68 59 69 62 70 56 71 57 72 60 73 58 74
REMARK SMILES IDX 84 75 85 76 93 77 86 78 87 79 91 80 94 81 88 82 89 83 92 84
REMARK SMILES IDX 90 85 69 86 70 87 78 88 71 89 72 90 76 91 79 92 73 93 74 94
REMARK SMILES IDX 77 95 75 96 9 97 10 100 11 101 12 103 13 104 14 105 42 106
REMARK SMILES IDX 15 107 41 109 16 111 17 114 18 115 40 116 19 117 39 119
REMARK SMILES IDX 20 120 21 123 22 124 23 125 32 126 24 127 30 128 25 129
REMARK SMILES IDX 29 130 31 131 26 132 28 134 27 135 33 139 34 140 38 141
REMARK SMILES IDX 35 142 37 144 36 146
REMARK H PARENT 8 2 8 3 7 5 7 6 6 8 6 9 5 11 5 12 4 14 4 15 3 19 44 24 105 26
REMARK H PARENT 45 28 104 29 103 39 97 41 99 43 102 45 96 46 64 55 67 57
REMARK H PARENT 100 60 65 61 101 63 9 98 9 99 10 102 14 108 42 110 15 112
REMARK H PARENT 41 113 18 118 20 121 20 122 25 133 26 136 28 137 27 138 34 143
REMARK H PARENT 38 145 35 147 37 148 36 149
REMARK Flexibility Score: inf
ROOT
ATOM      1  C   UNL A   1      36.955  33.799  34.640  1.00  0.00    -0.036 C 
ATOM      2  H   UNL A   1      36.561  33.790  35.635  1.00  0.00     0.028 H 
ATOM      3  H   UNL A   1      36.502  34.540  34.014  1.00  0.00     0.028 H 
ENDROOT
BRANCH   1   4
ATOM      4  C   UNL A   1      36.650  32.446  33.994  1.00  0.00    -0.052 C 
ATOM      5  H   UNL A   1      37.270  31.710  34.462  1.00  0.00     0.027 H 
ATOM      6  H   UNL A   1      35.603  32.281  34.136  1.00  0.00     0.027 H 
BRANCH   4   7
ATOM      7  C   UNL A   1      36.886  32.369  32.483  1.00  0.00    -0.052 C 
ATOM      8  H   UNL A   1      37.910  32.620  32.297  1.00  0.00     0.027 H 
ATOM      9  H   UNL A   1      36.623  31.372  32.198  1.00  0.00     0.027 H 
BRANCH   7  10
ATOM     10  C   UNL A   1      36.014  33.291  31.622  1.00  0.00    -0.036 C 
ATOM     11  H   UNL A   1      35.826  34.185  32.180  1.00  0.00     0.028 H 
ATOM     12  H   UNL A   1      36.561  33.462  30.719  1.00  0.00     0.028 H 
BRANCH  10  13
ATOM     13  C   UNL A   1      34.667  32.702  31.203  1.00  0.00     0.018 C 
ATOM     14  H   UNL A   1      34.613  31.696  31.565  1.00  0.00     0.049 H 
ATOM     15  H   UNL A   1      33.910  33.333  31.621  1.00  0.00     0.049 H 
BRANCH  13  16
ATOM     16  N   UNL A   1      34.451  32.682  29.773  1.00  0.00    -0.352 N 
ATOM     17  O   UNL A   1      34.396  32.107  27.644  1.00  0.00    -0.269 OA
ATOM     18  C   UNL A   1      34.962  31.963  28.732  1.00  0.00     0.251 C 
ATOM     19  H   UNL A   1      33.779  33.342  29.484  1.00  0.00     0.163 HD
BRANCH  18  20
ATOM     20  C   UNL A   1      36.174  31.103  28.793  1.00  0.00     0.039 A 
ATOM     21  C   UNL A   1      36.192  29.710  28.877  1.00  0.00    -0.049 A 
ATOM     22  C   UNL A   1      37.400  31.794  28.842  1.00  0.00    -0.049 A 
ATOM     23  C   UNL A   1      37.385  29.035  29.119  1.00  0.00    -0.053 A 
ATOM     24  H   UNL A   1      35.316  29.177  28.758  1.00  0.00     0.063 H 
ATOM     25  C   UNL A   1      38.595  31.128  29.075  1.00  0.00    -0.053 A 
ATOM     26  H   UNL A   1      37.410  32.817  28.703  1.00  0.00     0.063 H 
ATOM     27  C   UNL A   1      38.576  29.752  29.263  1.00  0.00    -0.014 A 
ATOM     28  H   UNL A   1      37.390  28.006  29.194  1.00  0.00     0.063 H 
ATOM     29  H   UNL A   1      39.486  31.648  29.106  1.00  0.00     0.063 H 
BRANCH  27  30
ATOM     30  C   UNL A   1      39.814  29.010  29.473  1.00  0.00     0.031 A 
ATOM     31  C   UNL A   1      40.204  28.864  30.904  1.00  0.00     0.074 A 
ATOM     32  C   UNL A   1      40.471  28.382  28.475  1.00  0.00     0.049 A 
ATOM     33  N   UNL A   1      41.289  29.263  31.485  1.00  0.00    -0.248 NA
ATOM     34  C   UNL A   1      39.205  28.304  31.831  1.00  0.00    -0.034 C 
ATOM     35  C   UNL A   1      40.044  28.206  27.085  1.00  0.00    -0.036 A 
ATOM     36  N   UNL A   1      41.635  27.673  28.524  1.00  0.00    -0.354 N 
ATOM     37  C   UNL A   1      41.189  28.852  32.814  1.00  0.00     0.074 A 
ATOM     38  C   UNL A   1      39.835  28.406  33.001  1.00  0.00    -0.034 C 
ATOM     39  H   UNL A   1      38.265  27.929  31.627  1.00  0.00     0.065 H 
ATOM     40  C   UNL A   1      40.810  27.259  26.496  1.00  0.00    -0.036 A 
ATOM     41  H   UNL A   1      39.278  28.725  26.626  1.00  0.00     0.065 H 
ATOM     42  C   UNL A   1      41.857  26.858  27.419  1.00  0.00     0.049 A 
ATOM     43  H   UNL A   1      42.264  27.733  29.278  1.00  0.00     0.167 HD
ATOM     44  C   UNL A   1      42.299  28.695  33.589  1.00  0.00     0.037 A 
ATOM     45  H   UNL A   1      39.409  28.195  33.917  1.00  0.00     0.065 H 
ATOM     46  H   UNL A   1      40.673  26.883  25.545  1.00  0.00     0.065 H 
ATOM     47  C   UNL A   1      42.794  25.881  27.307  1.00  0.00     0.037 A 
ATOM     48  C   UNL A   1      43.410  29.440  33.054  1.00  0.00     0.049 A 
ATOM     49  C   UNL A   1      43.825  26.126  28.346  1.00  0.00     0.074 A 
ATOM     50  C   UNL A   1      43.665  30.774  32.808  1.00  0.00    -0.036 A 
ATOM     51  N   UNL A   1      44.374  28.751  32.360  1.00  0.00    -0.354 N 
ATOM     52  N   UNL A   1      44.645  27.138  28.329  1.00  0.00    -0.248 NA
ATOM     53  C   UNL A   1      43.631  25.496  29.643  1.00  0.00    -0.034 C 
ATOM     54  C   UNL A   1      44.431  30.789  31.604  1.00  0.00    -0.036 A 
ATOM     55  H   UNL A   1      43.367  31.585  33.373  1.00  0.00     0.065 H 
ATOM     56  C   UNL A   1      44.646  29.465  31.224  1.00  0.00     0.049 A 
ATOM     57  H   UNL A   1      44.792  27.901  32.629  1.00  0.00     0.167 HD
ATOM     58  C   UNL A   1      44.723  27.545  29.651  1.00  0.00     0.074 A 
ATOM     59  C   UNL A   1      44.140  26.451  30.425  1.00  0.00    -0.034 C 
ATOM     60  H   UNL A   1      43.221  24.581  29.888  1.00  0.00     0.065 H 
ATOM     61  H   UNL A   1      44.765  31.628  31.106  1.00  0.00     0.065 H 
ATOM     62  C   UNL A   1      44.984  28.847  29.968  1.00  0.00     0.037 A 
ATOM     63  H   UNL A   1      44.124  26.420  31.456  1.00  0.00     0.065 H 
BRANCH  44  64
ATOM     64  C   UNL A   1      42.501  27.552  34.566  1.00  0.00     0.064 A 
ATOM     65  C   UNL A   1      42.972  26.317  34.070  1.00  0.00     0.173 A 
ATOM     66  C   UNL A   1      41.937  27.505  35.860  1.00  0.00     0.173 A 
ATOM     67  F   UNL A   1      43.545  26.238  32.859  1.00  0.00    -0.203 F 
ATOM     68  C   UNL A   1      42.761  25.116  34.754  1.00  0.00     0.198 A 
ATOM     69  C   UNL A   1      41.773  26.310  36.559  1.00  0.00     0.198 A 
ATOM     70  F   UNL A   1      41.421  28.582  36.461  1.00  0.00    -0.203 F 
ATOM     71  F   UNL A   1      43.084  23.954  34.169  1.00  0.00    -0.200 F 
ATOM     72  C   UNL A   1      42.145  25.112  35.989  1.00  0.00     0.200 A 
ATOM     73  F   UNL A   1      41.168  26.327  37.755  1.00  0.00    -0.200 F 
ATOM     74  F   UNL A   1      41.865  23.959  36.608  1.00  0.00    -0.200 F 
ENDBRANCH  44  64
BRANCH  47  75
ATOM     75  C   UNL A   1      42.684  24.575  26.608  1.00  0.00     0.064 A 
ATOM     76  C   UNL A   1      43.498  24.265  25.506  1.00  0.00     0.173 A 
ATOM     77  C   UNL A   1      41.982  23.500  27.186  1.00  0.00     0.173 A 
ATOM     78  F   UNL A   1      44.244  25.218  24.928  1.00  0.00    -0.203 F 
ATOM     79  C   UNL A   1      43.617  22.954  25.025  1.00  0.00     0.198 A 
ATOM     80  C   UNL A   1      42.097  22.195  26.703  1.00  0.00     0.198 A 
ATOM     81  F   UNL A   1      41.248  23.675  28.294  1.00  0.00    -0.203 F 
ATOM     82  F   UNL A   1      44.452  22.686  24.010  1.00  0.00    -0.200 F 
ATOM     83  C   UNL A   1      42.924  21.919  25.631  1.00  0.00     0.200 A 
ATOM     84  F   UNL A   1      41.452  21.198  27.325  1.00  0.00    -0.200 F 
ATOM     85  F   UNL A   1      43.085  20.656  25.212  1.00  0.00    -0.200 F 
ENDBRANCH  47  75
BRANCH  62  86
ATOM     86  C   UNL A   1      45.440  29.757  28.864  1.00  0.00     0.064 A 
ATOM     87  C   UNL A   1      44.568  30.451  28.007  1.00  0.00     0.173 A 
ATOM     88  C   UNL A   1      46.807  30.046  28.768  1.00  0.00     0.173 A 
ATOM     89  F   UNL A   1      43.241  30.306  28.107  1.00  0.00    -0.203 F 
ATOM     90  C   UNL A   1      45.051  31.357  27.066  1.00  0.00     0.198 A 
ATOM     91  C   UNL A   1      47.283  30.980  27.852  1.00  0.00     0.198 A 
ATOM     92  F   UNL A   1      47.679  29.458  29.601  1.00  0.00    -0.203 F 
ATOM     93  F   UNL A   1      44.201  32.000  26.252  1.00  0.00    -0.200 F 
ATOM     94  C   UNL A   1      46.408  31.626  26.995  1.00  0.00     0.200 A 
ATOM     95  F   UNL A   1      48.590  31.277  27.825  1.00  0.00    -0.200 F 
ATOM     96  F   UNL A   1      46.870  32.532  26.122  1.00  0.00    -0.200 F 
ENDBRANCH  62  86
ENDBRANCH  27  30
ENDBRANCH  18  20
ENDBRANCH  13  16
ENDBRANCH  10  13
ENDBRANCH   7  10
ENDBRANCH   4   7
ENDBRANCH   1   4
BRANCH   1  97
ATOM     97  C   UNL A   1      38.438  34.152  34.720  1.00  0.00     0.018 C 
ATOM     98  H   UNL A   1      38.552  35.012  35.346  1.00  0.00     0.049 H 
ATOM     99  H   UNL A   1      38.781  34.343  33.725  1.00  0.00     0.049 H 
BRANCH  97 100
ATOM    100  N   UNL A   1      39.237  33.068  35.266  1.00  0.00    -0.352 N 
ATOM    101  C   UNL A   1      40.345  32.460  34.734  1.00  0.00     0.251 C 
ATOM    102  H   UNL A   1      38.942  32.721  36.139  1.00  0.00     0.163 HD
ATOM    103  O   UNL A   1      40.829  31.459  35.267  1.00  0.00    -0.269 OA
BRANCH 101 104
ATOM    104  C   UNL A   1      40.941  32.990  33.495  1.00  0.00     0.039 A 
ATOM    105  C   UNL A   1      41.946  33.960  33.593  1.00  0.00    -0.047 A 
ATOM    106  C   UNL A   1      40.517  32.521  32.246  1.00  0.00    -0.047 A 
ATOM    107  C   UNL A   1      42.609  34.395  32.445  1.00  0.00    -0.036 A 
ATOM    108  H   UNL A   1      42.195  34.354  34.513  1.00  0.00     0.063 H 
ATOM    109  C   UNL A   1      41.148  32.984  31.094  1.00  0.00    -0.036 A 
ATOM    110  H   UNL A   1      39.745  31.840  32.179  1.00  0.00     0.063 H 
ATOM    111  C   UNL A   1      42.208  33.901  31.204  1.00  0.00     0.066 A 
ATOM    112  H   UNL A   1      43.385  35.072  32.514  1.00  0.00     0.065 H 
ATOM    113  H   UNL A   1      40.839  32.654  30.166  1.00  0.00     0.065 H 
BRANCH 111 114
ATOM    114  N   UNL A   1      42.778  34.434  30.035  1.00  0.00    -0.220 N 
ATOM    115  C   UNL A   1      42.444  35.637  29.487  1.00  0.00     0.055 A 
ATOM    116  N   UNL A   1      43.708  33.829  29.274  1.00  0.00    -0.062 NA
ATOM    117  C   UNL A   1      43.180  35.755  28.338  1.00  0.00     0.093 A 
ATOM    118  H   UNL A   1      41.770  36.321  29.863  1.00  0.00     0.086 H 
ATOM    119  N   UNL A   1      43.910  34.595  28.200  1.00  0.00    -0.134 NA
BRANCH 117 120
ATOM    120  C   UNL A   1      43.053  36.743  27.239  1.00  0.00     0.047 C 
ATOM    121  H   UNL A   1      42.932  36.165  26.346  1.00  0.00     0.045 H 
ATOM    122  H   UNL A   1      43.928  37.336  27.404  1.00  0.00     0.045 H 
BRANCH 120 123
ATOM    123  S   UNL A   1      41.798  38.021  27.158  1.00  0.00    -0.081 SA
BRANCH 123 124
ATOM    124  C   UNL A   1      42.417  39.636  26.942  1.00  0.00     0.176 A 
ATOM    125  N   UNL A   1      42.176  40.104  25.750  1.00  0.00    -0.223 NA
ATOM    126  N   UNL A   1      43.096  40.392  27.881  1.00  0.00    -0.255 N 
ATOM    127  C   UNL A   1      42.740  41.338  25.394  1.00  0.00     0.079 A 
ATOM    128  C   UNL A   1      44.155  41.129  27.338  1.00  0.00     0.266 A 
ATOM    129  C   UNL A   1      42.266  42.077  24.311  1.00  0.00    -0.035 A 
ATOM    130  C   UNL A   1      43.866  41.794  26.063  1.00  0.00     0.066 A 
ATOM    131  O   UNL A   1      45.276  41.252  27.827  1.00  0.00    -0.268 OA
ATOM    132  C   UNL A   1      42.962  43.213  23.876  1.00  0.00    -0.060 A 
ATOM    133  H   UNL A   1      41.402  41.786  23.828  1.00  0.00     0.065 H 
ATOM    134  C   UNL A   1      44.611  42.885  25.606  1.00  0.00    -0.047 A 
ATOM    135  C   UNL A   1      44.155  43.593  24.498  1.00  0.00    -0.061 A 
ATOM    136  H   UNL A   1      42.591  43.774  23.092  1.00  0.00     0.062 H 
ATOM    137  H   UNL A   1      45.484  43.160  26.082  1.00  0.00     0.063 H 
ATOM    138  H   UNL A   1      44.695  44.394  24.136  1.00  0.00     0.062 H 
BRANCH 126 139
ATOM    139  C   UNL A   1      42.878  40.460  29.310  1.00  0.00     0.051 A 
ATOM    140  C   UNL A   1      41.942  41.382  29.827  1.00  0.00    -0.038 A 
ATOM    141  C   UNL A   1      43.573  39.702  30.257  1.00  0.00    -0.038 A 
ATOM    142  C   UNL A   1      41.898  41.716  31.181  1.00  0.00    -0.060 A 
ATOM    143  H   UNL A   1      41.269  41.826  29.181  1.00  0.00     0.064 H 
ATOM    144  C   UNL A   1      43.588  40.077  31.609  1.00  0.00    -0.060 A 
ATOM    145  H   UNL A   1      44.083  38.856  29.958  1.00  0.00     0.064 H 
ATOM    146  C   UNL A   1      42.777  41.110  32.064  1.00  0.00    -0.062 A 
ATOM    147  H   UNL A   1      41.215  42.410  31.524  1.00  0.00     0.062 H 
ATOM    148  H   UNL A   1      44.204  39.581  32.271  1.00  0.00     0.062 H 
ATOM    149  H   UNL A   1      42.829  41.423  33.046  1.00  0.00     0.062 H 
ENDBRANCH 126 139
ENDBRANCH 123 124
ENDBRANCH 120 123
ENDBRANCH 117 120
ENDBRANCH 111 114
ENDBRANCH 101 104
ENDBRANCH  97 100
ENDBRANCH   1  97
TORSDOF 18
ENDMDL
MODEL 10
REMARK VINA RESULT:     -12.1      3.651      9.648
REMARK SMILES O=C(NCCCCCCNC(=O)c1ccc(-n2cc(CSc3nc4ccccc4c(=O)n3-c3ccccc3)nn2)cc1)c1ccc(-c2c3nc(c(-c4c(F)c(F)c(F)c(F)c4F)c4ccc([nH]4)c(-c4c(F)c(F)c(F)c(F)c4F)c4nc(c(-c5c(F)c(F)c(F)c(F)c5F)c5ccc2[nH]5)C=C4)C=C3)cc1
REMARK SMILES IDX 8 1 7 4 6 7 5 10 4 13 3 16 1 17 2 18 43 20 44 21 105 22
REMARK SMILES IDX 45 23 104 25 46 27 47 30 48 31 98 32 49 33 103 34 97 35
REMARK SMILES IDX 99 36 50 37 102 38 96 40 95 42 51 44 83 47 63 48 82 49 64 50
REMARK SMILES IDX 67 51 81 52 100 53 65 54 66 56 80 58 101 59 68 62 52 64
REMARK SMILES IDX 53 65 61 66 54 67 55 68 59 69 62 70 56 71 57 72 60 73 58 74
REMARK SMILES IDX 84 75 85 76 93 77 86 78 87 79 91 80 94 81 88 82 89 83 92 84
REMARK SMILES IDX 90 85 69 86 70 87 78 88 71 89 72 90 76 91 79 92 73 93 74 94
REMARK SMILES IDX 77 95 75 96 9 97 10 100 11 101 12 103 13 104 14 105 42 106
REMARK SMILES IDX 15 107 41 109 16 111 17 114 18 115 40 116 19 117 39 119
REMARK SMILES IDX 20 120 21 123 22 124 23 125 32 126 24 127 30 128 25 129
REMARK SMILES IDX 29 130 31 131 26 132 28 134 27 135 33 139 34 140 38 141
REMARK SMILES IDX 35 142 37 144 36 146
REMARK H PARENT 8 2 8 3 7 5 7 6 6 8 6 9 5 11 5 12 4 14 4 15 3 19 44 24 105 26
REMARK H PARENT 45 28 104 29 103 39 97 41 99 43 102 45 96 46 64 55 67 57
REMARK H PARENT 100 60 65 61 101 63 9 98 9 99 10 102 14 108 42 110 15 112
REMARK H PARENT 41 113 18 118 20 121 20 122 25 133 26 136 28 137 27 138 34 143
REMARK H PARENT 38 145 35 147 37 148 36 149
REMARK Flexibility Score: inf
ROOT
ATOM      1  C   UNL A   1      33.197  27.175  23.316  1.00  0.00    -0.036 C 
ATOM      2  H   UNL A   1      34.108  27.367  22.789  1.00  0.00     0.028 H 
ATOM      3  H   UNL A   1      32.386  26.903  22.672  1.00  0.00     0.028 H 
ENDROOT
BRANCH   1   4
ATOM      4  C   UNL A   1      32.773  28.467  24.019  1.00  0.00    -0.052 C 
ATOM      5  H   UNL A   1      33.360  29.267  23.620  1.00  0.00     0.027 H 
ATOM      6  H   UNL A   1      31.724  28.570  23.838  1.00  0.00     0.027 H 
BRANCH   4   7
ATOM      7  C   UNL A   1      32.940  28.474  25.541  1.00  0.00    -0.052 C 
ATOM      8  H   UNL A   1      32.035  28.854  25.969  1.00  0.00     0.027 H 
ATOM      9  H   UNL A   1      33.160  27.464  25.814  1.00  0.00     0.027 H 
BRANCH   7  10
ATOM     10  C   UNL A   1      34.104  29.314  26.082  1.00  0.00    -0.036 C 
ATOM     11  H   UNL A   1      35.018  28.841  25.789  1.00  0.00     0.028 H 
ATOM     12  H   UNL A   1      33.981  30.294  25.671  1.00  0.00     0.028 H 
BRANCH  10  13
ATOM     13  C   UNL A   1      34.125  29.487  27.601  1.00  0.00     0.018 C 
ATOM     14  H   UNL A   1      33.374  28.853  28.023  1.00  0.00     0.049 H 
ATOM     15  H   UNL A   1      35.112  29.231  27.927  1.00  0.00     0.049 H 
BRANCH  13  16
ATOM     16  N   UNL A   1      33.878  30.842  28.044  1.00  0.00    -0.352 N 
ATOM     17  O   UNL A   1      34.114  32.923  28.735  1.00  0.00    -0.269 OA
ATOM     18  C   UNL A   1      34.619  31.798  28.676  1.00  0.00     0.251 C 
ATOM     19  H   UNL A   1      32.962  31.143  27.844  1.00  0.00     0.163 HD
BRANCH  18  20
ATOM     20  C   UNL A   1      35.922  31.568  29.354  1.00  0.00     0.039 A 
ATOM     21  C   UNL A   1      36.130  30.801  30.502  1.00  0.00    -0.049 A 
ATOM     22  C   UNL A   1      37.018  32.262  28.804  1.00  0.00    -0.049 A 
ATOM     23  C   UNL A   1      37.363  30.819  31.147  1.00  0.00    -0.053 A 
ATOM     24  H   UNL A   1      35.365  30.217  30.874  1.00  0.00     0.063 H 
ATOM     25  C   UNL A   1      38.253  32.278  29.435  1.00  0.00    -0.053 A 
ATOM     26  H   UNL A   1      36.899  32.769  27.913  1.00  0.00     0.063 H 
ATOM     27  C   UNL A   1      38.407  31.595  30.636  1.00  0.00    -0.014 A 
ATOM     28  H   UNL A   1      37.508  30.260  32.002  1.00  0.00     0.063 H 
ATOM     29  H   UNL A   1      39.047  32.789  29.019  1.00  0.00     0.063 H 
BRANCH  27  30
ATOM     30  C   UNL A   1      39.699  31.556  31.311  1.00  0.00     0.031 A 
ATOM     31  C   UNL A   1      40.035  32.801  32.059  1.00  0.00     0.074 A 
ATOM     32  C   UNL A   1      40.458  30.442  31.381  1.00  0.00     0.049 A 
ATOM     33  N   UNL A   1      41.049  33.587  31.895  1.00  0.00    -0.248 NA
ATOM     34  C   UNL A   1      39.052  33.296  33.039  1.00  0.00    -0.034 C 
ATOM     35  C   UNL A   1      40.114  29.088  30.940  1.00  0.00    -0.036 A 
ATOM     36  N   UNL A   1      41.680  30.268  31.960  1.00  0.00    -0.354 N 
ATOM     37  C   UNL A   1      40.927  34.582  32.865  1.00  0.00     0.074 A 
ATOM     38  C   UNL A   1      39.614  34.438  33.433  1.00  0.00    -0.034 C 
ATOM     39  H   UNL A   1      38.161  32.869  33.341  1.00  0.00     0.065 H 
ATOM     40  C   UNL A   1      40.993  28.206  31.471  1.00  0.00    -0.036 A 
ATOM     41  H   UNL A   1      39.325  28.845  30.321  1.00  0.00     0.065 H 
ATOM     42  C   UNL A   1      42.030  28.940  32.176  1.00  0.00     0.049 A 
ATOM     43  H   UNL A   1      42.266  31.020  32.205  1.00  0.00     0.167 HD
ATOM     44  C   UNL A   1      42.011  35.297  33.281  1.00  0.00     0.037 A 
ATOM     45  H   UNL A   1      39.168  35.126  34.059  1.00  0.00     0.065 H 
ATOM     46  H   UNL A   1      40.936  27.180  31.388  1.00  0.00     0.065 H 
ATOM     47  C   UNL A   1      43.059  28.485  32.936  1.00  0.00     0.037 A 
ATOM     48  C   UNL A   1      43.070  35.243  32.306  1.00  0.00     0.049 A 
ATOM     49  C   UNL A   1      44.013  29.607  33.119  1.00  0.00     0.074 A 
ATOM     50  C   UNL A   1      43.208  35.637  30.990  1.00  0.00    -0.036 A 
ATOM     51  N   UNL A   1      44.125  34.399  32.546  1.00  0.00    -0.354 N 
ATOM     52  N   UNL A   1      44.734  30.109  32.157  1.00  0.00    -0.248 NA
ATOM     53  C   UNL A   1      43.820  30.469  34.275  1.00  0.00    -0.034 C 
ATOM     54  C   UNL A   1      44.024  34.633  30.387  1.00  0.00    -0.036 A 
ATOM     55  H   UNL A   1      42.809  36.476  30.540  1.00  0.00     0.065 H 
ATOM     56  C   UNL A   1      44.380  33.725  31.383  1.00  0.00     0.049 A 
ATOM     57  H   UNL A   1      44.609  34.297  33.398  1.00  0.00     0.167 HD
ATOM     58  C   UNL A   1      44.711  31.476  32.382  1.00  0.00     0.074 A 
ATOM     59  C   UNL A   1      44.200  31.632  33.742  1.00  0.00    -0.034 C 
ATOM     60  H   UNL A   1      43.488  30.246  35.227  1.00  0.00     0.065 H 
ATOM     61  H   UNL A   1      44.299  34.589  29.394  1.00  0.00     0.065 H 
ATOM     62  C   UNL A   1      44.833  32.358  31.348  1.00  0.00     0.037 A 
ATOM     63  H   UNL A   1      44.139  32.538  34.234  1.00  0.00     0.065 H 
BRANCH  44  64
ATOM     64  C   UNL A   1      42.274  35.679  34.726  1.00  0.00     0.064 A 
ATOM     65  C   UNL A   1      42.722  36.989  35.004  1.00  0.00     0.173 A 
ATOM     66  C   UNL A   1      42.444  34.751  35.775  1.00  0.00     0.173 A 
ATOM     67  F   UNL A   1      42.598  37.965  34.091  1.00  0.00    -0.203 F 
ATOM     68  C   UNL A   1      43.412  37.301  36.178  1.00  0.00     0.198 A 
ATOM     69  C   UNL A   1      43.090  35.079  36.966  1.00  0.00     0.198 A 
ATOM     70  F   UNL A   1      42.098  33.464  35.661  1.00  0.00    -0.203 F 
ATOM     71  F   UNL A   1      43.956  38.517  36.326  1.00  0.00    -0.200 F 
ATOM     72  C   UNL A   1      43.613  36.341  37.150  1.00  0.00     0.200 A 
ATOM     73  F   UNL A   1      43.279  34.131  37.894  1.00  0.00    -0.200 F 
ATOM     74  F   UNL A   1      44.346  36.612  38.237  1.00  0.00    -0.200 F 
ENDBRANCH  44  64
BRANCH  47  75
ATOM     75  C   UNL A   1      43.105  27.273  33.794  1.00  0.00     0.064 A 
ATOM     76  C   UNL A   1      42.120  27.027  34.766  1.00  0.00     0.173 A 
ATOM     77  C   UNL A   1      43.952  26.193  33.479  1.00  0.00     0.173 A 
ATOM     78  F   UNL A   1      41.235  27.983  35.087  1.00  0.00    -0.203 F 
ATOM     79  C   UNL A   1      41.980  25.771  35.371  1.00  0.00     0.198 A 
ATOM     80  C   UNL A   1      43.816  24.944  34.086  1.00  0.00     0.198 A 
ATOM     81  F   UNL A   1      44.866  26.298  32.504  1.00  0.00    -0.203 F 
ATOM     82  F   UNL A   1      40.989  25.556  36.248  1.00  0.00    -0.200 F 
ATOM     83  C   UNL A   1      42.822  24.728  35.022  1.00  0.00     0.200 A 
ATOM     84  F   UNL A   1      44.611  23.932  33.710  1.00  0.00    -0.200 F 
ATOM     85  F   UNL A   1      42.650  23.509  35.553  1.00  0.00    -0.200 F 
ENDBRANCH  47  75
BRANCH  62  86
ATOM     86  C   UNL A   1      45.251  31.815  30.012  1.00  0.00     0.064 A 
ATOM     87  C   UNL A   1      44.353  31.338  29.041  1.00  0.00     0.173 A 
ATOM     88  C   UNL A   1      46.600  31.917  29.650  1.00  0.00     0.173 A 
ATOM     89  F   UNL A   1      43.035  31.308  29.275  1.00  0.00    -0.203 F 
ATOM     90  C   UNL A   1      44.796  30.939  27.782  1.00  0.00     0.198 A 
ATOM     91  C   UNL A   1      47.035  31.553  28.378  1.00  0.00     0.198 A 
ATOM     92  F   UNL A   1      47.493  32.420  30.516  1.00  0.00    -0.203 F 
ATOM     93  F   UNL A   1      43.921  30.478  26.875  1.00  0.00    -0.200 F 
ATOM     94  C   UNL A   1      46.135  31.054  27.450  1.00  0.00     0.200 A 
ATOM     95  F   UNL A   1      48.321  31.717  28.044  1.00  0.00    -0.200 F 
ATOM     96  F   UNL A   1      46.556  30.713  26.223  1.00  0.00    -0.200 F 
ENDBRANCH  62  86
ENDBRANCH  27  30
ENDBRANCH  18  20
ENDBRANCH  13  16
ENDBRANCH  10  13
ENDBRANCH   7  10
ENDBRANCH   4   7
ENDBRANCH   1   4
BRANCH   1  97
ATOM     97  C   UNL A   1      33.427  25.986  24.244  1.00  0.00     0.018 C 
ATOM     98  H   UNL A   1      33.139  26.264  25.236  1.00  0.00     0.049 H 
ATOM     99  H   UNL A   1      34.465  25.729  24.193  1.00  0.00     0.049 H 
BRANCH  97 100
ATOM    100  N   UNL A   1      32.661  24.816  23.846  1.00  0.00    -0.352 N 
ATOM    101  C   UNL A   1      33.051  23.503  23.803  1.00  0.00     0.251 C 
ATOM    102  H   UNL A   1      31.732  24.992  23.570  1.00  0.00     0.163 HD
ATOM    103  O   UNL A   1      32.314  22.645  23.312  1.00  0.00    -0.269 OA
BRANCH 101 104
ATOM    104  C   UNL A   1      34.378  23.120  24.317  1.00  0.00     0.039 A 
ATOM    105  C   UNL A   1      35.457  23.075  23.427  1.00  0.00    -0.047 A 
ATOM    106  C   UNL A   1      34.554  22.819  25.673  1.00  0.00    -0.047 A 
ATOM    107  C   UNL A   1      36.745  22.829  23.904  1.00  0.00    -0.036 A 
ATOM    108  H   UNL A   1      35.301  23.222  22.418  1.00  0.00     0.063 H 
ATOM    109  C   UNL A   1      35.831  22.532  26.146  1.00  0.00    -0.036 A 
ATOM    110  H   UNL A   1      33.746  22.810  26.314  1.00  0.00     0.063 H 
ATOM    111  C   UNL A   1      36.924  22.563  25.262  1.00  0.00     0.066 A 
ATOM    112  H   UNL A   1      37.553  22.845  23.262  1.00  0.00     0.065 H 
ATOM    113  H   UNL A   1      35.975  22.299  27.142  1.00  0.00     0.065 H 
BRANCH 111 114
ATOM    114  N   UNL A   1      38.194  22.183  25.726  1.00  0.00    -0.220 N 
ATOM    115  C   UNL A   1      39.114  23.036  26.260  1.00  0.00     0.055 A 
ATOM    116  N   UNL A   1      38.699  20.936  25.686  1.00  0.00    -0.062 NA
ATOM    117  C   UNL A   1      40.226  22.284  26.531  1.00  0.00     0.093 A 
ATOM    118  H   UNL A   1      38.995  24.047  26.426  1.00  0.00     0.086 H 
ATOM    119  N   UNL A   1      39.963  20.999  26.111  1.00  0.00    -0.134 NA
BRANCH 117 120
ATOM    120  C   UNL A   1      41.592  22.728  26.903  1.00  0.00     0.047 C 
ATOM    121  H   UNL A   1      41.954  23.281  26.061  1.00  0.00     0.045 H 
ATOM    122  H   UNL A   1      42.031  21.796  27.187  1.00  0.00     0.045 H 
BRANCH 120 123
ATOM    123  S   UNL A   1      41.981  23.729  28.339  1.00  0.00    -0.081 SA
BRANCH 123 124
ATOM    124  C   UNL A   1      41.607  25.423  28.169  1.00  0.00     0.176 A 
ATOM    125  N   UNL A   1      40.340  25.671  28.348  1.00  0.00    -0.223 NA
ATOM    126  N   UNL A   1      42.498  26.440  27.875  1.00  0.00    -0.255 N 
ATOM    127  C   UNL A   1      39.876  26.972  28.103  1.00  0.00     0.079 A 
ATOM    128  C   UNL A   1      41.978  27.396  26.994  1.00  0.00     0.266 A 
ATOM    129  C   UNL A   1      38.652  27.420  28.596  1.00  0.00    -0.035 A 
ATOM    130  C   UNL A   1      40.596  27.808  27.262  1.00  0.00     0.066 A 
ATOM    131  O   UNL A   1      42.569  27.895  26.039  1.00  0.00    -0.268 OA
ATOM    132  C   UNL A   1      38.140  28.659  28.186  1.00  0.00    -0.060 A 
ATOM    133  H   UNL A   1      38.121  26.838  29.262  1.00  0.00     0.065 H 
ATOM    134  C   UNL A   1      40.074  29.015  26.790  1.00  0.00    -0.047 A 
ATOM    135  C   UNL A   1      38.831  29.437  27.253  1.00  0.00    -0.061 A 
ATOM    136  H   UNL A   1      37.246  28.999  28.576  1.00  0.00     0.062 H 
ATOM    137  H   UNL A   1      40.602  29.585  26.110  1.00  0.00     0.063 H 
ATOM    138  H   UNL A   1      38.421  30.319  26.910  1.00  0.00     0.062 H 
BRANCH 126 139
ATOM    139  C   UNL A   1      43.869  26.590  28.317  1.00  0.00     0.051 A 
ATOM    140  C   UNL A   1      44.161  27.459  29.391  1.00  0.00    -0.038 A 
ATOM    141  C   UNL A   1      44.969  25.968  27.718  1.00  0.00    -0.038 A 
ATOM    142  C   UNL A   1      45.462  27.883  29.669  1.00  0.00    -0.060 A 
ATOM    143  H   UNL A   1      43.388  27.792  29.989  1.00  0.00     0.064 H 
ATOM    144  C   UNL A   1      46.271  26.439  27.942  1.00  0.00    -0.060 A 
ATOM    145  H   UNL A   1      44.820  25.153  27.102  1.00  0.00     0.064 H 
ATOM    146  C   UNL A   1      46.513  27.425  28.892  1.00  0.00    -0.062 A 
ATOM    147  H   UNL A   1      45.640  28.535  30.450  1.00  0.00     0.062 H 
ATOM    148  H   UNL A   1      47.057  26.050  27.398  1.00  0.00     0.062 H 
ATOM    149  H   UNL A   1      47.462  27.811  29.016  1.00  0.00     0.062 H 
ENDBRANCH 126 139
ENDBRANCH 123 124
ENDBRANCH 120 123
ENDBRANCH 117 120
ENDBRANCH 111 114
ENDBRANCH 101 104
ENDBRANCH  97 100
ENDBRANCH   1  97
TORSDOF 18
ENDMDL
