MODEL 1
REMARK VINA RESULT:     -12.2      0.000      0.000
REMARK SMILES O=C(NCCCCCCNC(=O)[C@H](CO)NC(=O)[C@H](Cc1c[nH]c2ccccc12)NC(=O)c1ccc(F)cc1)c1ccc(-c2c3nc(c(-c4c(F)c(F)c(F)c(F)c4F)c4ccc([nH]4)c(-c4c(F)c(F)c(F)c(F)c4F)c4nc(c(-c5c(F)c(F)c(F)c(F)c5F)c5ccc2[nH]5)C=C4)C=C3)cc1
REMARK SMILES IDX 7 1 6 4 5 7 4 10 3 13 1 14 2 15 40 17 41 18 102 19 42 20
REMARK SMILES IDX 101 22 43 24 44 27 45 28 95 29 46 30 100 31 94 32 96 33
REMARK SMILES IDX 47 34 99 35 93 37 92 39 48 41 80 44 60 45 79 46 61 47 64 48
REMARK SMILES IDX 78 49 97 50 62 51 63 53 77 55 98 56 65 59 49 61 50 62 58 63
REMARK SMILES IDX 51 64 52 65 56 66 59 67 53 68 54 69 57 70 55 71 81 72 82 73
REMARK SMILES IDX 90 74 83 75 84 76 88 77 91 78 85 79 86 80 89 81 87 82 66 83
REMARK SMILES IDX 67 84 75 85 68 86 69 87 73 88 76 89 70 90 71 91 74 92 72 93
REMARK SMILES IDX 8 94 9 97 10 100 11 101 12 103 13 104 16 106 17 107 18 109
REMARK SMILES IDX 19 110 30 112 31 113 32 115 33 116 34 117 39 118 35 119
REMARK SMILES IDX 38 121 36 123 37 126 20 127 21 130 22 131 29 132 23 133
REMARK SMILES IDX 24 135 28 136 25 138 27 139 26 141 14 145 15 148
REMARK H PARENT 7 2 7 3 6 5 6 6 5 8 5 9 4 11 4 12 3 16 41 21 102 23 42 25
REMARK H PARENT 101 26 100 36 94 38 96 40 99 42 93 43 61 52 64 54 97 57 62 58
REMARK H PARENT 98 60 8 95 8 96 9 98 9 99 10 102 13 105 16 108 19 111 30 114
REMARK H PARENT 34 120 39 122 35 124 38 125 20 128 20 129 22 134 23 137 28 140
REMARK H PARENT 25 142 27 143 26 144 14 146 14 147 15 149
REMARK Flexibility Score: inf
ROOT
ATOM      1  C   UNL A   1      31.697  26.362  26.498  1.00  0.00    -0.052 C 
ATOM      2  H   UNL A   1      31.924  25.633  27.247  1.00  0.00     0.027 H 
ATOM      3  H   UNL A   1      32.349  26.347  25.650  1.00  0.00     0.027 H 
ENDROOT
BRANCH   1   4
ATOM      4  C   UNL A   1      31.883  27.747  27.127  1.00  0.00    -0.052 C 
ATOM      5  H   UNL A   1      31.159  27.850  27.909  1.00  0.00     0.027 H 
ATOM      6  H   UNL A   1      32.899  27.775  27.460  1.00  0.00     0.027 H 
BRANCH   4   7
ATOM      7  C   UNL A   1      31.728  28.941  26.188  1.00  0.00    -0.036 C 
ATOM      8  H   UNL A   1      31.536  28.563  25.205  1.00  0.00     0.028 H 
ATOM      9  H   UNL A   1      30.928  29.527  26.592  1.00  0.00     0.028 H 
BRANCH   7  10
ATOM     10  C   UNL A   1      32.923  29.878  26.101  1.00  0.00     0.018 C 
ATOM     11  H   UNL A   1      33.697  29.498  26.735  1.00  0.00     0.049 H 
ATOM     12  H   UNL A   1      33.216  29.915  25.074  1.00  0.00     0.049 H 
BRANCH  10  13
ATOM     13  N   UNL A   1      32.629  31.241  26.506  1.00  0.00    -0.352 N 
ATOM     14  O   UNL A   1      32.924  33.173  27.639  1.00  0.00    -0.269 OA
ATOM     15  C   UNL A   1      33.352  32.064  27.335  1.00  0.00     0.251 C 
ATOM     16  H   UNL A   1      31.800  31.625  26.139  1.00  0.00     0.163 HD
BRANCH  15  17
ATOM     17  C   UNL A   1      34.633  31.586  27.899  1.00  0.00     0.039 A 
ATOM     18  C   UNL A   1      34.765  30.276  28.365  1.00  0.00    -0.049 A 
ATOM     19  C   UNL A   1      35.706  32.477  27.992  1.00  0.00    -0.049 A 
ATOM     20  C   UNL A   1      35.910  29.907  29.061  1.00  0.00    -0.053 A 
ATOM     21  H   UNL A   1      34.017  29.586  28.192  1.00  0.00     0.063 H 
ATOM     22  C   UNL A   1      36.889  32.076  28.615  1.00  0.00    -0.053 A 
ATOM     23  H   UNL A   1      35.622  33.429  27.601  1.00  0.00     0.063 H 
ATOM     24  C   UNL A   1      36.987  30.801  29.191  1.00  0.00    -0.014 A 
ATOM     25  H   UNL A   1      35.969  28.968  29.487  1.00  0.00     0.063 H 
ATOM     26  H   UNL A   1      37.695  32.721  28.654  1.00  0.00     0.063 H 
BRANCH  24  27
ATOM     27  C   UNL A   1      38.216  30.356  29.895  1.00  0.00     0.031 A 
ATOM     28  C   UNL A   1      38.512  30.798  31.300  1.00  0.00     0.074 A 
ATOM     29  C   UNL A   1      39.046  29.503  29.266  1.00  0.00     0.049 A 
ATOM     30  N   UNL A   1      39.519  30.469  32.072  1.00  0.00    -0.248 NA
ATOM     31  C   UNL A   1      37.564  31.735  31.922  1.00  0.00    -0.034 C 
ATOM     32  C   UNL A   1      38.864  29.013  27.898  1.00  0.00    -0.036 A 
ATOM     33  N   UNL A   1      40.186  28.874  29.697  1.00  0.00    -0.354 N 
ATOM     34  C   UNL A   1      39.335  31.168  33.257  1.00  0.00     0.074 A 
ATOM     35  C   UNL A   1      38.134  31.960  33.098  1.00  0.00    -0.034 C 
ATOM     36  H   UNL A   1      36.684  32.117  31.541  1.00  0.00     0.065 H 
ATOM     37  C   UNL A   1      39.819  28.114  27.624  1.00  0.00    -0.036 A 
ATOM     38  H   UNL A   1      38.119  29.312  27.251  1.00  0.00     0.065 H 
ATOM     39  C   UNL A   1      40.713  28.008  28.772  1.00  0.00     0.049 A 
ATOM     40  H   UNL A   1      40.587  29.029  30.582  1.00  0.00     0.167 HD
ATOM     41  C   UNL A   1      40.096  31.141  34.379  1.00  0.00     0.037 A 
ATOM     42  H   UNL A   1      37.769  32.614  33.807  1.00  0.00     0.065 H 
ATOM     43  H   UNL A   1      39.907  27.583  26.744  1.00  0.00     0.065 H 
ATOM     44  C   UNL A   1      41.799  27.215  28.837  1.00  0.00     0.037 A 
ATOM     45  C   UNL A   1      41.282  30.338  34.537  1.00  0.00     0.049 A 
ATOM     46  C   UNL A   1      42.628  27.209  30.087  1.00  0.00     0.074 A 
ATOM     47  C   UNL A   1      42.111  30.233  35.640  1.00  0.00    -0.036 A 
ATOM     48  N   UNL A   1      41.804  29.499  33.564  1.00  0.00    -0.354 N 
ATOM     49  N   UNL A   1      42.439  27.870  31.202  1.00  0.00    -0.248 NA
ATOM     50  C   UNL A   1      43.821  26.353  30.087  1.00  0.00    -0.034 C 
ATOM     51  C   UNL A   1      43.156  29.359  35.322  1.00  0.00    -0.036 A 
ATOM     52  H   UNL A   1      41.981  30.716  36.543  1.00  0.00     0.065 H 
ATOM     53  C   UNL A   1      42.954  28.884  34.037  1.00  0.00     0.049 A 
ATOM     54  H   UNL A   1      41.418  29.361  32.669  1.00  0.00     0.167 HD
ATOM     55  C   UNL A   1      43.483  27.508  32.040  1.00  0.00     0.074 A 
ATOM     56  C   UNL A   1      44.290  26.551  31.312  1.00  0.00    -0.034 C 
ATOM     57  H   UNL A   1      44.194  25.755  29.334  1.00  0.00     0.065 H 
ATOM     58  H   UNL A   1      43.944  29.111  35.941  1.00  0.00     0.065 H 
ATOM     59  C   UNL A   1      43.749  27.936  33.298  1.00  0.00     0.037 A 
ATOM     60  H   UNL A   1      45.126  26.083  31.696  1.00  0.00     0.065 H 
BRANCH  41  61
ATOM     61  C   UNL A   1      39.679  32.011  35.528  1.00  0.00     0.064 A 
ATOM     62  C   UNL A   1      38.724  31.560  36.453  1.00  0.00     0.173 A 
ATOM     63  C   UNL A   1      40.172  33.315  35.679  1.00  0.00     0.173 A 
ATOM     64  F   UNL A   1      38.214  30.323  36.349  1.00  0.00    -0.203 F 
ATOM     65  C   UNL A   1      38.275  32.384  37.481  1.00  0.00     0.198 A 
ATOM     66  C   UNL A   1      39.739  34.129  36.724  1.00  0.00     0.198 A 
ATOM     67  F   UNL A   1      41.095  33.791  34.829  1.00  0.00    -0.203 F 
ATOM     68  F   UNL A   1      37.344  31.941  38.337  1.00  0.00    -0.200 F 
ATOM     69  C   UNL A   1      38.786  33.666  37.619  1.00  0.00     0.200 A 
ATOM     70  F   UNL A   1      40.251  35.359  36.869  1.00  0.00    -0.200 F 
ATOM     71  F   UNL A   1      38.361  34.456  38.616  1.00  0.00    -0.200 F 
ENDBRANCH  41  61
BRANCH  44  72
ATOM     72  C   UNL A   1      42.133  26.352  27.677  1.00  0.00     0.064 A 
ATOM     73  C   UNL A   1      41.508  25.111  27.490  1.00  0.00     0.173 A 
ATOM     74  C   UNL A   1      43.136  26.724  26.772  1.00  0.00     0.173 A 
ATOM     75  F   UNL A   1      40.549  24.708  28.337  1.00  0.00    -0.203 F 
ATOM     76  C   UNL A   1      41.896  24.259  26.458  1.00  0.00     0.198 A 
ATOM     77  C   UNL A   1      43.505  25.881  25.725  1.00  0.00     0.198 A 
ATOM     78  F   UNL A   1      43.750  27.909  26.903  1.00  0.00    -0.203 F 
ATOM     79  F   UNL A   1      41.316  23.058  26.331  1.00  0.00    -0.200 F 
ATOM     80  C   UNL A   1      42.892  24.646  25.576  1.00  0.00     0.200 A 
ATOM     81  F   UNL A   1      44.457  26.266  24.864  1.00  0.00    -0.200 F 
ATOM     82  F   UNL A   1      43.266  23.827  24.584  1.00  0.00    -0.200 F 
ENDBRANCH  44  72
BRANCH  59  83
ATOM     83  C   UNL A   1      44.959  27.368  33.975  1.00  0.00     0.064 A 
ATOM     84  C   UNL A   1      46.209  27.992  33.839  1.00  0.00     0.173 A 
ATOM     85  C   UNL A   1      44.893  26.177  34.712  1.00  0.00     0.173 A 
ATOM     86  F   UNL A   1      46.324  29.130  33.140  1.00  0.00    -0.203 F 
ATOM     87  C   UNL A   1      47.350  27.437  34.411  1.00  0.00     0.198 A 
ATOM     88  C   UNL A   1      46.033  25.638  35.302  1.00  0.00     0.198 A 
ATOM     89  F   UNL A   1      43.717  25.552  34.881  1.00  0.00    -0.203 F 
ATOM     90  F   UNL A   1      48.538  28.037  34.248  1.00  0.00    -0.200 F 
ATOM     91  C   UNL A   1      47.261  26.263  35.144  1.00  0.00     0.200 A 
ATOM     92  F   UNL A   1      45.941  24.517  36.030  1.00  0.00    -0.200 F 
ATOM     93  F   UNL A   1      48.359  25.737  35.704  1.00  0.00    -0.200 F 
ENDBRANCH  59  83
ENDBRANCH  24  27
ENDBRANCH  15  17
ENDBRANCH  10  13
ENDBRANCH   7  10
ENDBRANCH   4   7
ENDBRANCH   1   4
BRANCH   1  94
ATOM     94  C   UNL A   1      30.304  26.044  25.944  1.00  0.00    -0.036 C 
ATOM     95  H   UNL A   1      29.714  26.936  26.003  1.00  0.00     0.028 H 
ATOM     96  H   UNL A   1      29.928  25.239  26.540  1.00  0.00     0.028 H 
BRANCH  94  97
ATOM     97  C   UNL A   1      30.268  25.551  24.504  1.00  0.00     0.017 C 
ATOM     98  H   UNL A   1      29.567  24.746  24.434  1.00  0.00     0.049 H 
ATOM     99  H   UNL A   1      31.256  25.233  24.244  1.00  0.00     0.049 H 
BRANCH  97 100
ATOM    100  N   UNL A   1      29.878  26.589  23.577  1.00  0.00    -0.354 N 
ATOM    101  C   UNL A   1      30.617  27.325  22.706  1.00  0.00     0.244 C 
ATOM    102  H   UNL A   1      28.916  26.797  23.576  1.00  0.00     0.163 HD
ATOM    103  O   UNL A   1      30.014  28.191  22.066  1.00  0.00    -0.273 OA
BRANCH 101 104
ATOM    104  C   UNL A   1      32.141  27.168  22.574  1.00  0.00     0.131 C 
ATOM    105  H   UNL A   1      32.458  26.562  23.396  1.00  0.00     0.066 H 
BRANCH 104 106
ATOM    106  N   UNL A   1      32.456  26.490  21.315  1.00  0.00    -0.340 N 
ATOM    107  C   UNL A   1      32.743  25.195  21.007  1.00  0.00     0.243 C 
ATOM    108  H   UNL A   1      32.462  27.091  20.535  1.00  0.00     0.164 HD
ATOM    109  O   UNL A   1      32.997  25.007  19.811  1.00  0.00    -0.273 OA
BRANCH 107 110
ATOM    110  C   UNL A   1      32.978  24.081  22.065  1.00  0.00     0.112 C 
ATOM    111  H   UNL A   1      32.519  24.487  22.942  1.00  0.00     0.064 H 
BRANCH 110 112
ATOM    112  N   UNL A   1      32.266  22.814  21.898  1.00  0.00    -0.340 N 
ATOM    113  C   UNL A   1      32.204  21.655  22.627  1.00  0.00     0.251 C 
ATOM    114  H   UNL A   1      31.708  22.789  21.087  1.00  0.00     0.164 HD
ATOM    115  O   UNL A   1      31.728  20.669  22.061  1.00  0.00    -0.269 OA
BRANCH 113 116
ATOM    116  C   UNL A   1      32.616  21.514  24.057  1.00  0.00     0.040 A 
ATOM    117  C   UNL A   1      33.650  20.688  24.516  1.00  0.00    -0.047 A 
ATOM    118  C   UNL A   1      32.014  22.391  24.979  1.00  0.00    -0.047 A 
ATOM    119  C   UNL A   1      34.069  20.733  25.851  1.00  0.00    -0.026 A 
ATOM    120  H   UNL A   1      34.109  20.036  23.861  1.00  0.00     0.063 H 
ATOM    121  C   UNL A   1      32.433  22.441  26.312  1.00  0.00    -0.026 A 
ATOM    122  H   UNL A   1      31.250  23.009  24.665  1.00  0.00     0.063 H 
ATOM    123  C   UNL A   1      33.461  21.613  26.735  1.00  0.00     0.123 A 
ATOM    124  H   UNL A   1      34.828  20.115  26.176  1.00  0.00     0.065 H 
ATOM    125  H   UNL A   1      31.981  23.090  26.976  1.00  0.00     0.065 H 
ATOM    126  F   UNL A   1      33.886  21.674  28.003  1.00  0.00    -0.207 F 
ENDBRANCH 113 116
ENDBRANCH 110 112
BRANCH 110 127
ATOM    127  C   UNL A   1      34.488  23.849  22.289  1.00  0.00     0.004 C 
ATOM    128  H   UNL A   1      35.003  24.555  21.671  1.00  0.00     0.034 H 
ATOM    129  H   UNL A   1      34.611  22.811  22.065  1.00  0.00     0.034 H 
BRANCH 127 130
ATOM    130  C   UNL A   1      35.081  23.973  23.674  1.00  0.00    -0.020 A 
ATOM    131  C   UNL A   1      34.635  24.929  24.573  1.00  0.00     0.005 A 
ATOM    132  C   UNL A   1      36.150  23.267  24.339  1.00  0.00     0.003 A 
ATOM    133  N   UNL A   1      35.358  24.831  25.725  1.00  0.00    -0.361 N 
ATOM    134  H   UNL A   1      33.877  25.608  24.398  1.00  0.00     0.082 H 
ATOM    135  C   UNL A   1      36.287  23.828  25.614  1.00  0.00     0.046 A 
ATOM    136  C   UNL A   1      37.023  22.206  24.011  1.00  0.00    -0.053 A 
ATOM    137  H   UNL A   1      35.231  25.398  26.520  1.00  0.00     0.166 HD
ATOM    138  C   UNL A   1      37.228  23.389  26.555  1.00  0.00    -0.038 A 
ATOM    139  C   UNL A   1      37.966  21.747  24.941  1.00  0.00    -0.062 A 
ATOM    140  H   UNL A   1      36.968  21.767  23.079  1.00  0.00     0.063 H 
ATOM    141  C   UNL A   1      38.066  22.333  26.197  1.00  0.00    -0.060 A 
ATOM    142  H   UNL A   1      37.299  23.833  27.484  1.00  0.00     0.064 H 
ATOM    143  H   UNL A   1      38.591  20.966  24.692  1.00  0.00     0.062 H 
ATOM    144  H   UNL A   1      38.766  21.985  26.869  1.00  0.00     0.062 H 
ENDBRANCH 127 130
ENDBRANCH 110 127
ENDBRANCH 107 110
ENDBRANCH 104 106
BRANCH 104 145
ATOM    145  C   UNL A   1      32.943  28.467  22.751  1.00  0.00     0.072 C 
ATOM    146  H   UNL A   1      33.747  28.473  22.045  1.00  0.00     0.059 H 
ATOM    147  H   UNL A   1      33.304  28.492  23.758  1.00  0.00     0.059 H 
BRANCH 145 148
ATOM    148  O   UNL A   1      32.147  29.629  22.547  1.00  0.00    -0.394 OA
ATOM    149  H   UNL A   1      32.402  30.054  21.714  1.00  0.00     0.210 HD
ENDBRANCH 145 148
ENDBRANCH 104 145
ENDBRANCH 101 104
ENDBRANCH  97 100
ENDBRANCH  94  97
ENDBRANCH   1  94
TORSDOF 21
ENDMDL
MODEL 2
REMARK VINA RESULT:     -12.0      2.544      7.859
REMARK SMILES O=C(NCCCCCCNC(=O)[C@H](CO)NC(=O)[C@H](Cc1c[nH]c2ccccc12)NC(=O)c1ccc(F)cc1)c1ccc(-c2c3nc(c(-c4c(F)c(F)c(F)c(F)c4F)c4ccc([nH]4)c(-c4c(F)c(F)c(F)c(F)c4F)c4nc(c(-c5c(F)c(F)c(F)c(F)c5F)c5ccc2[nH]5)C=C4)C=C3)cc1
REMARK SMILES IDX 7 1 6 4 5 7 4 10 3 13 1 14 2 15 40 17 41 18 102 19 42 20
REMARK SMILES IDX 101 22 43 24 44 27 45 28 95 29 46 30 100 31 94 32 96 33
REMARK SMILES IDX 47 34 99 35 93 37 92 39 48 41 80 44 60 45 79 46 61 47 64 48
REMARK SMILES IDX 78 49 97 50 62 51 63 53 77 55 98 56 65 59 49 61 50 62 58 63
REMARK SMILES IDX 51 64 52 65 56 66 59 67 53 68 54 69 57 70 55 71 81 72 82 73
REMARK SMILES IDX 90 74 83 75 84 76 88 77 91 78 85 79 86 80 89 81 87 82 66 83
REMARK SMILES IDX 67 84 75 85 68 86 69 87 73 88 76 89 70 90 71 91 74 92 72 93
REMARK SMILES IDX 8 94 9 97 10 100 11 101 12 103 13 104 16 106 17 107 18 109
REMARK SMILES IDX 19 110 30 112 31 113 32 115 33 116 34 117 39 118 35 119
REMARK SMILES IDX 38 121 36 123 37 126 20 127 21 130 22 131 29 132 23 133
REMARK SMILES IDX 24 135 28 136 25 138 27 139 26 141 14 145 15 148
REMARK H PARENT 7 2 7 3 6 5 6 6 5 8 5 9 4 11 4 12 3 16 41 21 102 23 42 25
REMARK H PARENT 101 26 100 36 94 38 96 40 99 42 93 43 61 52 64 54 97 57 62 58
REMARK H PARENT 98 60 8 95 8 96 9 98 9 99 10 102 13 105 16 108 19 111 30 114
REMARK H PARENT 34 120 39 122 35 124 38 125 20 128 20 129 22 134 23 137 28 140
REMARK H PARENT 25 142 27 143 26 144 14 146 14 147 15 149
REMARK Flexibility Score: inf
ROOT
ATOM      1  C   UNL A   1      35.547  33.027  28.264  1.00  0.00    -0.052 C 
ATOM      2  H   UNL A   1      36.523  33.295  28.610  1.00  0.00     0.027 H 
ATOM      3  H   UNL A   1      35.240  33.526  27.369  1.00  0.00     0.027 H 
ENDROOT
BRANCH   1   4
ATOM      4  C   UNL A   1      34.539  33.457  29.334  1.00  0.00    -0.052 C 
ATOM      5  H   UNL A   1      34.059  32.575  29.704  1.00  0.00     0.027 H 
ATOM      6  H   UNL A   1      35.110  33.989  30.066  1.00  0.00     0.027 H 
BRANCH   4   7
ATOM      7  C   UNL A   1      33.449  34.427  28.883  1.00  0.00    -0.036 C 
ATOM      8  H   UNL A   1      33.503  34.509  27.818  1.00  0.00     0.028 H 
ATOM      9  H   UNL A   1      32.528  34.016  29.242  1.00  0.00     0.028 H 
BRANCH   7  10
ATOM     10  C   UNL A   1      33.528  35.832  29.463  1.00  0.00     0.018 C 
ATOM     11  H   UNL A   1      34.495  35.963  29.901  1.00  0.00     0.049 H 
ATOM     12  H   UNL A   1      33.348  36.511  28.657  1.00  0.00     0.049 H 
BRANCH  10  13
ATOM     13  N   UNL A   1      32.526  36.103  30.478  1.00  0.00    -0.352 N 
ATOM     14  O   UNL A   1      31.577  36.011  32.527  1.00  0.00    -0.269 OA
ATOM     15  C   UNL A   1      32.546  35.773  31.812  1.00  0.00     0.251 C 
ATOM     16  H   UNL A   1      31.726  36.586  30.169  1.00  0.00     0.163 HD
BRANCH  15  17
ATOM     17  C   UNL A   1      33.727  35.083  32.373  1.00  0.00     0.039 A 
ATOM     18  C   UNL A   1      34.981  35.700  32.378  1.00  0.00    -0.049 A 
ATOM     19  C   UNL A   1      33.580  33.786  32.871  1.00  0.00    -0.049 A 
ATOM     20  C   UNL A   1      36.106  34.966  32.734  1.00  0.00    -0.053 A 
ATOM     21  H   UNL A   1      35.070  36.695  32.120  1.00  0.00     0.063 H 
ATOM     22  C   UNL A   1      34.702  33.079  33.311  1.00  0.00    -0.053 A 
ATOM     23  H   UNL A   1      32.644  33.352  32.914  1.00  0.00     0.063 H 
ATOM     24  C   UNL A   1      35.979  33.649  33.208  1.00  0.00    -0.014 A 
ATOM     25  H   UNL A   1      37.042  35.391  32.647  1.00  0.00     0.063 H 
ATOM     26  H   UNL A   1      34.590  32.135  33.712  1.00  0.00     0.063 H 
BRANCH  24  27
ATOM     27  C   UNL A   1      37.197  32.911  33.629  1.00  0.00     0.031 A 
ATOM     28  C   UNL A   1      37.865  31.923  32.715  1.00  0.00     0.074 A 
ATOM     29  C   UNL A   1      37.727  33.178  34.837  1.00  0.00     0.049 A 
ATOM     30  N   UNL A   1      38.957  31.226  32.912  1.00  0.00    -0.248 NA
ATOM     31  C   UNL A   1      37.226  31.677  31.412  1.00  0.00    -0.034 C 
ATOM     32  C   UNL A   1      37.159  34.112  35.812  1.00  0.00    -0.036 A 
ATOM     33  N   UNL A   1      38.870  32.719  35.441  1.00  0.00    -0.354 N 
ATOM     34  C   UNL A   1      39.126  30.450  31.773  1.00  0.00     0.074 A 
ATOM     35  C   UNL A   1      38.013  30.742  30.895  1.00  0.00    -0.034 C 
ATOM     36  H   UNL A   1      36.387  32.119  31.007  1.00  0.00     0.065 H 
ATOM     37  C   UNL A   1      37.986  34.205  36.863  1.00  0.00    -0.036 A 
ATOM     38  H   UNL A   1      36.266  34.617  35.706  1.00  0.00     0.065 H 
ATOM     39  C   UNL A   1      39.110  33.296  36.663  1.00  0.00     0.049 A 
ATOM     40  H   UNL A   1      39.460  32.043  35.037  1.00  0.00     0.167 HD
ATOM     41  C   UNL A   1      40.127  29.583  31.485  1.00  0.00     0.037 A 
ATOM     42  H   UNL A   1      37.851  30.282  29.987  1.00  0.00     0.065 H 
ATOM     43  H   UNL A   1      37.850  34.820  37.680  1.00  0.00     0.065 H 
ATOM     44  C   UNL A   1      40.121  33.112  37.532  1.00  0.00     0.037 A 
ATOM     45  C   UNL A   1      41.241  29.310  32.355  1.00  0.00     0.049 A 
ATOM     46  C   UNL A   1      41.212  32.141  37.191  1.00  0.00     0.074 A 
ATOM     47  C   UNL A   1      42.312  28.457  32.144  1.00  0.00    -0.036 A 
ATOM     48  N   UNL A   1      41.431  29.887  33.602  1.00  0.00    -0.354 N 
ATOM     49  N   UNL A   1      41.363  31.419  36.108  1.00  0.00    -0.248 NA
ATOM     50  C   UNL A   1      42.270  31.955  38.192  1.00  0.00    -0.034 C 
ATOM     51  C   UNL A   1      43.129  28.490  33.278  1.00  0.00    -0.036 A 
ATOM     52  H   UNL A   1      42.478  27.894  31.296  1.00  0.00     0.065 H 
ATOM     53  C   UNL A   1      42.594  29.398  34.178  1.00  0.00     0.049 A 
ATOM     54  H   UNL A   1      40.829  30.545  34.018  1.00  0.00     0.167 HD
ATOM     55  C   UNL A   1      42.532  30.697  36.292  1.00  0.00     0.074 A 
ATOM     56  C   UNL A   1      43.064  31.085  37.582  1.00  0.00    -0.034 C 
ATOM     57  H   UNL A   1      42.369  32.387  39.124  1.00  0.00     0.065 H 
ATOM     58  H   UNL A   1      43.987  27.933  33.421  1.00  0.00     0.065 H 
ATOM     59  C   UNL A   1      43.108  29.791  35.466  1.00  0.00     0.037 A 
ATOM     60  H   UNL A   1      43.949  30.729  37.977  1.00  0.00     0.065 H 
BRANCH  41  61
ATOM     61  C   UNL A   1      40.064  28.855  30.174  1.00  0.00     0.064 A 
ATOM     62  C   UNL A   1      39.447  27.596  30.087  1.00  0.00     0.173 A 
ATOM     63  C   UNL A   1      40.668  29.369  29.018  1.00  0.00     0.173 A 
ATOM     64  F   UNL A   1      38.860  27.056  31.166  1.00  0.00    -0.203 F 
ATOM     65  C   UNL A   1      39.445  26.879  28.894  1.00  0.00     0.198 A 
ATOM     66  C   UNL A   1      40.643  28.659  27.819  1.00  0.00     0.198 A 
ATOM     67  F   UNL A   1      41.260  30.573  29.044  1.00  0.00    -0.203 F 
ATOM     68  F   UNL A   1      38.873  25.668  28.843  1.00  0.00    -0.200 F 
ATOM     69  C   UNL A   1      40.039  27.412  27.761  1.00  0.00     0.200 A 
ATOM     70  F   UNL A   1      41.196  29.186  26.719  1.00  0.00    -0.200 F 
ATOM     71  F   UNL A   1      40.027  26.725  26.609  1.00  0.00    -0.200 F 
ENDBRANCH  41  61
BRANCH  44  72
ATOM     72  C   UNL A   1      40.140  33.893  38.794  1.00  0.00     0.064 A 
ATOM     73  C   UNL A   1      39.411  33.478  39.917  1.00  0.00     0.173 A 
ATOM     74  C   UNL A   1      40.833  35.108  38.873  1.00  0.00     0.173 A 
ATOM     75  F   UNL A   1      38.724  32.327  39.884  1.00  0.00    -0.203 F 
ATOM     76  C   UNL A   1      39.350  34.266  41.065  1.00  0.00     0.198 A 
ATOM     77  C   UNL A   1      40.791  35.882  40.031  1.00  0.00     0.198 A 
ATOM     78  F   UNL A   1      41.555  35.537  37.827  1.00  0.00    -0.203 F 
ATOM     79  F   UNL A   1      38.607  33.870  42.108  1.00  0.00    -0.200 F 
ATOM     80  C   UNL A   1      40.041  35.465  41.121  1.00  0.00     0.200 A 
ATOM     81  F   UNL A   1      41.475  37.033  40.088  1.00  0.00    -0.200 F 
ATOM     82  F   UNL A   1      39.982  36.223  42.224  1.00  0.00    -0.200 F 
ENDBRANCH  44  72
BRANCH  59  83
ATOM     83  C   UNL A   1      44.387  29.158  35.925  1.00  0.00     0.064 A 
ATOM     84  C   UNL A   1      45.624  29.733  35.594  1.00  0.00     0.173 A 
ATOM     85  C   UNL A   1      44.391  27.955  36.644  1.00  0.00     0.173 A 
ATOM     86  F   UNL A   1      45.672  30.881  34.902  1.00  0.00    -0.203 F 
ATOM     87  C   UNL A   1      46.818  29.119  35.960  1.00  0.00     0.198 A 
ATOM     88  C   UNL A   1      45.587  27.356  37.029  1.00  0.00     0.198 A 
ATOM     89  F   UNL A   1      43.233  27.375  36.996  1.00  0.00    -0.203 F 
ATOM     90  F   UNL A   1      47.988  29.674  35.612  1.00  0.00    -0.200 F 
ATOM     91  C   UNL A   1      46.799  27.934  36.680  1.00  0.00     0.200 A 
ATOM     92  F   UNL A   1      45.568  26.224  37.745  1.00  0.00    -0.200 F 
ATOM     93  F   UNL A   1      47.950  27.351  37.042  1.00  0.00    -0.200 F 
ENDBRANCH  59  83
ENDBRANCH  24  27
ENDBRANCH  15  17
ENDBRANCH  10  13
ENDBRANCH   7  10
ENDBRANCH   4   7
ENDBRANCH   1   4
BRANCH   1  94
ATOM     94  C   UNL A   1      35.571  31.536  27.907  1.00  0.00    -0.036 C 
ATOM     95  H   UNL A   1      36.027  31.010  28.721  1.00  0.00     0.028 H 
ATOM     96  H   UNL A   1      36.115  31.464  26.989  1.00  0.00     0.028 H 
BRANCH  94  97
ATOM     97  C   UNL A   1      34.212  30.904  27.641  1.00  0.00     0.017 C 
ATOM     98  H   UNL A   1      33.729  31.445  26.854  1.00  0.00     0.049 H 
ATOM     99  H   UNL A   1      33.648  30.948  28.549  1.00  0.00     0.049 H 
BRANCH  97 100
ATOM    100  N   UNL A   1      34.318  29.516  27.253  1.00  0.00    -0.354 N 
ATOM    101  C   UNL A   1      33.820  28.854  26.175  1.00  0.00     0.244 C 
ATOM    102  H   UNL A   1      34.838  28.955  27.873  1.00  0.00     0.163 HD
ATOM    103  O   UNL A   1      34.029  27.639  26.128  1.00  0.00    -0.273 OA
BRANCH 101 104
ATOM    104  C   UNL A   1      32.962  29.546  25.103  1.00  0.00     0.131 C 
ATOM    105  H   UNL A   1      32.967  30.590  25.335  1.00  0.00     0.066 H 
BRANCH 104 106
ATOM    106  N   UNL A   1      33.560  29.334  23.784  1.00  0.00    -0.340 N 
ATOM    107  C   UNL A   1      33.502  28.303  22.897  1.00  0.00     0.243 C 
ATOM    108  H   UNL A   1      34.114  30.087  23.477  1.00  0.00     0.164 HD
ATOM    109  O   UNL A   1      34.185  28.477  21.879  1.00  0.00    -0.273 OA
BRANCH 107 110
ATOM    110  C   UNL A   1      32.852  26.926  23.204  1.00  0.00     0.112 C 
ATOM    111  H   UNL A   1      33.148  26.745  24.216  1.00  0.00     0.064 H 
BRANCH 110 112
ATOM    112  N   UNL A   1      31.393  26.857  23.288  1.00  0.00    -0.340 N 
ATOM    113  C   UNL A   1      30.514  25.974  23.856  1.00  0.00     0.251 C 
ATOM    114  H   UNL A   1      30.946  27.611  22.840  1.00  0.00     0.164 HD
ATOM    115  O   UNL A   1      29.336  26.057  23.503  1.00  0.00    -0.269 OA
BRANCH 113 116
ATOM    116  C   UNL A   1      30.863  24.962  24.901  1.00  0.00     0.040 A 
ATOM    117  C   UNL A   1      30.655  23.583  24.784  1.00  0.00    -0.047 A 
ATOM    118  C   UNL A   1      31.589  25.428  26.014  1.00  0.00    -0.047 A 
ATOM    119  C   UNL A   1      31.153  22.695  25.745  1.00  0.00    -0.026 A 
ATOM    120  H   UNL A   1      30.127  23.215  23.977  1.00  0.00     0.063 H 
ATOM    121  C   UNL A   1      32.090  24.543  26.974  1.00  0.00    -0.026 A 
ATOM    122  H   UNL A   1      31.755  26.441  26.123  1.00  0.00     0.063 H 
ATOM    123  C   UNL A   1      31.870  23.182  26.828  1.00  0.00     0.123 A 
ATOM    124  H   UNL A   1      30.987  21.681  25.648  1.00  0.00     0.065 H 
ATOM    125  H   UNL A   1      32.620  24.901  27.785  1.00  0.00     0.065 H 
ATOM    126  F   UNL A   1      32.369  22.327  27.729  1.00  0.00    -0.207 F 
ENDBRANCH 113 116
ENDBRANCH 110 112
BRANCH 110 127
ATOM    127  C   UNL A   1      33.411  25.835  22.263  1.00  0.00     0.004 C 
ATOM    128  H   UNL A   1      34.360  26.186  21.916  1.00  0.00     0.034 H 
ATOM    129  H   UNL A   1      32.632  25.715  21.540  1.00  0.00     0.034 H 
BRANCH 127 130
ATOM    130  C   UNL A   1      33.627  24.428  22.770  1.00  0.00    -0.020 A 
ATOM    131  C   UNL A   1      33.080  23.331  22.123  1.00  0.00     0.005 A 
ATOM    132  C   UNL A   1      34.321  23.907  23.923  1.00  0.00     0.003 A 
ATOM    133  N   UNL A   1      33.410  22.198  22.806  1.00  0.00    -0.361 N 
ATOM    134  H   UNL A   1      32.512  23.366  21.262  1.00  0.00     0.082 H 
ATOM    135  C   UNL A   1      34.167  22.516  23.906  1.00  0.00     0.046 A 
ATOM    136  C   UNL A   1      35.073  24.452  24.987  1.00  0.00    -0.053 A 
ATOM    137  H   UNL A   1      33.145  21.286  22.548  1.00  0.00     0.166 HD
ATOM    138  C   UNL A   1      34.717  21.665  24.874  1.00  0.00    -0.038 A 
ATOM    139  C   UNL A   1      35.638  23.618  25.960  1.00  0.00    -0.062 A 
ATOM    140  H   UNL A   1      35.206  25.474  25.049  1.00  0.00     0.063 H 
ATOM    141  C   UNL A   1      35.461  22.241  25.903  1.00  0.00    -0.060 A 
ATOM    142  H   UNL A   1      34.576  20.643  24.827  1.00  0.00     0.064 H 
ATOM    143  H   UNL A   1      36.193  24.029  26.727  1.00  0.00     0.062 H 
ATOM    144  H   UNL A   1      35.881  21.641  26.628  1.00  0.00     0.062 H 
ENDBRANCH 127 130
ENDBRANCH 110 127
ENDBRANCH 107 110
ENDBRANCH 104 106
BRANCH 104 145
ATOM    145  C   UNL A   1      31.470  29.176  25.132  1.00  0.00     0.072 C 
ATOM    146  H   UNL A   1      31.076  29.415  26.098  1.00  0.00     0.059 H 
ATOM    147  H   UNL A   1      31.390  28.131  24.921  1.00  0.00     0.059 H 
BRANCH 145 148
ATOM    148  O   UNL A   1      30.718  29.876  24.147  1.00  0.00    -0.394 OA
ATOM    149  H   UNL A   1      31.303  30.139  23.419  1.00  0.00     0.210 HD
ENDBRANCH 145 148
ENDBRANCH 104 145
ENDBRANCH 101 104
ENDBRANCH  97 100
ENDBRANCH  94  97
ENDBRANCH   1  94
TORSDOF 21
ENDMDL
MODEL 3
REMARK VINA RESULT:     -11.9      4.564      9.914
REMARK SMILES O=C(NCCCCCCNC(=O)[C@H](CO)NC(=O)[C@H](Cc1c[nH]c2ccccc12)NC(=O)c1ccc(F)cc1)c1ccc(-c2c3nc(c(-c4c(F)c(F)c(F)c(F)c4F)c4ccc([nH]4)c(-c4c(F)c(F)c(F)c(F)c4F)c4nc(c(-c5c(F)c(F)c(F)c(F)c5F)c5ccc2[nH]5)C=C4)C=C3)cc1
REMARK SMILES IDX 7 1 6 4 5 7 4 10 3 13 1 14 2 15 40 17 41 18 102 19 42 20
REMARK SMILES IDX 101 22 43 24 44 27 45 28 95 29 46 30 100 31 94 32 96 33
REMARK SMILES IDX 47 34 99 35 93 37 92 39 48 41 80 44 60 45 79 46 61 47 64 48
REMARK SMILES IDX 78 49 97 50 62 51 63 53 77 55 98 56 65 59 49 61 50 62 58 63
REMARK SMILES IDX 51 64 52 65 56 66 59 67 53 68 54 69 57 70 55 71 81 72 82 73
REMARK SMILES IDX 90 74 83 75 84 76 88 77 91 78 85 79 86 80 89 81 87 82 66 83
REMARK SMILES IDX 67 84 75 85 68 86 69 87 73 88 76 89 70 90 71 91 74 92 72 93
REMARK SMILES IDX 8 94 9 97 10 100 11 101 12 103 13 104 16 106 17 107 18 109
REMARK SMILES IDX 19 110 30 112 31 113 32 115 33 116 34 117 39 118 35 119
REMARK SMILES IDX 38 121 36 123 37 126 20 127 21 130 22 131 29 132 23 133
REMARK SMILES IDX 24 135 28 136 25 138 27 139 26 141 14 145 15 148
REMARK H PARENT 7 2 7 3 6 5 6 6 5 8 5 9 4 11 4 12 3 16 41 21 102 23 42 25
REMARK H PARENT 101 26 100 36 94 38 96 40 99 42 93 43 61 52 64 54 97 57 62 58
REMARK H PARENT 98 60 8 95 8 96 9 98 9 99 10 102 13 105 16 108 19 111 30 114
REMARK H PARENT 34 120 39 122 35 124 38 125 20 128 20 129 22 134 23 137 28 140
REMARK H PARENT 25 142 27 143 26 144 14 146 14 147 15 149
REMARK Flexibility Score: inf
ROOT
ATOM      1  C   UNL A   1      36.807  21.833  24.059  1.00  0.00    -0.052 C 
ATOM      2  H   UNL A   1      36.506  21.390  23.133  1.00  0.00     0.027 H 
ATOM      3  H   UNL A   1      37.760  22.317  24.032  1.00  0.00     0.027 H 
ENDROOT
BRANCH   1   4
ATOM      4  C   UNL A   1      36.955  20.706  25.086  1.00  0.00    -0.052 C 
ATOM      5  H   UNL A   1      37.008  21.153  26.057  1.00  0.00     0.027 H 
ATOM      6  H   UNL A   1      36.106  20.071  24.939  1.00  0.00     0.027 H 
BRANCH   4   7
ATOM      7  C   UNL A   1      38.174  19.800  24.923  1.00  0.00    -0.036 C 
ATOM      8  H   UNL A   1      37.866  18.796  25.126  1.00  0.00     0.028 H 
ATOM      9  H   UNL A   1      38.520  19.956  23.922  1.00  0.00     0.028 H 
BRANCH   7  10
ATOM     10  C   UNL A   1      39.360  20.115  25.823  1.00  0.00     0.018 C 
ATOM     11  H   UNL A   1      39.819  21.016  25.475  1.00  0.00     0.049 H 
ATOM     12  H   UNL A   1      38.980  20.207  26.818  1.00  0.00     0.049 H 
BRANCH  10  13
ATOM     13  N   UNL A   1      40.367  19.069  25.850  1.00  0.00    -0.352 N 
ATOM     14  O   UNL A   1      42.448  18.202  26.011  1.00  0.00    -0.269 OA
ATOM     15  C   UNL A   1      41.713  19.182  26.099  1.00  0.00     0.251 C 
ATOM     16  H   UNL A   1      40.041  18.159  25.665  1.00  0.00     0.163 HD
BRANCH  15  17
ATOM     17  C   UNL A   1      42.284  20.505  26.431  1.00  0.00     0.039 A 
ATOM     18  C   UNL A   1      42.318  20.960  27.751  1.00  0.00    -0.049 A 
ATOM     19  C   UNL A   1      42.761  21.315  25.395  1.00  0.00    -0.049 A 
ATOM     20  C   UNL A   1      42.681  22.276  28.015  1.00  0.00    -0.053 A 
ATOM     21  H   UNL A   1      42.076  20.322  28.526  1.00  0.00     0.063 H 
ATOM     22  C   UNL A   1      43.208  22.608  25.675  1.00  0.00    -0.053 A 
ATOM     23  H   UNL A   1      42.782  20.957  24.427  1.00  0.00     0.063 H 
ATOM     24  C   UNL A   1      43.134  23.113  26.982  1.00  0.00    -0.014 A 
ATOM     25  H   UNL A   1      42.616  22.640  28.979  1.00  0.00     0.063 H 
ATOM     26  H   UNL A   1      43.593  23.195  24.918  1.00  0.00     0.063 H 
BRANCH  24  27
ATOM     27  C   UNL A   1      43.563  24.497  27.307  1.00  0.00     0.031 A 
ATOM     28  C   UNL A   1      44.953  24.976  26.997  1.00  0.00     0.074 A 
ATOM     29  C   UNL A   1      42.663  25.340  27.847  1.00  0.00     0.049 A 
ATOM     30  N   UNL A   1      45.474  26.164  27.178  1.00  0.00    -0.248 NA
ATOM     31  C   UNL A   1      45.883  23.997  26.413  1.00  0.00    -0.034 C 
ATOM     32  C   UNL A   1      41.287  24.983  28.199  1.00  0.00    -0.036 A 
ATOM     33  N   UNL A   1      42.754  26.671  28.165  1.00  0.00    -0.354 N 
ATOM     34  C   UNL A   1      46.792  26.072  26.750  1.00  0.00     0.074 A 
ATOM     35  C   UNL A   1      47.001  24.706  26.320  1.00  0.00    -0.034 C 
ATOM     36  H   UNL A   1      45.711  23.016  26.145  1.00  0.00     0.065 H 
ATOM     37  C   UNL A   1      40.645  26.079  28.625  1.00  0.00    -0.036 A 
ATOM     38  H   UNL A   1      40.878  24.039  28.130  1.00  0.00     0.065 H 
ATOM     39  C   UNL A   1      41.577  27.202  28.632  1.00  0.00     0.049 A 
ATOM     40  H   UNL A   1      43.582  27.194  28.069  1.00  0.00     0.167 HD
ATOM     41  C   UNL A   1      47.735  27.045  26.710  1.00  0.00     0.037 A 
ATOM     42  H   UNL A   1      47.902  24.332  25.987  1.00  0.00     0.065 H 
ATOM     43  H   UNL A   1      39.652  26.123  28.902  1.00  0.00     0.065 H 
ATOM     44  C   UNL A   1      41.279  28.453  29.026  1.00  0.00     0.037 A 
ATOM     45  C   UNL A   1      47.515  28.407  27.123  1.00  0.00     0.049 A 
ATOM     46  C   UNL A   1      42.343  29.509  28.978  1.00  0.00     0.074 A 
ATOM     47  C   UNL A   1      48.405  29.468  27.106  1.00  0.00    -0.036 A 
ATOM     48  N   UNL A   1      46.319  28.899  27.624  1.00  0.00    -0.354 N 
ATOM     49  N   UNL A   1      43.583  29.410  28.565  1.00  0.00    -0.248 NA
ATOM     50  C   UNL A   1      41.971  30.848  29.454  1.00  0.00    -0.034 C 
ATOM     51  C   UNL A   1      47.759  30.591  27.632  1.00  0.00    -0.036 A 
ATOM     52  H   UNL A   1      49.378  29.435  26.765  1.00  0.00     0.065 H 
ATOM     53  C   UNL A   1      46.452  30.244  27.933  1.00  0.00     0.049 A 
ATOM     54  H   UNL A   1      45.496  28.372  27.744  1.00  0.00     0.167 HD
ATOM     55  C   UNL A   1      44.138  30.670  28.725  1.00  0.00     0.074 A 
ATOM     56  C   UNL A   1      43.093  31.524  29.252  1.00  0.00    -0.034 C 
ATOM     57  H   UNL A   1      41.072  31.175  29.843  1.00  0.00     0.065 H 
ATOM     58  H   UNL A   1      48.184  31.522  27.771  1.00  0.00     0.065 H 
ATOM     59  C   UNL A   1      45.403  31.079  28.462  1.00  0.00     0.037 A 
ATOM     60  H   UNL A   1      43.208  32.532  29.446  1.00  0.00     0.065 H 
BRANCH  41  61
ATOM     61  C   UNL A   1      49.099  26.674  26.208  1.00  0.00     0.064 A 
ATOM     62  C   UNL A   1      50.062  26.150  27.085  1.00  0.00     0.173 A 
ATOM     63  C   UNL A   1      49.478  26.897  24.877  1.00  0.00     0.173 A 
ATOM     64  F   UNL A   1      49.753  25.925  28.372  1.00  0.00    -0.203 F 
ATOM     65  C   UNL A   1      51.354  25.869  26.648  1.00  0.00     0.198 A 
ATOM     66  C   UNL A   1      50.764  26.592  24.437  1.00  0.00     0.198 A 
ATOM     67  F   UNL A   1      48.592  27.385  23.995  1.00  0.00    -0.203 F 
ATOM     68  F   UNL A   1      52.264  25.394  27.510  1.00  0.00    -0.200 F 
ATOM     69  C   UNL A   1      51.703  26.086  25.324  1.00  0.00     0.200 A 
ATOM     70  F   UNL A   1      51.093  26.780  23.151  1.00  0.00    -0.200 F 
ATOM     71  F   UNL A   1      52.944  25.805  24.901  1.00  0.00    -0.200 F 
ENDBRANCH  41  61
BRANCH  44  72
ATOM     72  C   UNL A   1      39.898  28.759  29.476  1.00  0.00     0.064 A 
ATOM     73  C   UNL A   1      39.475  28.464  30.780  1.00  0.00     0.173 A 
ATOM     74  C   UNL A   1      38.956  29.289  28.584  1.00  0.00     0.173 A 
ATOM     75  F   UNL A   1      40.340  27.946  31.664  1.00  0.00    -0.203 F 
ATOM     76  C   UNL A   1      38.151  28.659  31.167  1.00  0.00     0.198 A 
ATOM     77  C   UNL A   1      37.638  29.507  28.982  1.00  0.00     0.198 A 
ATOM     78  F   UNL A   1      39.320  29.601  27.332  1.00  0.00    -0.203 F 
ATOM     79  F   UNL A   1      37.761  28.324  32.404  1.00  0.00    -0.200 F 
ATOM     80  C   UNL A   1      37.235  29.182  30.268  1.00  0.00     0.200 A 
ATOM     81  F   UNL A   1      36.759  30.029  28.115  1.00  0.00    -0.200 F 
ATOM     82  F   UNL A   1      35.962  29.369  30.640  1.00  0.00    -0.200 F 
ENDBRANCH  44  72
BRANCH  59  83
ATOM     83  C   UNL A   1      45.730  32.517  28.731  1.00  0.00     0.064 A 
ATOM     84  C   UNL A   1      45.547  33.487  27.734  1.00  0.00     0.173 A 
ATOM     85  C   UNL A   1      46.276  32.925  29.956  1.00  0.00     0.173 A 
ATOM     86  F   UNL A   1      45.033  33.144  26.544  1.00  0.00    -0.203 F 
ATOM     87  C   UNL A   1      45.909  34.813  27.952  1.00  0.00     0.198 A 
ATOM     88  C   UNL A   1      46.614  34.258  30.179  1.00  0.00     0.198 A 
ATOM     89  F   UNL A   1      46.456  32.036  30.945  1.00  0.00    -0.203 F 
ATOM     90  F   UNL A   1      45.747  35.719  26.977  1.00  0.00    -0.200 F 
ATOM     91  C   UNL A   1      46.438  35.198  29.175  1.00  0.00     0.200 A 
ATOM     92  F   UNL A   1      47.103  34.633  31.369  1.00  0.00    -0.200 F 
ATOM     93  F   UNL A   1      46.773  36.478  29.388  1.00  0.00    -0.200 F 
ENDBRANCH  59  83
ENDBRANCH  24  27
ENDBRANCH  15  17
ENDBRANCH  10  13
ENDBRANCH   7  10
ENDBRANCH   4   7
ENDBRANCH   1   4
BRANCH   1  94
ATOM     94  C   UNL A   1      35.800  22.938  24.397  1.00  0.00    -0.036 C 
ATOM     95  H   UNL A   1      36.190  23.863  24.027  1.00  0.00     0.028 H 
ATOM     96  H   UNL A   1      35.685  22.914  25.461  1.00  0.00     0.028 H 
BRANCH  94  97
ATOM     97  C   UNL A   1      34.404  22.752  23.820  1.00  0.00     0.017 C 
ATOM     98  H   UNL A   1      34.472  22.742  22.752  1.00  0.00     0.049 H 
ATOM     99  H   UNL A   1      33.797  23.563  24.165  1.00  0.00     0.049 H 
BRANCH  97 100
ATOM    100  N   UNL A   1      33.787  21.520  24.257  1.00  0.00    -0.354 N 
ATOM    101  C   UNL A   1      33.058  21.238  25.369  1.00  0.00     0.244 C 
ATOM    102  H   UNL A   1      33.917  20.758  23.648  1.00  0.00     0.163 HD
ATOM    103  O   UNL A   1      32.696  20.067  25.509  1.00  0.00    -0.273 OA
BRANCH 101 104
ATOM    104  C   UNL A   1      32.765  22.286  26.455  1.00  0.00     0.131 C 
ATOM    105  H   UNL A   1      33.055  23.233  26.051  1.00  0.00     0.066 H 
BRANCH 104 106
ATOM    106  N   UNL A   1      31.331  22.297  26.751  1.00  0.00    -0.340 N 
ATOM    107  C   UNL A   1      30.331  23.170  26.452  1.00  0.00     0.243 C 
ATOM    108  H   UNL A   1      31.031  21.517  27.272  1.00  0.00     0.164 HD
ATOM    109  O   UNL A   1      29.229  22.850  26.916  1.00  0.00    -0.273 OA
BRANCH 107 110
ATOM    110  C   UNL A   1      30.556  24.563  25.802  1.00  0.00     0.112 C 
ATOM    111  H   UNL A   1      31.298  24.360  25.058  1.00  0.00     0.064 H 
BRANCH 110 112
ATOM    112  N   UNL A   1      29.469  25.136  25.010  1.00  0.00    -0.340 N 
ATOM    113  C   UNL A   1      29.374  26.205  24.157  1.00  0.00     0.251 C 
ATOM    114  H   UNL A   1      28.620  24.647  25.110  1.00  0.00     0.164 HD
ATOM    115  O   UNL A   1      28.238  26.587  23.870  1.00  0.00    -0.269 OA
BRANCH 113 116
ATOM    116  C   UNL A   1      30.532  26.900  23.515  1.00  0.00     0.040 A 
ATOM    117  C   UNL A   1      30.817  28.265  23.637  1.00  0.00    -0.047 A 
ATOM    118  C   UNL A   1      31.479  26.084  22.867  1.00  0.00    -0.047 A 
ATOM    119  C   UNL A   1      32.006  28.801  23.129  1.00  0.00    -0.026 A 
ATOM    120  H   UNL A   1      30.140  28.886  24.108  1.00  0.00     0.063 H 
ATOM    121  C   UNL A   1      32.669  26.615  22.362  1.00  0.00    -0.026 A 
ATOM    122  H   UNL A   1      31.292  25.074  22.764  1.00  0.00     0.063 H 
ATOM    123  C   UNL A   1      32.923  27.972  22.501  1.00  0.00     0.123 A 
ATOM    124  H   UNL A   1      32.199  29.810  23.221  1.00  0.00     0.065 H 
ATOM    125  H   UNL A   1      33.354  26.003  21.889  1.00  0.00     0.065 H 
ATOM    126  F   UNL A   1      34.072  28.483  22.043  1.00  0.00    -0.207 F 
ENDBRANCH 113 116
ENDBRANCH 110 112
BRANCH 110 127
ATOM    127  C   UNL A   1      31.084  25.574  26.843  1.00  0.00     0.004 C 
ATOM    128  H   UNL A   1      31.346  25.009  27.714  1.00  0.00     0.034 H 
ATOM    129  H   UNL A   1      30.281  26.275  26.931  1.00  0.00     0.034 H 
BRANCH 127 130
ATOM    130  C   UNL A   1      32.271  26.451  26.522  1.00  0.00    -0.020 A 
ATOM    131  C   UNL A   1      33.433  25.930  25.973  1.00  0.00     0.005 A 
ATOM    132  C   UNL A   1      32.515  27.861  26.707  1.00  0.00     0.003 A 
ATOM    133  N   UNL A   1      34.341  26.933  25.812  1.00  0.00    -0.361 N 
ATOM    134  H   UNL A   1      33.586  24.939  25.727  1.00  0.00     0.082 H 
ATOM    135  C   UNL A   1      33.812  28.122  26.248  1.00  0.00     0.046 A 
ATOM    136  C   UNL A   1      31.784  28.960  27.209  1.00  0.00    -0.053 A 
ATOM    137  H   UNL A   1      35.244  26.821  25.437  1.00  0.00     0.166 HD
ATOM    138  C   UNL A   1      34.396  29.396  26.263  1.00  0.00    -0.038 A 
ATOM    139  C   UNL A   1      32.347  30.243  27.225  1.00  0.00    -0.062 A 
ATOM    140  H   UNL A   1      30.827  28.817  27.568  1.00  0.00     0.063 H 
ATOM    141  C   UNL A   1      33.638  30.456  26.758  1.00  0.00    -0.060 A 
ATOM    142  H   UNL A   1      35.358  29.544  25.919  1.00  0.00     0.064 H 
ATOM    143  H   UNL A   1      31.798  31.038  27.586  1.00  0.00     0.062 H 
ATOM    144  H   UNL A   1      34.039  31.406  26.778  1.00  0.00     0.062 H 
ENDBRANCH 127 130
ENDBRANCH 110 127
ENDBRANCH 107 110
ENDBRANCH 104 106
BRANCH 104 145
ATOM    145  C   UNL A   1      33.621  22.158  27.725  1.00  0.00     0.072 C 
ATOM    146  H   UNL A   1      33.040  21.673  28.482  1.00  0.00     0.059 H 
ATOM    147  H   UNL A   1      33.911  23.144  28.023  1.00  0.00     0.059 H 
BRANCH 145 148
ATOM    148  O   UNL A   1      34.808  21.403  27.507  1.00  0.00    -0.394 OA
ATOM    149  H   UNL A   1      35.457  21.950  27.038  1.00  0.00     0.210 HD
ENDBRANCH 145 148
ENDBRANCH 104 145
ENDBRANCH 101 104
ENDBRANCH  97 100
ENDBRANCH  94  97
ENDBRANCH   1  94
TORSDOF 21
ENDMDL
MODEL 4
REMARK VINA RESULT:     -11.9      0.431      6.917
REMARK SMILES O=C(NCCCCCCNC(=O)[C@H](CO)NC(=O)[C@H](Cc1c[nH]c2ccccc12)NC(=O)c1ccc(F)cc1)c1ccc(-c2c3nc(c(-c4c(F)c(F)c(F)c(F)c4F)c4ccc([nH]4)c(-c4c(F)c(F)c(F)c(F)c4F)c4nc(c(-c5c(F)c(F)c(F)c(F)c5F)c5ccc2[nH]5)C=C4)C=C3)cc1
REMARK SMILES IDX 7 1 6 4 5 7 4 10 3 13 1 14 2 15 40 17 41 18 102 19 42 20
REMARK SMILES IDX 101 22 43 24 44 27 45 28 95 29 46 30 100 31 94 32 96 33
REMARK SMILES IDX 47 34 99 35 93 37 92 39 48 41 80 44 60 45 79 46 61 47 64 48
REMARK SMILES IDX 78 49 97 50 62 51 63 53 77 55 98 56 65 59 49 61 50 62 58 63
REMARK SMILES IDX 51 64 52 65 56 66 59 67 53 68 54 69 57 70 55 71 81 72 82 73
REMARK SMILES IDX 90 74 83 75 84 76 88 77 91 78 85 79 86 80 89 81 87 82 66 83
REMARK SMILES IDX 67 84 75 85 68 86 69 87 73 88 76 89 70 90 71 91 74 92 72 93
REMARK SMILES IDX 8 94 9 97 10 100 11 101 12 103 13 104 16 106 17 107 18 109
REMARK SMILES IDX 19 110 30 112 31 113 32 115 33 116 34 117 39 118 35 119
REMARK SMILES IDX 38 121 36 123 37 126 20 127 21 130 22 131 29 132 23 133
REMARK SMILES IDX 24 135 28 136 25 138 27 139 26 141 14 145 15 148
REMARK H PARENT 7 2 7 3 6 5 6 6 5 8 5 9 4 11 4 12 3 16 41 21 102 23 42 25
REMARK H PARENT 101 26 100 36 94 38 96 40 99 42 93 43 61 52 64 54 97 57 62 58
REMARK H PARENT 98 60 8 95 8 96 9 98 9 99 10 102 13 105 16 108 19 111 30 114
REMARK H PARENT 34 120 39 122 35 124 38 125 20 128 20 129 22 134 23 137 28 140
REMARK H PARENT 25 142 27 143 26 144 14 146 14 147 15 149
REMARK Flexibility Score: inf
ROOT
ATOM      1  C   UNL A   1      31.645  26.302  26.428  1.00  0.00    -0.052 C 
ATOM      2  H   UNL A   1      31.868  25.577  27.182  1.00  0.00     0.027 H 
ATOM      3  H   UNL A   1      32.319  26.300  25.596  1.00  0.00     0.027 H 
ENDROOT
BRANCH   1   4
ATOM      4  C   UNL A   1      31.787  27.690  27.060  1.00  0.00    -0.052 C 
ATOM      5  H   UNL A   1      31.017  27.794  27.796  1.00  0.00     0.027 H 
ATOM      6  H   UNL A   1      32.781  27.723  27.455  1.00  0.00     0.027 H 
BRANCH   4   7
ATOM      7  C   UNL A   1      31.686  28.879  26.108  1.00  0.00    -0.036 C 
ATOM      8  H   UNL A   1      31.508  28.498  25.124  1.00  0.00     0.028 H 
ATOM      9  H   UNL A   1      30.894  29.490  26.488  1.00  0.00     0.028 H 
BRANCH   7  10
ATOM     10  C   UNL A   1      32.909  29.784  26.043  1.00  0.00     0.018 C 
ATOM     11  H   UNL A   1      33.653  29.395  26.705  1.00  0.00     0.049 H 
ATOM     12  H   UNL A   1      33.233  29.795  25.024  1.00  0.00     0.049 H 
BRANCH  10  13
ATOM     13  N   UNL A   1      32.638  31.160  26.416  1.00  0.00    -0.352 N 
ATOM     14  O   UNL A   1      32.934  33.095  27.546  1.00  0.00    -0.269 OA
ATOM     15  C   UNL A   1      33.341  31.968  27.278  1.00  0.00     0.251 C 
ATOM     16  H   UNL A   1      31.846  31.568  25.998  1.00  0.00     0.163 HD
BRANCH  15  17
ATOM     17  C   UNL A   1      34.570  31.454  27.919  1.00  0.00     0.039 A 
ATOM     18  C   UNL A   1      34.621  30.154  28.429  1.00  0.00    -0.049 A 
ATOM     19  C   UNL A   1      35.675  32.301  28.040  1.00  0.00    -0.049 A 
ATOM     20  C   UNL A   1      35.713  29.759  29.193  1.00  0.00    -0.053 A 
ATOM     21  H   UNL A   1      33.853  29.492  28.239  1.00  0.00     0.063 H 
ATOM     22  C   UNL A   1      36.808  31.869  28.734  1.00  0.00    -0.053 A 
ATOM     23  H   UNL A   1      35.653  33.243  27.618  1.00  0.00     0.063 H 
ATOM     24  C   UNL A   1      36.820  30.610  29.351  1.00  0.00    -0.014 A 
ATOM     25  H   UNL A   1      35.709  28.833  29.649  1.00  0.00     0.063 H 
ATOM     26  H   UNL A   1      37.638  32.480  28.794  1.00  0.00     0.063 H 
BRANCH  24  27
ATOM     27  C   UNL A   1      37.992  30.136  30.129  1.00  0.00     0.031 A 
ATOM     28  C   UNL A   1      39.010  29.212  29.523  1.00  0.00     0.074 A 
ATOM     29  C   UNL A   1      38.156  30.589  31.386  1.00  0.00     0.049 A 
ATOM     30  N   UNL A   1      40.111  28.738  30.052  1.00  0.00    -0.248 NA
ATOM     31  C   UNL A   1      38.762  28.753  28.147  1.00  0.00    -0.034 C 
ATOM     32  C   UNL A   1      37.227  31.483  32.082  1.00  0.00    -0.036 A 
ATOM     33  N   UNL A   1      39.168  30.391  32.291  1.00  0.00    -0.354 N 
ATOM     34  C   UNL A   1      40.675  27.916  29.086  1.00  0.00     0.074 A 
ATOM     35  C   UNL A   1      39.785  27.934  27.945  1.00  0.00    -0.034 C 
ATOM     36  H   UNL A   1      37.993  29.004  27.507  1.00  0.00     0.065 H 
ATOM     37  C   UNL A   1      37.741  31.806  33.277  1.00  0.00    -0.036 A 
ATOM     38  H   UNL A   1      36.323  31.811  31.711  1.00  0.00     0.065 H 
ATOM     39  C   UNL A   1      39.004  31.097  33.456  1.00  0.00     0.049 A 
ATOM     40  H   UNL A   1      39.936  29.800  32.120  1.00  0.00     0.167 HD
ATOM     41  C   UNL A   1      41.837  27.219  29.146  1.00  0.00     0.037 A 
ATOM     42  H   UNL A   1      39.928  27.380  27.086  1.00  0.00     0.065 H 
ATOM     43  H   UNL A   1      37.313  32.450  33.959  1.00  0.00     0.065 H 
ATOM     44  C   UNL A   1      39.782  31.167  34.552  1.00  0.00     0.037 A 
ATOM     45  C   UNL A   1      42.727  27.219  30.279  1.00  0.00     0.049 A 
ATOM     46  C   UNL A   1      41.059  30.381  34.595  1.00  0.00     0.074 A 
ATOM     47  C   UNL A   1      43.933  26.557  30.428  1.00  0.00    -0.036 A 
ATOM     48  N   UNL A   1      42.509  27.920  31.456  1.00  0.00    -0.354 N 
ATOM     49  N   UNL A   1      41.584  29.612  33.672  1.00  0.00    -0.248 NA
ATOM     50  C   UNL A   1      41.849  30.467  35.830  1.00  0.00    -0.034 C 
ATOM     51  C   UNL A   1      44.427  26.826  31.708  1.00  0.00    -0.036 A 
ATOM     52  H   UNL A   1      44.390  25.965  29.716  1.00  0.00     0.065 H 
ATOM     53  C   UNL A   1      43.552  27.693  32.342  1.00  0.00     0.049 A 
ATOM     54  H   UNL A   1      41.729  28.492  31.638  1.00  0.00     0.167 HD
ATOM     55  C   UNL A   1      42.766  29.127  34.209  1.00  0.00     0.074 A 
ATOM     56  C   UNL A   1      42.893  29.706  35.531  1.00  0.00    -0.034 C 
ATOM     57  H   UNL A   1      41.645  30.983  36.699  1.00  0.00     0.065 H 
ATOM     58  H   UNL A   1      45.296  26.443  32.113  1.00  0.00     0.065 H 
ATOM     59  C   UNL A   1      43.661  28.274  33.656  1.00  0.00     0.037 A 
ATOM     60  H   UNL A   1      43.695  29.546  36.161  1.00  0.00     0.065 H 
BRANCH  41  61
ATOM     61  C   UNL A   1      42.215  26.388  27.955  1.00  0.00     0.064 A 
ATOM     62  C   UNL A   1      43.107  26.887  26.993  1.00  0.00     0.173 A 
ATOM     63  C   UNL A   1      41.647  25.126  27.730  1.00  0.00     0.173 A 
ATOM     64  F   UNL A   1      43.672  28.093  27.156  1.00  0.00    -0.203 F 
ATOM     65  C   UNL A   1      43.410  26.156  25.848  1.00  0.00     0.198 A 
ATOM     66  C   UNL A   1      41.972  24.386  26.596  1.00  0.00     0.198 A 
ATOM     67  F   UNL A   1      40.799  24.598  28.625  1.00  0.00    -0.203 F 
ATOM     68  F   UNL A   1      44.244  26.664  24.930  1.00  0.00    -0.200 F 
ATOM     69  C   UNL A   1      42.846  24.904  25.652  1.00  0.00     0.200 A 
ATOM     70  F   UNL A   1      41.445  23.167  26.419  1.00  0.00    -0.200 F 
ATOM     71  F   UNL A   1      43.147  24.196  24.554  1.00  0.00    -0.200 F 
ENDBRANCH  41  61
BRANCH  44  72
ATOM     72  C   UNL A   1      39.366  32.038  35.679  1.00  0.00     0.064 A 
ATOM     73  C   UNL A   1      39.892  33.329  35.833  1.00  0.00     0.173 A 
ATOM     74  C   UNL A   1      38.486  31.567  36.661  1.00  0.00     0.173 A 
ATOM     75  F   UNL A   1      40.746  33.818  34.922  1.00  0.00    -0.203 F 
ATOM     76  C   UNL A   1      39.576  34.105  36.946  1.00  0.00     0.198 A 
ATOM     77  C   UNL A   1      38.151  32.355  37.761  1.00  0.00     0.198 A 
ATOM     78  F   UNL A   1      37.946  30.344  36.547  1.00  0.00    -0.203 F 
ATOM     79  F   UNL A   1      40.130  35.316  37.094  1.00  0.00    -0.200 F 
ATOM     80  C   UNL A   1      38.705  33.617  37.907  1.00  0.00     0.200 A 
ATOM     81  F   UNL A   1      37.295  31.887  38.680  1.00  0.00    -0.200 F 
ATOM     82  F   UNL A   1      38.402  34.363  38.978  1.00  0.00    -0.200 F 
ENDBRANCH  44  72
BRANCH  59  83
ATOM     83  C   UNL A   1      44.867  27.917  34.473  1.00  0.00     0.064 A 
ATOM     84  C   UNL A   1      46.041  28.681  34.380  1.00  0.00     0.173 A 
ATOM     85  C   UNL A   1      44.878  26.790  35.306  1.00  0.00     0.173 A 
ATOM     86  F   UNL A   1      46.080  29.766  33.592  1.00  0.00    -0.203 F 
ATOM     87  C   UNL A   1      47.185  28.321  35.085  1.00  0.00     0.198 A 
ATOM     88  C   UNL A   1      46.017  26.447  36.029  1.00  0.00     0.198 A 
ATOM     89  F   UNL A   1      43.774  26.038  35.439  1.00  0.00    -0.203 F 
ATOM     90  F   UNL A   1      48.302  29.050  34.962  1.00  0.00    -0.200 F 
ATOM     91  C   UNL A   1      47.172  27.207  35.911  1.00  0.00     0.200 A 
ATOM     92  F   UNL A   1      45.996  25.384  36.845  1.00  0.00    -0.200 F 
ATOM     93  F   UNL A   1      48.270  26.869  36.600  1.00  0.00    -0.200 F 
ENDBRANCH  59  83
ENDBRANCH  24  27
ENDBRANCH  15  17
ENDBRANCH  10  13
ENDBRANCH   7  10
ENDBRANCH   4   7
ENDBRANCH   1   4
BRANCH   1  94
ATOM     94  C   UNL A   1      30.273  25.956  25.838  1.00  0.00    -0.036 C 
ATOM     95  H   UNL A   1      29.646  26.818  25.936  1.00  0.00     0.028 H 
ATOM     96  H   UNL A   1      29.925  25.106  26.386  1.00  0.00     0.028 H 
BRANCH  94  97
ATOM     97  C   UNL A   1      30.275  25.539  24.374  1.00  0.00     0.017 C 
ATOM     98  H   UNL A   1      29.563  24.751  24.240  1.00  0.00     0.049 H 
ATOM     99  H   UNL A   1      31.265  25.217  24.128  1.00  0.00     0.049 H 
BRANCH  97 100
ATOM    100  N   UNL A   1      29.932  26.630  23.491  1.00  0.00    -0.354 N 
ATOM    101  C   UNL A   1      30.703  27.363  22.644  1.00  0.00     0.244 C 
ATOM    102  H   UNL A   1      28.982  26.886  23.506  1.00  0.00     0.163 HD
ATOM    103  O   UNL A   1      30.140  28.282  22.042  1.00  0.00    -0.273 OA
BRANCH 101 104
ATOM    104  C   UNL A   1      32.216  27.135  22.494  1.00  0.00     0.131 C 
ATOM    105  H   UNL A   1      32.517  26.533  23.325  1.00  0.00     0.066 H 
BRANCH 104 106
ATOM    106  N   UNL A   1      32.483  26.418  21.246  1.00  0.00    -0.340 N 
ATOM    107  C   UNL A   1      32.738  25.111  20.966  1.00  0.00     0.243 C 
ATOM    108  H   UNL A   1      32.477  26.998  20.450  1.00  0.00     0.164 HD
ATOM    109  O   UNL A   1      32.954  24.887  19.769  1.00  0.00    -0.273 OA
BRANCH 107 110
ATOM    110  C   UNL A   1      32.984  24.022  22.046  1.00  0.00     0.112 C 
ATOM    111  H   UNL A   1      32.519  24.439  22.914  1.00  0.00     0.064 H 
BRANCH 110 112
ATOM    112  N   UNL A   1      32.289  22.743  21.904  1.00  0.00    -0.340 N 
ATOM    113  C   UNL A   1      32.234  21.600  22.658  1.00  0.00     0.251 C 
ATOM    114  H   UNL A   1      31.738  22.692  21.088  1.00  0.00     0.164 HD
ATOM    115  O   UNL A   1      31.775  20.595  22.112  1.00  0.00    -0.269 OA
BRANCH 113 116
ATOM    116  C   UNL A   1      32.637  21.497  24.095  1.00  0.00     0.040 A 
ATOM    117  C   UNL A   1      33.661  20.676  24.584  1.00  0.00    -0.047 A 
ATOM    118  C   UNL A   1      32.037  22.406  24.987  1.00  0.00    -0.047 A 
ATOM    119  C   UNL A   1      34.072  20.757  25.920  1.00  0.00    -0.026 A 
ATOM    120  H   UNL A   1      34.118  20.002  23.951  1.00  0.00     0.063 H 
ATOM    121  C   UNL A   1      32.449  22.491  26.320  1.00  0.00    -0.026 A 
ATOM    122  H   UNL A   1      31.280  23.021  24.650  1.00  0.00     0.063 H 
ATOM    123  C   UNL A   1      33.467  21.666  26.774  1.00  0.00     0.123 A 
ATOM    124  H   UNL A   1      34.824  20.141  26.267  1.00  0.00     0.065 H 
ATOM    125  H   UNL A   1      31.998  23.163  26.962  1.00  0.00     0.065 H 
ATOM    126  F   UNL A   1      33.884  21.761  28.042  1.00  0.00    -0.207 F 
ENDBRANCH 113 116
ENDBRANCH 110 112
BRANCH 110 127
ATOM    127  C   UNL A   1      34.497  23.814  22.279  1.00  0.00     0.004 C 
ATOM    128  H   UNL A   1      35.004  24.516  21.651  1.00  0.00     0.034 H 
ATOM    129  H   UNL A   1      34.634  22.773  22.072  1.00  0.00     0.034 H 
BRANCH 127 130
ATOM    130  C   UNL A   1      35.084  23.968  23.663  1.00  0.00    -0.020 A 
ATOM    131  C   UNL A   1      34.633  24.943  24.539  1.00  0.00     0.005 A 
ATOM    132  C   UNL A   1      36.150  23.278  24.347  1.00  0.00     0.003 A 
ATOM    133  N   UNL A   1      35.351  24.871  25.696  1.00  0.00    -0.361 N 
ATOM    134  H   UNL A   1      33.875  25.617  24.346  1.00  0.00     0.082 H 
ATOM    135  C   UNL A   1      36.281  23.866  25.611  1.00  0.00     0.046 A 
ATOM    136  C   UNL A   1      37.026  22.212  24.047  1.00  0.00    -0.053 A 
ATOM    137  H   UNL A   1      35.220  25.454  26.478  1.00  0.00     0.166 HD
ATOM    138  C   UNL A   1      37.219  23.449  26.565  1.00  0.00    -0.038 A 
ATOM    139  C   UNL A   1      37.965  21.774  24.991  1.00  0.00    -0.062 A 
ATOM    140  H   UNL A   1      36.976  21.752  23.124  1.00  0.00     0.063 H 
ATOM    141  C   UNL A   1      38.060  22.387  26.234  1.00  0.00    -0.060 A 
ATOM    142  H   UNL A   1      37.285  23.913  27.485  1.00  0.00     0.064 H 
ATOM    143  H   UNL A   1      38.593  20.988  24.761  1.00  0.00     0.062 H 
ATOM    144  H   UNL A   1      38.757  22.054  26.917  1.00  0.00     0.062 H 
ENDBRANCH 127 130
ENDBRANCH 110 127
ENDBRANCH 107 110
ENDBRANCH 104 106
BRANCH 104 145
ATOM    145  C   UNL A   1      33.077  28.401  22.634  1.00  0.00     0.072 C 
ATOM    146  H   UNL A   1      33.660  28.519  21.744  1.00  0.00     0.059 H 
ATOM    147  H   UNL A   1      33.697  28.280  23.497  1.00  0.00     0.059 H 
BRANCH 145 148
ATOM    148  O   UNL A   1      32.292  29.573  22.824  1.00  0.00    -0.394 OA
ATOM    149  H   UNL A   1      32.326  30.119  22.024  1.00  0.00     0.210 HD
ENDBRANCH 145 148
ENDBRANCH 104 145
ENDBRANCH 101 104
ENDBRANCH  97 100
ENDBRANCH  94  97
ENDBRANCH   1  94
TORSDOF 21
ENDMDL
MODEL 5
REMARK VINA RESULT:     -11.8      4.524     10.066
REMARK SMILES O=C(NCCCCCCNC(=O)[C@H](CO)NC(=O)[C@H](Cc1c[nH]c2ccccc12)NC(=O)c1ccc(F)cc1)c1ccc(-c2c3nc(c(-c4c(F)c(F)c(F)c(F)c4F)c4ccc([nH]4)c(-c4c(F)c(F)c(F)c(F)c4F)c4nc(c(-c5c(F)c(F)c(F)c(F)c5F)c5ccc2[nH]5)C=C4)C=C3)cc1
REMARK SMILES IDX 7 1 6 4 5 7 4 10 3 13 1 14 2 15 40 17 41 18 102 19 42 20
REMARK SMILES IDX 101 22 43 24 44 27 45 28 95 29 46 30 100 31 94 32 96 33
REMARK SMILES IDX 47 34 99 35 93 37 92 39 48 41 80 44 60 45 79 46 61 47 64 48
REMARK SMILES IDX 78 49 97 50 62 51 63 53 77 55 98 56 65 59 49 61 50 62 58 63
REMARK SMILES IDX 51 64 52 65 56 66 59 67 53 68 54 69 57 70 55 71 81 72 82 73
REMARK SMILES IDX 90 74 83 75 84 76 88 77 91 78 85 79 86 80 89 81 87 82 66 83
REMARK SMILES IDX 67 84 75 85 68 86 69 87 73 88 76 89 70 90 71 91 74 92 72 93
REMARK SMILES IDX 8 94 9 97 10 100 11 101 12 103 13 104 16 106 17 107 18 109
REMARK SMILES IDX 19 110 30 112 31 113 32 115 33 116 34 117 39 118 35 119
REMARK SMILES IDX 38 121 36 123 37 126 20 127 21 130 22 131 29 132 23 133
REMARK SMILES IDX 24 135 28 136 25 138 27 139 26 141 14 145 15 148
REMARK H PARENT 7 2 7 3 6 5 6 6 5 8 5 9 4 11 4 12 3 16 41 21 102 23 42 25
REMARK H PARENT 101 26 100 36 94 38 96 40 99 42 93 43 61 52 64 54 97 57 62 58
REMARK H PARENT 98 60 8 95 8 96 9 98 9 99 10 102 13 105 16 108 19 111 30 114
REMARK H PARENT 34 120 39 122 35 124 38 125 20 128 20 129 22 134 23 137 28 140
REMARK H PARENT 25 142 27 143 26 144 14 146 14 147 15 149
REMARK Flexibility Score: inf
ROOT
ATOM      1  C   UNL A   1      36.549  22.057  24.282  1.00  0.00    -0.052 C 
ATOM      2  H   UNL A   1      36.416  21.827  23.245  1.00  0.00     0.027 H 
ATOM      3  H   UNL A   1      37.441  22.603  24.506  1.00  0.00     0.027 H 
ENDROOT
BRANCH   1   4
ATOM      4  C   UNL A   1      36.686  20.731  25.037  1.00  0.00    -0.052 C 
ATOM      5  H   UNL A   1      36.614  20.942  26.083  1.00  0.00     0.027 H 
ATOM      6  H   UNL A   1      35.905  20.105  24.658  1.00  0.00     0.027 H 
BRANCH   4   7
ATOM      7  C   UNL A   1      37.979  19.954  24.806  1.00  0.00    -0.036 C 
ATOM      8  H   UNL A   1      37.748  18.910  24.853  1.00  0.00     0.028 H 
ATOM      9  H   UNL A   1      38.346  20.275  23.854  1.00  0.00     0.028 H 
BRANCH   7  10
ATOM     10  C   UNL A   1      39.104  20.227  25.795  1.00  0.00     0.018 C 
ATOM     11  H   UNL A   1      39.575  21.149  25.525  1.00  0.00     0.049 H 
ATOM     12  H   UNL A   1      38.661  20.263  26.767  1.00  0.00     0.049 H 
BRANCH  10  13
ATOM     13  N   UNL A   1      40.118  19.189  25.829  1.00  0.00    -0.352 N 
ATOM     14  O   UNL A   1      42.204  18.337  26.006  1.00  0.00    -0.269 OA
ATOM     15  C   UNL A   1      41.462  19.311  26.090  1.00  0.00     0.251 C 
ATOM     16  H   UNL A   1      39.801  18.276  25.639  1.00  0.00     0.163 HD
BRANCH  15  17
ATOM     17  C   UNL A   1      42.020  20.638  26.428  1.00  0.00     0.039 A 
ATOM     18  C   UNL A   1      42.279  20.988  27.755  1.00  0.00    -0.049 A 
ATOM     19  C   UNL A   1      42.254  21.555  25.400  1.00  0.00    -0.049 A 
ATOM     20  C   UNL A   1      42.621  22.299  28.065  1.00  0.00    -0.053 A 
ATOM     21  H   UNL A   1      42.217  20.277  28.501  1.00  0.00     0.063 H 
ATOM     22  C   UNL A   1      42.683  22.848  25.708  1.00  0.00    -0.053 A 
ATOM     23  H   UNL A   1      42.111  21.277  24.416  1.00  0.00     0.063 H 
ATOM     24  C   UNL A   1      42.831  23.243  27.045  1.00  0.00    -0.014 A 
ATOM     25  H   UNL A   1      42.720  22.581  29.053  1.00  0.00     0.063 H 
ATOM     26  H   UNL A   1      42.891  23.516  24.948  1.00  0.00     0.063 H 
BRANCH  24  27
ATOM     27  C   UNL A   1      43.247  24.621  27.409  1.00  0.00     0.031 A 
ATOM     28  C   UNL A   1      44.636  25.118  27.125  1.00  0.00     0.074 A 
ATOM     29  C   UNL A   1      42.334  25.444  27.960  1.00  0.00     0.049 A 
ATOM     30  N   UNL A   1      45.146  26.304  27.342  1.00  0.00    -0.248 NA
ATOM     31  C   UNL A   1      45.580  24.160  26.528  1.00  0.00    -0.034 C 
ATOM     32  C   UNL A   1      40.958  25.069  28.289  1.00  0.00    -0.036 A 
ATOM     33  N   UNL A   1      42.412  26.768  28.312  1.00  0.00    -0.354 N 
ATOM     34  C   UNL A   1      46.469  26.233  26.925  1.00  0.00     0.074 A 
ATOM     35  C   UNL A   1      46.693  24.879  26.464  1.00  0.00    -0.034 C 
ATOM     36  H   UNL A   1      45.417  23.185  26.234  1.00  0.00     0.065 H 
ATOM     37  C   UNL A   1      40.303  26.149  28.734  1.00  0.00    -0.036 A 
ATOM     38  H   UNL A   1      40.557  24.123  28.192  1.00  0.00     0.065 H 
ATOM     39  C   UNL A   1      41.227  27.278  28.779  1.00  0.00     0.049 A 
ATOM     40  H   UNL A   1      43.237  27.299  28.237  1.00  0.00     0.167 HD
ATOM     41  C   UNL A   1      47.405  27.213  26.919  1.00  0.00     0.037 A 
ATOM     42  H   UNL A   1      47.601  24.520  26.132  1.00  0.00     0.065 H 
ATOM     43  H   UNL A   1      39.307  26.179  29.003  1.00  0.00     0.065 H 
ATOM     44  C   UNL A   1      40.915  28.517  29.201  1.00  0.00     0.037 A 
ATOM     45  C   UNL A   1      47.171  28.563  27.363  1.00  0.00     0.049 A 
ATOM     46  C   UNL A   1      41.971  29.582  29.190  1.00  0.00     0.074 A 
ATOM     47  C   UNL A   1      48.053  29.630  27.382  1.00  0.00    -0.036 A 
ATOM     48  N   UNL A   1      45.966  29.034  27.863  1.00  0.00    -0.354 N 
ATOM     49  N   UNL A   1      43.216  29.502  28.787  1.00  0.00    -0.248 NA
ATOM     50  C   UNL A   1      41.584  30.905  29.694  1.00  0.00    -0.034 C 
ATOM     51  C   UNL A   1      47.393  30.736  27.928  1.00  0.00    -0.036 A 
ATOM     52  H   UNL A   1      49.030  29.613  27.050  1.00  0.00     0.065 H 
ATOM     53  C   UNL A   1      46.086  30.372  28.207  1.00  0.00     0.049 A 
ATOM     54  H   UNL A   1      45.146  28.498  27.961  1.00  0.00     0.167 HD
ATOM     55  C   UNL A   1      43.761  30.762  28.984  1.00  0.00     0.074 A 
ATOM     56  C   UNL A   1      42.704  31.595  29.521  1.00  0.00    -0.034 C 
ATOM     57  H   UNL A   1      40.680  31.216  30.082  1.00  0.00     0.065 H 
ATOM     58  H   UNL A   1      47.810  31.666  28.094  1.00  0.00     0.065 H 
ATOM     59  C   UNL A   1      45.025  31.186  28.745  1.00  0.00     0.037 A 
ATOM     60  H   UNL A   1      42.809  32.598  29.741  1.00  0.00     0.065 H 
BRANCH  41  61
ATOM     61  C   UNL A   1      48.778  26.865  26.423  1.00  0.00     0.064 A 
ATOM     62  C   UNL A   1      49.108  27.025  25.068  1.00  0.00     0.173 A 
ATOM     63  C   UNL A   1      49.748  26.312  27.272  1.00  0.00     0.173 A 
ATOM     64  F   UNL A   1      48.213  27.542  24.211  1.00  0.00    -0.203 F 
ATOM     65  C   UNL A   1      50.353  26.638  24.582  1.00  0.00     0.198 A 
ATOM     66  C   UNL A   1      51.002  25.950  26.788  1.00  0.00     0.198 A 
ATOM     67  F   UNL A   1      49.487  26.150  28.578  1.00  0.00    -0.203 F 
ATOM     68  F   UNL A   1      50.636  26.776  23.279  1.00  0.00    -0.200 F 
ATOM     69  C   UNL A   1      51.301  26.105  25.442  1.00  0.00     0.200 A 
ATOM     70  F   UNL A   1      51.925  25.456  27.625  1.00  0.00    -0.200 F 
ATOM     71  F   UNL A   1      52.505  25.743  24.975  1.00  0.00    -0.200 F 
ENDBRANCH  41  61
BRANCH  44  72
ATOM     72  C   UNL A   1      39.527  28.802  29.643  1.00  0.00     0.064 A 
ATOM     73  C   UNL A   1      38.591  29.380  28.773  1.00  0.00     0.173 A 
ATOM     74  C   UNL A   1      39.135  28.565  30.966  1.00  0.00     0.173 A 
ATOM     75  F   UNL A   1      38.926  29.634  27.500  1.00  0.00    -0.203 F 
ATOM     76  C   UNL A   1      37.322  29.738  29.221  1.00  0.00     0.198 A 
ATOM     77  C   UNL A   1      37.855  28.901  31.405  1.00  0.00     0.198 A 
ATOM     78  F   UNL A   1      39.993  28.000  31.829  1.00  0.00    -0.203 F 
ATOM     79  F   UNL A   1      36.462  30.333  28.382  1.00  0.00    -0.200 F 
ATOM     80  C   UNL A   1      36.955  29.497  30.535  1.00  0.00     0.200 A 
ATOM     81  F   UNL A   1      37.498  28.650  32.672  1.00  0.00    -0.200 F 
ATOM     82  F   UNL A   1      35.734  29.842  30.965  1.00  0.00    -0.200 F 
ENDBRANCH  44  72
BRANCH  59  83
ATOM     83  C   UNL A   1      45.339  32.619  29.053  1.00  0.00     0.064 A 
ATOM     84  C   UNL A   1      45.155  33.613  28.079  1.00  0.00     0.173 A 
ATOM     85  C   UNL A   1      45.873  33.001  30.291  1.00  0.00     0.173 A 
ATOM     86  F   UNL A   1      44.651  33.296  26.877  1.00  0.00    -0.203 F 
ATOM     87  C   UNL A   1      45.504  34.936  28.333  1.00  0.00     0.198 A 
ATOM     88  C   UNL A   1      46.198  34.329  30.551  1.00  0.00     0.198 A 
ATOM     89  F   UNL A   1      46.054  32.088  31.258  1.00  0.00    -0.203 F 
ATOM     90  F   UNL A   1      45.342  35.864  27.381  1.00  0.00    -0.200 F 
ATOM     91  C   UNL A   1      46.022  35.294  29.569  1.00  0.00     0.200 A 
ATOM     92  F   UNL A   1      46.677  34.678  31.753  1.00  0.00    -0.200 F 
ATOM     93  F   UNL A   1      46.345  36.570  29.817  1.00  0.00    -0.200 F 
ENDBRANCH  59  83
ENDBRANCH  24  27
ENDBRANCH  15  17
ENDBRANCH  10  13
ENDBRANCH   7  10
ENDBRANCH   4   7
ENDBRANCH   1   4
BRANCH   1  94
ATOM     94  C   UNL A   1      35.396  22.971  24.709  1.00  0.00    -0.036 C 
ATOM     95  H   UNL A   1      35.766  23.975  24.743  1.00  0.00     0.028 H 
ATOM     96  H   UNL A   1      35.064  22.602  25.657  1.00  0.00     0.028 H 
BRANCH  94  97
ATOM     97  C   UNL A   1      34.173  22.953  23.801  1.00  0.00     0.017 C 
ATOM     98  H   UNL A   1      34.494  22.774  22.796  1.00  0.00     0.049 H 
ATOM     99  H   UNL A   1      33.685  23.901  23.892  1.00  0.00     0.049 H 
BRANCH  97 100
ATOM    100  N   UNL A   1      33.226  21.929  24.176  1.00  0.00    -0.354 N 
ATOM    101  C   UNL A   1      32.472  21.783  25.299  1.00  0.00     0.244 C 
ATOM    102  H   UNL A   1      33.105  21.217  23.507  1.00  0.00     0.163 HD
ATOM    103  O   UNL A   1      31.778  20.766  25.369  1.00  0.00    -0.273 OA
BRANCH 101 104
ATOM    104  C   UNL A   1      32.535  22.775  26.472  1.00  0.00     0.131 C 
ATOM    105  H   UNL A   1      33.128  23.602  26.141  1.00  0.00     0.066 H 
BRANCH 104 106
ATOM    106  N   UNL A   1      31.184  23.238  26.795  1.00  0.00    -0.340 N 
ATOM    107  C   UNL A   1      30.462  24.327  26.412  1.00  0.00     0.243 C 
ATOM    108  H   UNL A   1      30.701  22.643  27.413  1.00  0.00     0.164 HD
ATOM    109  O   UNL A   1      29.343  24.397  26.934  1.00  0.00    -0.273 OA
BRANCH 107 110
ATOM    110  C   UNL A   1      31.043  25.512  25.592  1.00  0.00     0.112 C 
ATOM    111  H   UNL A   1      30.729  26.366  26.155  1.00  0.00     0.064 H 
BRANCH 110 112
ATOM    112  N   UNL A   1      32.496  25.678  25.558  1.00  0.00    -0.340 N 
ATOM    113  C   UNL A   1      33.331  26.762  25.629  1.00  0.00     0.251 C 
ATOM    114  H   UNL A   1      32.979  24.825  25.466  1.00  0.00     0.164 HD
ATOM    115  O   UNL A   1      34.502  26.585  25.286  1.00  0.00    -0.269 OA
BRANCH 113 116
ATOM    116  C   UNL A   1      32.945  28.115  26.137  1.00  0.00     0.040 A 
ATOM    117  C   UNL A   1      33.540  28.763  27.227  1.00  0.00    -0.047 A 
ATOM    118  C   UNL A   1      32.020  28.840  25.363  1.00  0.00    -0.047 A 
ATOM    119  C   UNL A   1      33.222  30.090  27.536  1.00  0.00    -0.026 A 
ATOM    120  H   UNL A   1      34.223  28.254  27.810  1.00  0.00     0.063 H 
ATOM    121  C   UNL A   1      31.703  30.168  25.667  1.00  0.00    -0.026 A 
ATOM    122  H   UNL A   1      31.568  28.385  24.555  1.00  0.00     0.063 H 
ATOM    123  C   UNL A   1      32.311  30.782  26.752  1.00  0.00     0.123 A 
ATOM    124  H   UNL A   1      33.664  30.553  28.346  1.00  0.00     0.065 H 
ATOM    125  H   UNL A   1      31.021  30.686  25.090  1.00  0.00     0.065 H 
ATOM    126  F   UNL A   1      32.032  32.060  27.034  1.00  0.00    -0.207 F 
ENDBRANCH 113 116
ENDBRANCH 110 112
BRANCH 110 127
ATOM    127  C   UNL A   1      30.443  25.539  24.169  1.00  0.00     0.004 C 
ATOM    128  H   UNL A   1      30.026  24.570  23.993  1.00  0.00     0.034 H 
ATOM    129  H   UNL A   1      31.271  25.840  23.561  1.00  0.00     0.034 H 
BRANCH 127 130
ATOM    130  C   UNL A   1      29.372  26.544  23.811  1.00  0.00    -0.020 A 
ATOM    131  C   UNL A   1      28.042  26.335  24.138  1.00  0.00     0.005 A 
ATOM    132  C   UNL A   1      29.416  27.796  23.096  1.00  0.00     0.003 A 
ATOM    133  N   UNL A   1      27.298  27.379  23.676  1.00  0.00    -0.361 N 
ATOM    134  H   UNL A   1      27.672  25.517  24.650  1.00  0.00     0.082 H 
ATOM    135  C   UNL A   1      28.106  28.286  23.038  1.00  0.00     0.046 A 
ATOM    136  C   UNL A   1      30.419  28.583  22.488  1.00  0.00    -0.053 A 
ATOM    137  H   UNL A   1      26.324  27.470  23.785  1.00  0.00     0.166 HD
ATOM    138  C   UNL A   1      27.759  29.496  22.421  1.00  0.00    -0.038 A 
ATOM    139  C   UNL A   1      30.094  29.800  21.874  1.00  0.00    -0.062 A 
ATOM    140  H   UNL A   1      31.399  28.259  22.496  1.00  0.00     0.063 H 
ATOM    141  C   UNL A   1      28.780  30.249  21.841  1.00  0.00    -0.060 A 
ATOM    142  H   UNL A   1      26.779  29.820  22.397  1.00  0.00     0.064 H 
ATOM    143  H   UNL A   1      30.838  30.369  21.442  1.00  0.00     0.062 H 
ATOM    144  H   UNL A   1      28.557  31.146  21.383  1.00  0.00     0.062 H 
ENDBRANCH 127 130
ENDBRANCH 110 127
ENDBRANCH 107 110
ENDBRANCH 104 106
BRANCH 104 145
ATOM    145  C   UNL A   1      33.286  22.264  27.711  1.00  0.00     0.072 C 
ATOM    146  H   UNL A   1      32.570  21.991  28.458  1.00  0.00     0.059 H 
ATOM    147  H   UNL A   1      33.928  23.050  28.050  1.00  0.00     0.059 H 
BRANCH 145 148
ATOM    148  O   UNL A   1      34.101  21.133  27.424  1.00  0.00    -0.394 OA
ATOM    149  H   UNL A   1      35.017  21.321  27.678  1.00  0.00     0.210 HD
ENDBRANCH 145 148
ENDBRANCH 104 145
ENDBRANCH 101 104
ENDBRANCH  97 100
ENDBRANCH  94  97
ENDBRANCH   1  94
TORSDOF 21
ENDMDL
MODEL 6
REMARK VINA RESULT:     -11.8      2.450      4.243
REMARK SMILES O=C(NCCCCCCNC(=O)[C@H](CO)NC(=O)[C@H](Cc1c[nH]c2ccccc12)NC(=O)c1ccc(F)cc1)c1ccc(-c2c3nc(c(-c4c(F)c(F)c(F)c(F)c4F)c4ccc([nH]4)c(-c4c(F)c(F)c(F)c(F)c4F)c4nc(c(-c5c(F)c(F)c(F)c(F)c5F)c5ccc2[nH]5)C=C4)C=C3)cc1
REMARK SMILES IDX 7 1 6 4 5 7 4 10 3 13 1 14 2 15 40 17 41 18 102 19 42 20
REMARK SMILES IDX 101 22 43 24 44 27 45 28 95 29 46 30 100 31 94 32 96 33
REMARK SMILES IDX 47 34 99 35 93 37 92 39 48 41 80 44 60 45 79 46 61 47 64 48
REMARK SMILES IDX 78 49 97 50 62 51 63 53 77 55 98 56 65 59 49 61 50 62 58 63
REMARK SMILES IDX 51 64 52 65 56 66 59 67 53 68 54 69 57 70 55 71 81 72 82 73
REMARK SMILES IDX 90 74 83 75 84 76 88 77 91 78 85 79 86 80 89 81 87 82 66 83
REMARK SMILES IDX 67 84 75 85 68 86 69 87 73 88 76 89 70 90 71 91 74 92 72 93
REMARK SMILES IDX 8 94 9 97 10 100 11 101 12 103 13 104 16 106 17 107 18 109
REMARK SMILES IDX 19 110 30 112 31 113 32 115 33 116 34 117 39 118 35 119
REMARK SMILES IDX 38 121 36 123 37 126 20 127 21 130 22 131 29 132 23 133
REMARK SMILES IDX 24 135 28 136 25 138 27 139 26 141 14 145 15 148
REMARK H PARENT 7 2 7 3 6 5 6 6 5 8 5 9 4 11 4 12 3 16 41 21 102 23 42 25
REMARK H PARENT 101 26 100 36 94 38 96 40 99 42 93 43 61 52 64 54 97 57 62 58
REMARK H PARENT 98 60 8 95 8 96 9 98 9 99 10 102 13 105 16 108 19 111 30 114
REMARK H PARENT 34 120 39 122 35 124 38 125 20 128 20 129 22 134 23 137 28 140
REMARK H PARENT 25 142 27 143 26 144 14 146 14 147 15 149
REMARK Flexibility Score: inf
ROOT
ATOM      1  C   UNL A   1      35.475  32.939  28.013  1.00  0.00    -0.052 C 
ATOM      2  H   UNL A   1      36.521  33.093  27.846  1.00  0.00     0.027 H 
ATOM      3  H   UNL A   1      34.850  33.196  27.184  1.00  0.00     0.027 H 
ENDROOT
BRANCH   1   4
ATOM      4  C   UNL A   1      35.044  33.871  29.149  1.00  0.00    -0.052 C 
ATOM      5  H   UNL A   1      35.094  33.317  30.063  1.00  0.00     0.027 H 
ATOM      6  H   UNL A   1      35.712  34.706  29.102  1.00  0.00     0.027 H 
BRANCH   4   7
ATOM      7  C   UNL A   1      33.641  34.464  29.039  1.00  0.00    -0.036 C 
ATOM      8  H   UNL A   1      33.358  34.448  28.008  1.00  0.00     0.028 H 
ATOM      9  H   UNL A   1      33.021  33.861  29.670  1.00  0.00     0.028 H 
BRANCH   7  10
ATOM     10  C   UNL A   1      33.481  35.891  29.545  1.00  0.00     0.018 C 
ATOM     11  H   UNL A   1      34.426  36.225  29.917  1.00  0.00     0.049 H 
ATOM     12  H   UNL A   1      33.134  36.476  28.720  1.00  0.00     0.049 H 
BRANCH  10  13
ATOM     13  N   UNL A   1      32.498  36.029  30.604  1.00  0.00    -0.352 N 
ATOM     14  O   UNL A   1      31.628  35.745  32.670  1.00  0.00    -0.269 OA
ATOM     15  C   UNL A   1      32.585  35.618  31.913  1.00  0.00     0.251 C 
ATOM     16  H   UNL A   1      31.658  36.474  30.351  1.00  0.00     0.163 HD
BRANCH  15  17
ATOM     17  C   UNL A   1      33.828  34.978  32.394  1.00  0.00     0.039 A 
ATOM     18  C   UNL A   1      35.035  35.680  32.409  1.00  0.00    -0.049 A 
ATOM     19  C   UNL A   1      33.786  33.642  32.804  1.00  0.00    -0.049 A 
ATOM     20  C   UNL A   1      36.220  35.005  32.683  1.00  0.00    -0.053 A 
ATOM     21  H   UNL A   1      35.048  36.694  32.219  1.00  0.00     0.063 H 
ATOM     22  C   UNL A   1      34.967  32.989  33.163  1.00  0.00    -0.053 A 
ATOM     23  H   UNL A   1      32.884  33.141  32.840  1.00  0.00     0.063 H 
ATOM     24  C   UNL A   1      36.199  33.653  33.067  1.00  0.00    -0.014 A 
ATOM     25  H   UNL A   1      37.121  35.501  32.602  1.00  0.00     0.063 H 
ATOM     26  H   UNL A   1      34.934  32.013  33.499  1.00  0.00     0.063 H 
BRANCH  24  27
ATOM     27  C   UNL A   1      37.477  32.976  33.403  1.00  0.00     0.031 A 
ATOM     28  C   UNL A   1      38.171  33.224  34.712  1.00  0.00     0.074 A 
ATOM     29  C   UNL A   1      37.986  32.090  32.526  1.00  0.00     0.049 A 
ATOM     30  N   UNL A   1      39.270  32.684  35.177  1.00  0.00    -0.248 NA
ATOM     31  C   UNL A   1      37.560  34.210  35.617  1.00  0.00    -0.034 C 
ATOM     32  C   UNL A   1      37.403  31.776  31.220  1.00  0.00    -0.036 A 
ATOM     33  N   UNL A   1      39.084  31.272  32.607  1.00  0.00    -0.354 N 
ATOM     34  C   UNL A   1      39.491  33.273  36.415  1.00  0.00     0.074 A 
ATOM     35  C   UNL A   1      38.425  34.231  36.622  1.00  0.00    -0.034 C 
ATOM     36  H   UNL A   1      36.684  34.744  35.501  1.00  0.00     0.065 H 
ATOM     37  C   UNL A   1      38.110  30.790  30.650  1.00  0.00    -0.036 A 
ATOM     38  H   UNL A   1      36.580  32.239  30.805  1.00  0.00     0.065 H 
ATOM     39  C   UNL A   1      39.229  30.445  31.522  1.00  0.00     0.049 A 
ATOM     40  H   UNL A   1      39.706  31.278  33.369  1.00  0.00     0.167 HD
ATOM     41  C   UNL A   1      40.487  33.026  37.300  1.00  0.00     0.037 A 
ATOM     42  H   UNL A   1      38.351  34.850  37.443  1.00  0.00     0.065 H 
ATOM     43  H   UNL A   1      37.899  30.348  29.742  1.00  0.00     0.065 H 
ATOM     44  C   UNL A   1      40.160  29.512  31.253  1.00  0.00     0.037 A 
ATOM     45  C   UNL A   1      41.535  32.059  37.095  1.00  0.00     0.049 A 
ATOM     46  C   UNL A   1      41.256  29.263  32.246  1.00  0.00     0.074 A 
ATOM     47  C   UNL A   1      42.580  31.728  37.941  1.00  0.00    -0.036 A 
ATOM     48  N   UNL A   1      41.668  31.264  35.967  1.00  0.00    -0.354 N 
ATOM     49  N   UNL A   1      41.449  29.822  33.416  1.00  0.00    -0.248 NA
ATOM     50  C   UNL A   1      42.264  28.259  31.884  1.00  0.00    -0.034 C 
ATOM     51  C   UNL A   1      43.367  30.760  37.308  1.00  0.00    -0.036 A 
ATOM     52  H   UNL A   1      42.750  32.127  38.877  1.00  0.00     0.065 H 
ATOM     53  C   UNL A   1      42.787  30.454  36.087  1.00  0.00     0.049 A 
ATOM     54  H   UNL A   1      41.060  31.274  35.192  1.00  0.00     0.167 HD
ATOM     55  C   UNL A   1      42.595  29.237  33.932  1.00  0.00     0.074 A 
ATOM     56  C   UNL A   1      43.042  28.262  32.959  1.00  0.00    -0.034 C 
ATOM     57  H   UNL A   1      42.346  27.699  31.021  1.00  0.00     0.065 H 
ATOM     58  H   UNL A   1      44.233  30.344  37.687  1.00  0.00     0.065 H 
ATOM     59  C   UNL A   1      43.221  29.491  35.107  1.00  0.00     0.037 A 
ATOM     60  H   UNL A   1      43.862  27.648  33.085  1.00  0.00     0.065 H 
BRANCH  41  61
ATOM     61  C   UNL A   1      40.501  33.819  38.574  1.00  0.00     0.064 A 
ATOM     62  C   UNL A   1      41.325  34.949  38.701  1.00  0.00     0.173 A 
ATOM     63  C   UNL A   1      39.751  33.426  39.692  1.00  0.00     0.173 A 
ATOM     64  F   UNL A   1      42.069  35.362  37.663  1.00  0.00    -0.203 F 
ATOM     65  C   UNL A   1      41.402  35.650  39.900  1.00  0.00     0.198 A 
ATOM     66  C   UNL A   1      39.812  34.145  40.884  1.00  0.00     0.198 A 
ATOM     67  F   UNL A   1      38.940  32.361  39.620  1.00  0.00    -0.203 F 
ATOM     68  F   UNL A   1      42.215  36.710  40.005  1.00  0.00    -0.200 F 
ATOM     69  C   UNL A   1      40.642  35.251  40.990  1.00  0.00     0.200 A 
ATOM     70  F   UNL A   1      39.060  33.772  41.928  1.00  0.00    -0.200 F 
ATOM     71  F   UNL A   1      40.708  35.934  42.142  1.00  0.00    -0.200 F 
ENDBRANCH  41  61
BRANCH  44  72
ATOM     72  C   UNL A   1      40.064  28.738  29.990  1.00  0.00     0.064 A 
ATOM     73  C   UNL A   1      39.444  27.480  29.953  1.00  0.00     0.173 A 
ATOM     74  C   UNL A   1      40.653  29.214  28.812  1.00  0.00     0.173 A 
ATOM     75  F   UNL A   1      38.876  26.980  31.060  1.00  0.00    -0.203 F 
ATOM     76  C   UNL A   1      39.445  26.714  28.790  1.00  0.00     0.198 A 
ATOM     77  C   UNL A   1      40.630  28.456  27.642  1.00  0.00     0.198 A 
ATOM     78  F   UNL A   1      41.243  30.418  28.797  1.00  0.00    -0.203 F 
ATOM     79  F   UNL A   1      38.889  25.494  28.794  1.00  0.00    -0.200 F 
ATOM     80  C   UNL A   1      40.036  27.203  27.636  1.00  0.00     0.200 A 
ATOM     81  F   UNL A   1      41.188  28.940  26.524  1.00  0.00    -0.200 F 
ATOM     82  F   UNL A   1      40.037  26.465  26.518  1.00  0.00    -0.200 F 
ENDBRANCH  44  72
BRANCH  59  83
ATOM     83  C   UNL A   1      44.456  28.698  35.413  1.00  0.00     0.064 A 
ATOM     84  C   UNL A   1      45.715  29.151  34.993  1.00  0.00     0.173 A 
ATOM     85  C   UNL A   1      44.385  27.462  36.072  1.00  0.00     0.173 A 
ATOM     86  F   UNL A   1      45.832  30.325  34.354  1.00  0.00    -0.203 F 
ATOM     87  C   UNL A   1      46.859  28.391  35.215  1.00  0.00     0.198 A 
ATOM     88  C   UNL A   1      45.536  26.715  36.313  1.00  0.00     0.198 A 
ATOM     89  F   UNL A   1      43.205  26.994  36.504  1.00  0.00    -0.203 F 
ATOM     90  F   UNL A   1      48.049  28.833  34.784  1.00  0.00    -0.200 F 
ATOM     91  C   UNL A   1      46.769  27.176  35.877  1.00  0.00     0.200 A 
ATOM     92  F   UNL A   1      45.450  25.553  36.974  1.00  0.00    -0.200 F 
ATOM     93  F   UNL A   1      47.874  26.451  36.102  1.00  0.00    -0.200 F 
ENDBRANCH  59  83
ENDBRANCH  24  27
ENDBRANCH  15  17
ENDBRANCH  10  13
ENDBRANCH   7  10
ENDBRANCH   4   7
ENDBRANCH   1   4
BRANCH   1  94
ATOM     94  C   UNL A   1      35.254  31.439  28.238  1.00  0.00    -0.036 C 
ATOM     95  H   UNL A   1      35.186  31.270  29.292  1.00  0.00     0.028 H 
ATOM     96  H   UNL A   1      36.085  30.948  27.776  1.00  0.00     0.028 H 
BRANCH  94  97
ATOM     97  C   UNL A   1      34.007  30.855  27.587  1.00  0.00     0.017 C 
ATOM     98  H   UNL A   1      33.750  31.454  26.738  1.00  0.00     0.049 H 
ATOM     99  H   UNL A   1      33.226  30.858  28.318  1.00  0.00     0.049 H 
BRANCH  97 100
ATOM    100  N   UNL A   1      34.202  29.491  27.151  1.00  0.00    -0.354 N 
ATOM    101  C   UNL A   1      33.801  28.855  26.019  1.00  0.00     0.244 C 
ATOM    102  H   UNL A   1      34.709  28.929  27.780  1.00  0.00     0.163 HD
ATOM    103  O   UNL A   1      34.069  27.653  25.937  1.00  0.00    -0.273 OA
BRANCH 101 104
ATOM    104  C   UNL A   1      32.976  29.553  24.925  1.00  0.00     0.131 C 
ATOM    105  H   UNL A   1      33.022  30.601  25.130  1.00  0.00     0.066 H 
BRANCH 104 106
ATOM    106  N   UNL A   1      33.573  29.283  23.615  1.00  0.00    -0.340 N 
ATOM    107  C   UNL A   1      33.513  28.216  22.773  1.00  0.00     0.243 C 
ATOM    108  H   UNL A   1      34.128  30.022  23.276  1.00  0.00     0.164 HD
ATOM    109  O   UNL A   1      34.194  28.345  21.748  1.00  0.00    -0.273 OA
BRANCH 107 110
ATOM    110  C   UNL A   1      32.860  26.854  23.139  1.00  0.00     0.112 C 
ATOM    111  H   UNL A   1      33.171  26.707  24.152  1.00  0.00     0.064 H 
BRANCH 110 112
ATOM    112  N   UNL A   1      31.403  26.797  23.248  1.00  0.00    -0.340 N 
ATOM    113  C   UNL A   1      30.528  25.937  23.859  1.00  0.00     0.251 C 
ATOM    114  H   UNL A   1      30.952  27.538  22.782  1.00  0.00     0.164 HD
ATOM    115  O   UNL A   1      29.345  26.016  23.521  1.00  0.00    -0.269 OA
BRANCH 113 116
ATOM    116  C   UNL A   1      30.889  24.959  24.931  1.00  0.00     0.040 A 
ATOM    117  C   UNL A   1      30.681  23.576  24.858  1.00  0.00    -0.047 A 
ATOM    118  C   UNL A   1      31.624  25.459  26.022  1.00  0.00    -0.047 A 
ATOM    119  C   UNL A   1      31.189  22.718  25.841  1.00  0.00    -0.026 A 
ATOM    120  H   UNL A   1      30.146  23.183  24.068  1.00  0.00     0.063 H 
ATOM    121  C   UNL A   1      32.136  24.605  27.004  1.00  0.00    -0.026 A 
ATOM    122  H   UNL A   1      31.790  26.475  26.099  1.00  0.00     0.063 H 
ATOM    123  C   UNL A   1      31.916  23.239  26.902  1.00  0.00     0.123 A 
ATOM    124  H   UNL A   1      31.024  21.702  25.777  1.00  0.00     0.065 H 
ATOM    125  H   UNL A   1      32.673  24.987  27.798  1.00  0.00     0.065 H 
ATOM    126  F   UNL A   1      32.424  22.413  27.823  1.00  0.00    -0.207 F 
ENDBRANCH 113 116
ENDBRANCH 110 112
BRANCH 110 127
ATOM    127  C   UNL A   1      33.398  25.728  22.229  1.00  0.00     0.004 C 
ATOM    128  H   UNL A   1      34.345  26.059  21.857  1.00  0.00     0.034 H 
ATOM    129  H   UNL A   1      32.609  25.588  21.521  1.00  0.00     0.034 H 
BRANCH 127 130
ATOM    130  C   UNL A   1      33.613  24.338  22.782  1.00  0.00    -0.020 A 
ATOM    131  C   UNL A   1      33.041  23.223  22.187  1.00  0.00     0.005 A 
ATOM    132  C   UNL A   1      34.327  23.851  23.937  1.00  0.00     0.003 A 
ATOM    133  N   UNL A   1      33.376  22.113  22.903  1.00  0.00    -0.361 N 
ATOM    134  H   UNL A   1      32.455  23.233  21.337  1.00  0.00     0.082 H 
ATOM    135  C   UNL A   1      34.160  22.462  23.974  1.00  0.00     0.046 A 
ATOM    136  C   UNL A   1      35.108  24.427  24.964  1.00  0.00    -0.053 A 
ATOM    137  H   UNL A   1      33.097  21.195  22.683  1.00  0.00     0.166 HD
ATOM    138  C   UNL A   1      34.724  21.641  24.960  1.00  0.00    -0.038 A 
ATOM    139  C   UNL A   1      35.687  23.622  25.954  1.00  0.00    -0.062 A 
ATOM    140  H   UNL A   1      35.252  25.449  24.986  1.00  0.00     0.063 H 
ATOM    141  C   UNL A   1      35.495  22.246  25.951  1.00  0.00    -0.060 A 
ATOM    142  H   UNL A   1      34.572  20.620  24.953  1.00  0.00     0.064 H 
ATOM    143  H   UNL A   1      36.262  24.055  26.693  1.00  0.00     0.062 H 
ATOM    144  H   UNL A   1      35.927  21.668  26.688  1.00  0.00     0.062 H 
ENDBRANCH 127 130
ENDBRANCH 110 127
ENDBRANCH 107 110
ENDBRANCH 104 106
BRANCH 104 145
ATOM    145  C   UNL A   1      31.471  29.243  24.953  1.00  0.00     0.072 C 
ATOM    146  H   UNL A   1      31.060  29.620  25.867  1.00  0.00     0.059 H 
ATOM    147  H   UNL A   1      31.355  28.183  24.877  1.00  0.00     0.059 H 
BRANCH 145 148
ATOM    148  O   UNL A   1      30.774  29.835  23.862  1.00  0.00    -0.394 OA
ATOM    149  H   UNL A   1      30.626  29.169  23.173  1.00  0.00     0.210 HD
ENDBRANCH 145 148
ENDBRANCH 104 145
ENDBRANCH 101 104
ENDBRANCH  97 100
ENDBRANCH  94  97
ENDBRANCH   1  94
TORSDOF 21
ENDMDL
MODEL 7
REMARK VINA RESULT:     -11.7      1.848      2.885
REMARK SMILES O=C(NCCCCCCNC(=O)[C@H](CO)NC(=O)[C@H](Cc1c[nH]c2ccccc12)NC(=O)c1ccc(F)cc1)c1ccc(-c2c3nc(c(-c4c(F)c(F)c(F)c(F)c4F)c4ccc([nH]4)c(-c4c(F)c(F)c(F)c(F)c4F)c4nc(c(-c5c(F)c(F)c(F)c(F)c5F)c5ccc2[nH]5)C=C4)C=C3)cc1
REMARK SMILES IDX 7 1 6 4 5 7 4 10 3 13 1 14 2 15 40 17 41 18 102 19 42 20
REMARK SMILES IDX 101 22 43 24 44 27 45 28 95 29 46 30 100 31 94 32 96 33
REMARK SMILES IDX 47 34 99 35 93 37 92 39 48 41 80 44 60 45 79 46 61 47 64 48
REMARK SMILES IDX 78 49 97 50 62 51 63 53 77 55 98 56 65 59 49 61 50 62 58 63
REMARK SMILES IDX 51 64 52 65 56 66 59 67 53 68 54 69 57 70 55 71 81 72 82 73
REMARK SMILES IDX 90 74 83 75 84 76 88 77 91 78 85 79 86 80 89 81 87 82 66 83
REMARK SMILES IDX 67 84 75 85 68 86 69 87 73 88 76 89 70 90 71 91 74 92 72 93
REMARK SMILES IDX 8 94 9 97 10 100 11 101 12 103 13 104 16 106 17 107 18 109
REMARK SMILES IDX 19 110 30 112 31 113 32 115 33 116 34 117 39 118 35 119
REMARK SMILES IDX 38 121 36 123 37 126 20 127 21 130 22 131 29 132 23 133
REMARK SMILES IDX 24 135 28 136 25 138 27 139 26 141 14 145 15 148
REMARK H PARENT 7 2 7 3 6 5 6 6 5 8 5 9 4 11 4 12 3 16 41 21 102 23 42 25
REMARK H PARENT 101 26 100 36 94 38 96 40 99 42 93 43 61 52 64 54 97 57 62 58
REMARK H PARENT 98 60 8 95 8 96 9 98 9 99 10 102 13 105 16 108 19 111 30 114
REMARK H PARENT 34 120 39 122 35 124 38 125 20 128 20 129 22 134 23 137 28 140
REMARK H PARENT 25 142 27 143 26 144 14 146 14 147 15 149
REMARK Flexibility Score: inf
ROOT
ATOM      1  C   UNL A   1      33.998  27.503  23.888  1.00  0.00    -0.052 C 
ATOM      2  H   UNL A   1      33.843  27.231  24.911  1.00  0.00     0.027 H 
ATOM      3  H   UNL A   1      35.018  27.691  23.627  1.00  0.00     0.027 H 
ENDROOT
BRANCH   1   4
ATOM      4  C   UNL A   1      33.268  28.828  23.645  1.00  0.00    -0.052 C 
ATOM      5  H   UNL A   1      34.009  29.588  23.505  1.00  0.00     0.027 H 
ATOM      6  H   UNL A   1      32.644  28.658  22.792  1.00  0.00     0.027 H 
BRANCH   4   7
ATOM      7  C   UNL A   1      32.327  29.293  24.753  1.00  0.00    -0.036 C 
ATOM      8  H   UNL A   1      31.751  30.112  24.373  1.00  0.00     0.028 H 
ATOM      9  H   UNL A   1      31.743  28.436  25.018  1.00  0.00     0.028 H 
BRANCH   7  10
ATOM     10  C   UNL A   1      32.993  29.752  26.043  1.00  0.00     0.018 C 
ATOM     11  H   UNL A   1      32.710  29.081  26.826  1.00  0.00     0.049 H 
ATOM     12  H   UNL A   1      34.048  29.751  25.865  1.00  0.00     0.049 H 
BRANCH  10  13
ATOM     13  N   UNL A   1      32.632  31.100  26.441  1.00  0.00    -0.352 N 
ATOM     14  O   UNL A   1      32.823  33.045  27.575  1.00  0.00    -0.269 OA
ATOM     15  C   UNL A   1      33.305  31.956  27.279  1.00  0.00     0.251 C 
ATOM     16  H   UNL A   1      31.792  31.446  26.060  1.00  0.00     0.163 HD
BRANCH  15  17
ATOM     17  C   UNL A   1      34.597  31.536  27.863  1.00  0.00     0.039 A 
ATOM     18  C   UNL A   1      34.781  30.233  28.331  1.00  0.00    -0.049 A 
ATOM     19  C   UNL A   1      35.626  32.476  27.972  1.00  0.00    -0.049 A 
ATOM     20  C   UNL A   1      35.931  29.916  29.045  1.00  0.00    -0.053 A 
ATOM     21  H   UNL A   1      34.068  29.510  28.147  1.00  0.00     0.063 H 
ATOM     22  C   UNL A   1      36.817  32.128  28.614  1.00  0.00    -0.053 A 
ATOM     23  H   UNL A   1      35.506  33.423  27.580  1.00  0.00     0.063 H 
ATOM     24  C   UNL A   1      36.964  30.858  29.191  1.00  0.00    -0.014 A 
ATOM     25  H   UNL A   1      36.026  28.982  29.472  1.00  0.00     0.063 H 
ATOM     26  H   UNL A   1      37.592  32.809  28.665  1.00  0.00     0.063 H 
BRANCH  24  27
ATOM     27  C   UNL A   1      38.201  30.470  29.915  1.00  0.00     0.031 A 
ATOM     28  C   UNL A   1      38.429  30.876  31.343  1.00  0.00     0.074 A 
ATOM     29  C   UNL A   1      39.104  29.700  29.280  1.00  0.00     0.049 A 
ATOM     30  N   UNL A   1      39.434  30.586  32.131  1.00  0.00    -0.248 NA
ATOM     31  C   UNL A   1      37.402  31.723  31.971  1.00  0.00    -0.034 C 
ATOM     32  C   UNL A   1      38.992  29.252  27.890  1.00  0.00    -0.036 A 
ATOM     33  N   UNL A   1      40.272  29.132  29.720  1.00  0.00    -0.354 N 
ATOM     34  C   UNL A   1      39.171  31.224  33.336  1.00  0.00     0.074 A 
ATOM     35  C   UNL A   1      37.924  31.939  33.171  1.00  0.00    -0.034 C 
ATOM     36  H   UNL A   1      36.509  32.059  31.579  1.00  0.00     0.065 H 
ATOM     37  C   UNL A   1      40.013  28.430  27.611  1.00  0.00    -0.036 A 
ATOM     38  H   UNL A   1      38.247  29.526  27.232  1.00  0.00     0.065 H 
ATOM     39  C   UNL A   1      40.881  28.339  28.780  1.00  0.00     0.049 A 
ATOM     40  H   UNL A   1      40.637  29.279  30.622  1.00  0.00     0.167 HD
ATOM     41  C   UNL A   1      39.902  31.204  34.478  1.00  0.00     0.037 A 
ATOM     42  H   UNL A   1      37.497  32.540  33.893  1.00  0.00     0.065 H 
ATOM     43  H   UNL A   1      40.161  27.941  26.715  1.00  0.00     0.065 H 
ATOM     44  C   UNL A   1      42.016  27.620  28.847  1.00  0.00     0.037 A 
ATOM     45  C   UNL A   1      41.134  30.477  34.641  1.00  0.00     0.049 A 
ATOM     46  C   UNL A   1      42.809  27.620  30.120  1.00  0.00     0.074 A 
ATOM     47  C   UNL A   1      41.939  30.384  35.764  1.00  0.00    -0.036 A 
ATOM     48  N   UNL A   1      41.739  29.713  33.654  1.00  0.00    -0.354 N 
ATOM     49  N   UNL A   1      42.546  28.224  31.254  1.00  0.00    -0.248 NA
ATOM     50  C   UNL A   1      44.057  26.846  30.124  1.00  0.00    -0.034 C 
ATOM     51  C   UNL A   1      43.049  29.596  35.445  1.00  0.00    -0.036 A 
ATOM     52  H   UNL A   1      41.752  30.823  36.680  1.00  0.00     0.065 H 
ATOM     53  C   UNL A   1      42.914  29.158  34.138  1.00  0.00     0.049 A 
ATOM     54  H   UNL A   1      41.387  29.585  32.744  1.00  0.00     0.167 HD
ATOM     55  C   UNL A   1      43.589  27.900  32.107  1.00  0.00     0.074 A 
ATOM     56  C   UNL A   1      44.479  27.028  31.369  1.00  0.00    -0.034 C 
ATOM     57  H   UNL A   1      44.491  26.305  29.361  1.00  0.00     0.065 H 
ATOM     58  H   UNL A   1      43.836  29.377  36.077  1.00  0.00     0.065 H 
ATOM     59  C   UNL A   1      43.792  28.295  33.387  1.00  0.00     0.037 A 
ATOM     60  H   UNL A   1      45.334  26.602  31.760  1.00  0.00     0.065 H 
BRANCH  41  61
ATOM     61  C   UNL A   1      39.395  31.999  35.645  1.00  0.00     0.064 A 
ATOM     62  C   UNL A   1      38.487  31.432  36.553  1.00  0.00     0.173 A 
ATOM     63  C   UNL A   1      39.756  33.342  35.832  1.00  0.00     0.173 A 
ATOM     64  F   UNL A   1      38.104  30.153  36.416  1.00  0.00    -0.203 F 
ATOM     65  C   UNL A   1      37.955  32.182  37.599  1.00  0.00     0.198 A 
ATOM     66  C   UNL A   1      39.240  34.082  36.894  1.00  0.00     0.198 A 
ATOM     67  F   UNL A   1      40.629  33.928  34.999  1.00  0.00    -0.203 F 
ATOM     68  F   UNL A   1      37.069  31.626  38.437  1.00  0.00    -0.200 F 
ATOM     69  C   UNL A   1      38.334  33.504  37.771  1.00  0.00     0.200 A 
ATOM     70  F   UNL A   1      39.626  35.353  37.072  1.00  0.00    -0.200 F 
ATOM     71  F   UNL A   1      37.829  34.222  38.785  1.00  0.00    -0.200 F 
ENDBRANCH  41  61
BRANCH  44  72
ATOM     72  C   UNL A   1      42.439  26.826  27.667  1.00  0.00     0.064 A 
ATOM     73  C   UNL A   1      42.052  25.487  27.514  1.00  0.00     0.173 A 
ATOM     74  C   UNL A   1      43.298  27.375  26.706  1.00  0.00     0.173 A 
ATOM     75  F   UNL A   1      41.239  24.917  28.414  1.00  0.00    -0.203 F 
ATOM     76  C   UNL A   1      42.533  24.717  26.457  1.00  0.00     0.198 A 
ATOM     77  C   UNL A   1      43.758  26.609  25.635  1.00  0.00     0.198 A 
ATOM     78  F   UNL A   1      43.683  28.656  26.804  1.00  0.00    -0.203 F 
ATOM     79  F   UNL A   1      42.186  23.426  26.360  1.00  0.00    -0.200 F 
ATOM     80  C   UNL A   1      43.384  25.279  25.519  1.00  0.00     0.200 A 
ATOM     81  F   UNL A   1      44.567  27.161  24.720  1.00  0.00    -0.200 F 
ATOM     82  F   UNL A   1      43.847  24.538  24.504  1.00  0.00    -0.200 F 
ENDBRANCH  44  72
BRANCH  59  83
ATOM     83  C   UNL A   1      45.019  27.783  34.079  1.00  0.00     0.064 A 
ATOM     84  C   UNL A   1      44.980  26.580  34.800  1.00  0.00     0.173 A 
ATOM     85  C   UNL A   1      46.218  28.511  34.075  1.00  0.00     0.173 A 
ATOM     86  F   UNL A   1      43.855  25.851  34.837  1.00  0.00    -0.203 F 
ATOM     87  C   UNL A   1      46.096  26.129  35.499  1.00  0.00     0.198 A 
ATOM     88  C   UNL A   1      47.339  28.044  34.756  1.00  0.00     0.198 A 
ATOM     89  F   UNL A   1      46.307  29.660  33.388  1.00  0.00    -0.203 F 
ATOM     90  F   UNL A   1      46.028  24.989  36.200  1.00  0.00    -0.200 F 
ATOM     91  C   UNL A   1      47.275  26.859  35.473  1.00  0.00     0.200 A 
ATOM     92  F   UNL A   1      48.484  28.738  34.711  1.00  0.00    -0.200 F 
ATOM     93  F   UNL A   1      48.352  26.416  36.136  1.00  0.00    -0.200 F 
ENDBRANCH  59  83
ENDBRANCH  24  27
ENDBRANCH  15  17
ENDBRANCH  10  13
ENDBRANCH   7  10
ENDBRANCH   4   7
ENDBRANCH   1   4
BRANCH   1  94
ATOM     94  C   UNL A   1      33.569  26.316  23.019  1.00  0.00    -0.036 C 
ATOM     95  H   UNL A   1      34.435  25.953  22.506  1.00  0.00     0.028 H 
ATOM     96  H   UNL A   1      32.807  26.691  22.367  1.00  0.00     0.028 H 
BRANCH  94  97
ATOM     97  C   UNL A   1      32.941  25.148  23.768  1.00  0.00     0.017 C 
ATOM     98  H   UNL A   1      33.692  24.405  23.936  1.00  0.00     0.049 H 
ATOM     99  H   UNL A   1      32.142  24.768  23.167  1.00  0.00     0.049 H 
BRANCH  97 100
ATOM    100  N   UNL A   1      32.388  25.546  25.042  1.00  0.00    -0.354 N 
ATOM    101  C   UNL A   1      31.844  24.805  26.044  1.00  0.00     0.244 C 
ATOM    102  H   UNL A   1      32.408  26.515  25.213  1.00  0.00     0.163 HD
ATOM    103  O   UNL A   1      31.398  25.429  27.011  1.00  0.00    -0.273 OA
BRANCH 101 104
ATOM    104  C   UNL A   1      31.700  23.277  25.959  1.00  0.00     0.131 C 
ATOM    105  H   UNL A   1      31.841  23.013  24.932  1.00  0.00     0.066 H 
BRANCH 104 106
ATOM    106  N   UNL A   1      32.734  22.641  26.776  1.00  0.00    -0.340 N 
ATOM    107  C   UNL A   1      33.857  21.937  26.465  1.00  0.00     0.243 C 
ATOM    108  H   UNL A   1      32.588  22.741  27.745  1.00  0.00     0.164 HD
ATOM    109  O   UNL A   1      34.476  21.517  27.450  1.00  0.00    -0.273 OA
BRANCH 107 110
ATOM    110  C   UNL A   1      34.226  21.478  25.027  1.00  0.00     0.112 C 
ATOM    111  H   UNL A   1      34.580  20.480  25.181  1.00  0.00     0.064 H 
BRANCH 110 112
ATOM    112  N   UNL A   1      33.140  21.279  24.068  1.00  0.00    -0.340 N 
ATOM    113  C   UNL A   1      32.614  20.181  23.441  1.00  0.00     0.251 C 
ATOM    114  H   UNL A   1      32.686  22.118  23.821  1.00  0.00     0.164 HD
ATOM    115  O   UNL A   1      31.882  20.392  22.472  1.00  0.00    -0.269 OA
BRANCH 113 116
ATOM    116  C   UNL A   1      32.817  18.763  23.871  1.00  0.00     0.040 A 
ATOM    117  C   UNL A   1      33.434  17.771  23.100  1.00  0.00    -0.047 A 
ATOM    118  C   UNL A   1      32.496  18.456  25.207  1.00  0.00    -0.047 A 
ATOM    119  C   UNL A   1      33.721  16.512  23.641  1.00  0.00    -0.026 A 
ATOM    120  H   UNL A   1      33.682  17.970  22.118  1.00  0.00     0.063 H 
ATOM    121  C   UNL A   1      32.784  17.200  25.751  1.00  0.00    -0.026 A 
ATOM    122  H   UNL A   1      32.040  19.170  25.796  1.00  0.00     0.063 H 
ATOM    123  C   UNL A   1      33.398  16.240  24.962  1.00  0.00     0.123 A 
ATOM    124  H   UNL A   1      34.170  15.789  23.058  1.00  0.00     0.065 H 
ATOM    125  H   UNL A   1      32.541  16.990  26.733  1.00  0.00     0.065 H 
ATOM    126  F   UNL A   1      33.700  15.045  25.483  1.00  0.00    -0.207 F 
ENDBRANCH 113 116
ENDBRANCH 110 112
BRANCH 110 127
ATOM    127  C   UNL A   1      35.338  22.372  24.436  1.00  0.00     0.004 C 
ATOM    128  H   UNL A   1      34.972  23.377  24.464  1.00  0.00     0.034 H 
ATOM    129  H   UNL A   1      35.516  21.936  23.475  1.00  0.00     0.034 H 
BRANCH 127 130
ATOM    130  C   UNL A   1      36.713  22.394  25.062  1.00  0.00    -0.020 A 
ATOM    131  C   UNL A   1      37.276  23.568  25.539  1.00  0.00     0.005 A 
ATOM    132  C   UNL A   1      37.702  21.364  25.270  1.00  0.00     0.003 A 
ATOM    133  N   UNL A   1      38.522  23.302  26.023  1.00  0.00    -0.361 N 
ATOM    134  H   UNL A   1      36.823  24.496  25.529  1.00  0.00     0.082 H 
ATOM    135  C   UNL A   1      38.810  21.969  25.875  1.00  0.00     0.046 A 
ATOM    136  C   UNL A   1      37.790  19.977  25.020  1.00  0.00    -0.053 A 
ATOM    137  H   UNL A   1      39.127  23.969  26.421  1.00  0.00     0.166 HD
ATOM    138  C   UNL A   1      39.971  21.271  26.236  1.00  0.00    -0.038 A 
ATOM    139  C   UNL A   1      38.939  19.260  25.382  1.00  0.00    -0.062 A 
ATOM    140  H   UNL A   1      37.003  19.487  24.567  1.00  0.00     0.063 H 
ATOM    141  C   UNL A   1      40.015  19.901  25.981  1.00  0.00    -0.060 A 
ATOM    142  H   UNL A   1      40.768  21.756  26.677  1.00  0.00     0.064 H 
ATOM    143  H   UNL A   1      38.986  18.245  25.201  1.00  0.00     0.062 H 
ATOM    144  H   UNL A   1      40.854  19.359  26.240  1.00  0.00     0.062 H 
ENDBRANCH 127 130
ENDBRANCH 110 127
ENDBRANCH 107 110
ENDBRANCH 104 106
BRANCH 104 145
ATOM    145  C   UNL A   1      30.295  22.742  26.279  1.00  0.00     0.072 C 
ATOM    146  H   UNL A   1      30.241  21.716  25.979  1.00  0.00     0.059 H 
ATOM    147  H   UNL A   1      29.588  23.345  25.749  1.00  0.00     0.059 H 
BRANCH 145 148
ATOM    148  O   UNL A   1      29.984  22.827  27.666  1.00  0.00    -0.394 OA
ATOM    149  H   UNL A   1      29.440  23.613  27.828  1.00  0.00     0.210 HD
ENDBRANCH 145 148
ENDBRANCH 104 145
ENDBRANCH 101 104
ENDBRANCH  97 100
ENDBRANCH  94  97
ENDBRANCH   1  94
TORSDOF 21
ENDMDL
MODEL 8
REMARK VINA RESULT:     -11.6      1.920      7.194
REMARK SMILES O=C(NCCCCCCNC(=O)[C@H](CO)NC(=O)[C@H](Cc1c[nH]c2ccccc12)NC(=O)c1ccc(F)cc1)c1ccc(-c2c3nc(c(-c4c(F)c(F)c(F)c(F)c4F)c4ccc([nH]4)c(-c4c(F)c(F)c(F)c(F)c4F)c4nc(c(-c5c(F)c(F)c(F)c(F)c5F)c5ccc2[nH]5)C=C4)C=C3)cc1
REMARK SMILES IDX 7 1 6 4 5 7 4 10 3 13 1 14 2 15 40 17 41 18 102 19 42 20
REMARK SMILES IDX 101 22 43 24 44 27 45 28 95 29 46 30 100 31 94 32 96 33
REMARK SMILES IDX 47 34 99 35 93 37 92 39 48 41 80 44 60 45 79 46 61 47 64 48
REMARK SMILES IDX 78 49 97 50 62 51 63 53 77 55 98 56 65 59 49 61 50 62 58 63
REMARK SMILES IDX 51 64 52 65 56 66 59 67 53 68 54 69 57 70 55 71 81 72 82 73
REMARK SMILES IDX 90 74 83 75 84 76 88 77 91 78 85 79 86 80 89 81 87 82 66 83
REMARK SMILES IDX 67 84 75 85 68 86 69 87 73 88 76 89 70 90 71 91 74 92 72 93
REMARK SMILES IDX 8 94 9 97 10 100 11 101 12 103 13 104 16 106 17 107 18 109
REMARK SMILES IDX 19 110 30 112 31 113 32 115 33 116 34 117 39 118 35 119
REMARK SMILES IDX 38 121 36 123 37 126 20 127 21 130 22 131 29 132 23 133
REMARK SMILES IDX 24 135 28 136 25 138 27 139 26 141 14 145 15 148
REMARK H PARENT 7 2 7 3 6 5 6 6 5 8 5 9 4 11 4 12 3 16 41 21 102 23 42 25
REMARK H PARENT 101 26 100 36 94 38 96 40 99 42 93 43 61 52 64 54 97 57 62 58
REMARK H PARENT 98 60 8 95 8 96 9 98 9 99 10 102 13 105 16 108 19 111 30 114
REMARK H PARENT 34 120 39 122 35 124 38 125 20 128 20 129 22 134 23 137 28 140
REMARK H PARENT 25 142 27 143 26 144 14 146 14 147 15 149
REMARK Flexibility Score: inf
ROOT
ATOM      1  C   UNL A   1      31.981  25.388  26.495  1.00  0.00    -0.052 C 
ATOM      2  H   UNL A   1      31.868  25.301  27.555  1.00  0.00     0.027 H 
ATOM      3  H   UNL A   1      32.198  24.469  25.994  1.00  0.00     0.027 H 
ENDROOT
BRANCH   1   4
ATOM      4  C   UNL A   1      33.190  26.290  26.228  1.00  0.00    -0.052 C 
ATOM      5  H   UNL A   1      33.913  26.102  26.995  1.00  0.00     0.027 H 
ATOM      6  H   UNL A   1      33.519  26.042  25.241  1.00  0.00     0.027 H 
BRANCH   4   7
ATOM      7  C   UNL A   1      32.919  27.792  26.203  1.00  0.00    -0.036 C 
ATOM      8  H   UNL A   1      32.333  28.006  25.334  1.00  0.00     0.028 H 
ATOM      9  H   UNL A   1      32.426  28.014  27.126  1.00  0.00     0.028 H 
BRANCH   7  10
ATOM     10  C   UNL A   1      34.149  28.689  26.166  1.00  0.00     0.018 C 
ATOM     11  H   UNL A   1      34.897  28.261  26.799  1.00  0.00     0.049 H 
ATOM     12  H   UNL A   1      34.461  28.748  25.145  1.00  0.00     0.049 H 
BRANCH  10  13
ATOM     13  N   UNL A   1      33.895  30.047  26.611  1.00  0.00    -0.352 N 
ATOM     14  O   UNL A   1      34.229  31.925  27.823  1.00  0.00    -0.269 OA
ATOM     15  C   UNL A   1      34.623  30.810  27.492  1.00  0.00     0.251 C 
ATOM     16  H   UNL A   1      33.096  30.478  26.231  1.00  0.00     0.163 HD
BRANCH  15  17
ATOM     17  C   UNL A   1      35.863  30.261  28.080  1.00  0.00     0.039 A 
ATOM     18  C   UNL A   1      35.845  29.618  29.320  1.00  0.00    -0.049 A 
ATOM     19  C   UNL A   1      37.068  30.423  27.389  1.00  0.00    -0.049 A 
ATOM     20  C   UNL A   1      37.044  29.281  29.937  1.00  0.00    -0.053 A 
ATOM     21  H   UNL A   1      34.946  29.395  29.775  1.00  0.00     0.063 H 
ATOM     22  C   UNL A   1      38.265  30.003  27.974  1.00  0.00    -0.053 A 
ATOM     23  H   UNL A   1      37.072  30.852  26.450  1.00  0.00     0.063 H 
ATOM     24  C   UNL A   1      38.267  29.465  29.270  1.00  0.00    -0.014 A 
ATOM     25  H   UNL A   1      37.035  28.893  30.893  1.00  0.00     0.063 H 
ATOM     26  H   UNL A   1      39.151  30.089  27.452  1.00  0.00     0.063 H 
BRANCH  24  27
ATOM     27  C   UNL A   1      39.526  29.046  29.937  1.00  0.00     0.031 A 
ATOM     28  C   UNL A   1      40.347  27.905  29.406  1.00  0.00     0.074 A 
ATOM     29  C   UNL A   1      39.949  29.742  31.009  1.00  0.00     0.049 A 
ATOM     30  N   UNL A   1      41.490  27.440  29.845  1.00  0.00    -0.248 NA
ATOM     31  C   UNL A   1      39.819  27.187  28.235  1.00  0.00    -0.034 C 
ATOM     32  C   UNL A   1      39.229  30.862  31.617  1.00  0.00    -0.036 A 
ATOM     33  N   UNL A   1      41.093  29.635  31.757  1.00  0.00    -0.354 N 
ATOM     34  C   UNL A   1      41.808  26.369  29.020  1.00  0.00     0.074 A 
ATOM     35  C   UNL A   1      40.727  26.236  28.067  1.00  0.00    -0.034 C 
ATOM     36  H   UNL A   1      38.965  27.377  27.688  1.00  0.00     0.065 H 
ATOM     37  C   UNL A   1      39.975  31.379  32.603  1.00  0.00    -0.036 A 
ATOM     38  H   UNL A   1      38.297  31.200  31.332  1.00  0.00     0.065 H 
ATOM     39  C   UNL A   1      41.196  30.591  32.735  1.00  0.00     0.049 A 
ATOM     40  H   UNL A   1      41.773  28.939  31.607  1.00  0.00     0.167 HD
ATOM     41  C   UNL A   1      42.909  25.578  29.052  1.00  0.00     0.037 A 
ATOM     42  H   UNL A   1      40.670  25.496  27.350  1.00  0.00     0.065 H 
ATOM     43  H   UNL A   1      39.726  32.200  33.176  1.00  0.00     0.065 H 
ATOM     44  C   UNL A   1      42.165  30.811  33.643  1.00  0.00     0.037 A 
ATOM     45  C   UNL A   1      43.989  25.727  29.993  1.00  0.00     0.049 A 
ATOM     46  C   UNL A   1      43.369  29.918  33.661  1.00  0.00     0.074 A 
ATOM     47  C   UNL A   1      45.153  24.983  30.094  1.00  0.00    -0.036 A 
ATOM     48  N   UNL A   1      44.041  26.687  30.993  1.00  0.00    -0.354 N 
ATOM     49  N   UNL A   1      43.660  28.913  32.871  1.00  0.00    -0.248 NA
ATOM     50  C   UNL A   1      44.377  30.183  34.696  1.00  0.00    -0.034 C 
ATOM     51  C   UNL A   1      45.890  25.469  31.178  1.00  0.00    -0.036 A 
ATOM     52  H   UNL A   1      45.428  24.204  29.476  1.00  0.00     0.065 H 
ATOM     53  C   UNL A   1      45.210  26.545  31.725  1.00  0.00     0.049 A 
ATOM     54  H   UNL A   1      43.350  27.367  31.159  1.00  0.00     0.167 HD
ATOM     55  C   UNL A   1      44.883  28.429  33.307  1.00  0.00     0.074 A 
ATOM     56  C   UNL A   1      45.292  29.264  34.418  1.00  0.00    -0.034 C 
ATOM     57  H   UNL A   1      44.372  30.896  35.442  1.00  0.00     0.065 H 
ATOM     58  H   UNL A   1      46.790  25.089  31.514  1.00  0.00     0.065 H 
ATOM     59  C   UNL A   1      45.600  27.382  32.831  1.00  0.00     0.037 A 
ATOM     60  H   UNL A   1      46.183  29.158  34.929  1.00  0.00     0.065 H 
BRANCH  41  61
ATOM     61  C   UNL A   1      43.002  24.471  28.043  1.00  0.00     0.064 A 
ATOM     62  C   UNL A   1      43.401  24.740  26.724  1.00  0.00     0.173 A 
ATOM     63  C   UNL A   1      42.636  23.155  28.361  1.00  0.00     0.173 A 
ATOM     64  F   UNL A   1      43.755  25.985  26.366  1.00  0.00    -0.203 F 
ATOM     65  C   UNL A   1      43.423  23.735  25.762  1.00  0.00     0.198 A 
ATOM     66  C   UNL A   1      42.683  22.146  27.401  1.00  0.00     0.198 A 
ATOM     67  F   UNL A   1      42.259  22.842  29.610  1.00  0.00    -0.203 F 
ATOM     68  F   UNL A   1      43.782  24.022  24.503  1.00  0.00    -0.200 F 
ATOM     69  C   UNL A   1      43.068  22.439  26.101  1.00  0.00     0.200 A 
ATOM     70  F   UNL A   1      42.362  20.889  27.737  1.00  0.00    -0.200 F 
ATOM     71  F   UNL A   1      43.100  21.469  25.176  1.00  0.00    -0.200 F 
ENDBRANCH  41  61
BRANCH  44  72
ATOM     72  C   UNL A   1      42.025  31.948  34.587  1.00  0.00     0.064 A 
ATOM     73  C   UNL A   1      42.595  33.199  34.309  1.00  0.00     0.173 A 
ATOM     74  C   UNL A   1      41.377  31.781  35.818  1.00  0.00     0.173 A 
ATOM     75  F   UNL A   1      43.233  33.402  33.147  1.00  0.00    -0.203 F 
ATOM     76  C   UNL A   1      42.548  34.233  35.242  1.00  0.00     0.198 A 
ATOM     77  C   UNL A   1      41.310  32.825  36.739  1.00  0.00     0.198 A 
ATOM     78  F   UNL A   1      40.805  30.607  36.120  1.00  0.00    -0.203 F 
ATOM     79  F   UNL A   1      43.142  35.403  34.971  1.00  0.00    -0.200 F 
ATOM     80  C   UNL A   1      41.904  34.045  36.455  1.00  0.00     0.200 A 
ATOM     81  F   UNL A   1      40.671  32.645  37.904  1.00  0.00    -0.200 F 
ATOM     82  F   UNL A   1      41.860  35.039  37.351  1.00  0.00    -0.200 F 
ENDBRANCH  44  72
BRANCH  59  83
ATOM     83  C   UNL A   1      46.906  27.081  33.502  1.00  0.00     0.064 A 
ATOM     84  C   UNL A   1      48.093  27.675  33.047  1.00  0.00     0.173 A 
ATOM     85  C   UNL A   1      46.991  26.164  34.559  1.00  0.00     0.173 A 
ATOM     86  F   UNL A   1      48.063  28.556  32.035  1.00  0.00    -0.203 F 
ATOM     87  C   UNL A   1      49.319  27.354  33.621  1.00  0.00     0.198 A 
ATOM     88  C   UNL A   1      48.217  25.863  35.147  1.00  0.00     0.198 A 
ATOM     89  F   UNL A   1      45.882  25.581  35.038  1.00  0.00    -0.203 F 
ATOM     90  F   UNL A   1      50.443  27.915  33.154  1.00  0.00    -0.200 F 
ATOM     91  C   UNL A   1      49.380  26.451  34.672  1.00  0.00     0.200 A 
ATOM     92  F   UNL A   1      48.272  25.008  36.177  1.00  0.00    -0.200 F 
ATOM     93  F   UNL A   1      50.560  26.153  35.232  1.00  0.00    -0.200 F 
ENDBRANCH  59  83
ENDBRANCH  24  27
ENDBRANCH  15  17
ENDBRANCH  10  13
ENDBRANCH   7  10
ENDBRANCH   4   7
ENDBRANCH   1   4
BRANCH   1  94
ATOM     94  C   UNL A   1      30.639  25.856  25.920  1.00  0.00    -0.036 C 
ATOM     95  H   UNL A   1      30.696  26.914  25.770  1.00  0.00     0.028 H 
ATOM     96  H   UNL A   1      29.897  25.561  26.631  1.00  0.00     0.028 H 
BRANCH  94  97
ATOM     97  C   UNL A   1      30.233  25.215  24.600  1.00  0.00     0.017 C 
ATOM     98  H   UNL A   1      29.262  24.780  24.713  1.00  0.00     0.049 H 
ATOM     99  H   UNL A   1      30.966  24.475  24.357  1.00  0.00     0.049 H 
BRANCH  97 100
ATOM    100  N   UNL A   1      30.190  26.169  23.515  1.00  0.00    -0.354 N 
ATOM    101  C   UNL A   1      31.174  26.627  22.696  1.00  0.00     0.244 C 
ATOM    102  H   UNL A   1      29.301  26.552  23.341  1.00  0.00     0.163 HD
ATOM    103  O   UNL A   1      30.852  27.493  21.878  1.00  0.00    -0.273 OA
BRANCH 101 104
ATOM    104  C   UNL A   1      32.636  26.170  22.823  1.00  0.00     0.131 C 
ATOM    105  H   UNL A   1      32.789  25.915  23.850  1.00  0.00     0.066 H 
BRANCH 104 106
ATOM    106  N   UNL A   1      32.855  24.988  21.986  1.00  0.00    -0.340 N 
ATOM    107  C   UNL A   1      33.266  23.721  22.265  1.00  0.00     0.243 C 
ATOM    108  H   UNL A   1      32.668  25.141  21.032  1.00  0.00     0.164 HD
ATOM    109  O   UNL A   1      33.367  22.995  21.268  1.00  0.00    -0.273 OA
BRANCH 107 110
ATOM    110  C   UNL A   1      33.798  23.263  23.651  1.00  0.00     0.112 C 
ATOM    111  H   UNL A   1      34.086  24.185  24.110  1.00  0.00     0.064 H 
BRANCH 110 112
ATOM    112  N   UNL A   1      32.837  22.722  24.612  1.00  0.00    -0.340 N 
ATOM    113  C   UNL A   1      32.297  21.481  24.822  1.00  0.00     0.251 C 
ATOM    114  H   UNL A   1      32.507  23.398  25.249  1.00  0.00     0.164 HD
ATOM    115  O   UNL A   1      31.297  21.424  25.541  1.00  0.00    -0.269 OA
BRANCH 113 116
ATOM    116  C   UNL A   1      32.854  20.198  24.292  1.00  0.00     0.040 A 
ATOM    117  C   UNL A   1      33.852  19.438  24.915  1.00  0.00    -0.047 A 
ATOM    118  C   UNL A   1      32.217  19.651  23.163  1.00  0.00    -0.047 A 
ATOM    119  C   UNL A   1      34.204  18.174  24.428  1.00  0.00    -0.026 A 
ATOM    120  H   UNL A   1      34.334  19.816  25.746  1.00  0.00     0.063 H 
ATOM    121  C   UNL A   1      32.564  18.387  22.676  1.00  0.00    -0.026 A 
ATOM    122  H   UNL A   1      31.479  20.192  22.685  1.00  0.00     0.063 H 
ATOM    123  C   UNL A   1      33.554  17.657  23.317  1.00  0.00     0.123 A 
ATOM    124  H   UNL A   1      34.945  17.628  24.895  1.00  0.00     0.065 H 
ATOM    125  H   UNL A   1      32.087  17.999  21.846  1.00  0.00     0.065 H 
ATOM    126  F   UNL A   1      33.874  16.436  22.873  1.00  0.00    -0.207 F 
ENDBRANCH 113 116
ENDBRANCH 110 112
BRANCH 110 127
ATOM    127  C   UNL A   1      35.014  22.325  23.488  1.00  0.00     0.004 C 
ATOM    128  H   UNL A   1      35.330  22.407  22.468  1.00  0.00     0.034 H 
ATOM    129  H   UNL A   1      34.639  21.379  23.816  1.00  0.00     0.034 H 
BRANCH 127 130
ATOM    130  C   UNL A   1      36.247  22.519  24.340  1.00  0.00    -0.020 A 
ATOM    131  C   UNL A   1      36.612  23.769  24.817  1.00  0.00     0.005 A 
ATOM    132  C   UNL A   1      37.266  21.605  24.795  1.00  0.00     0.003 A 
ATOM    133  N   UNL A   1      37.768  23.656  25.529  1.00  0.00    -0.361 N 
ATOM    134  H   UNL A   1      36.090  24.646  24.657  1.00  0.00     0.082 H 
ATOM    135  C   UNL A   1      38.191  22.351  25.536  1.00  0.00     0.046 A 
ATOM    136  C   UNL A   1      37.516  20.221  24.671  1.00  0.00    -0.053 A 
ATOM    137  H   UNL A   1      38.231  24.402  25.974  1.00  0.00     0.166 HD
ATOM    138  C   UNL A   1      39.323  21.793  26.145  1.00  0.00    -0.038 A 
ATOM    139  C   UNL A   1      38.638  19.643  25.280  1.00  0.00    -0.062 A 
ATOM    140  H   UNL A   1      36.868  19.630  24.126  1.00  0.00     0.063 H 
ATOM    141  C   UNL A   1      39.530  20.421  26.008  1.00  0.00    -0.060 A 
ATOM    142  H   UNL A   1      39.983  22.379  26.680  1.00  0.00     0.064 H 
ATOM    143  H   UNL A   1      38.804  18.628  25.189  1.00  0.00     0.062 H 
ATOM    144  H   UNL A   1      40.352  19.980  26.448  1.00  0.00     0.062 H 
ENDBRANCH 127 130
ENDBRANCH 110 127
ENDBRANCH 107 110
ENDBRANCH 104 106
BRANCH 104 145
ATOM    145  C   UNL A   1      33.681  27.267  22.563  1.00  0.00     0.072 C 
ATOM    146  H   UNL A   1      34.648  26.888  22.820  1.00  0.00     0.059 H 
ATOM    147  H   UNL A   1      33.418  28.115  23.161  1.00  0.00     0.059 H 
BRANCH 145 148
ATOM    148  O   UNL A   1      33.702  27.686  21.203  1.00  0.00    -0.394 OA
ATOM    149  H   UNL A   1      33.211  28.517  21.112  1.00  0.00     0.210 HD
ENDBRANCH 145 148
ENDBRANCH 104 145
ENDBRANCH 101 104
ENDBRANCH  97 100
ENDBRANCH  94  97
ENDBRANCH   1  94
TORSDOF 21
ENDMDL
MODEL 9
REMARK VINA RESULT:     -11.6      4.641      9.819
REMARK SMILES O=C(NCCCCCCNC(=O)[C@H](CO)NC(=O)[C@H](Cc1c[nH]c2ccccc12)NC(=O)c1ccc(F)cc1)c1ccc(-c2c3nc(c(-c4c(F)c(F)c(F)c(F)c4F)c4ccc([nH]4)c(-c4c(F)c(F)c(F)c(F)c4F)c4nc(c(-c5c(F)c(F)c(F)c(F)c5F)c5ccc2[nH]5)C=C4)C=C3)cc1
REMARK SMILES IDX 7 1 6 4 5 7 4 10 3 13 1 14 2 15 40 17 41 18 102 19 42 20
REMARK SMILES IDX 101 22 43 24 44 27 45 28 95 29 46 30 100 31 94 32 96 33
REMARK SMILES IDX 47 34 99 35 93 37 92 39 48 41 80 44 60 45 79 46 61 47 64 48
REMARK SMILES IDX 78 49 97 50 62 51 63 53 77 55 98 56 65 59 49 61 50 62 58 63
REMARK SMILES IDX 51 64 52 65 56 66 59 67 53 68 54 69 57 70 55 71 81 72 82 73
REMARK SMILES IDX 90 74 83 75 84 76 88 77 91 78 85 79 86 80 89 81 87 82 66 83
REMARK SMILES IDX 67 84 75 85 68 86 69 87 73 88 76 89 70 90 71 91 74 92 72 93
REMARK SMILES IDX 8 94 9 97 10 100 11 101 12 103 13 104 16 106 17 107 18 109
REMARK SMILES IDX 19 110 30 112 31 113 32 115 33 116 34 117 39 118 35 119
REMARK SMILES IDX 38 121 36 123 37 126 20 127 21 130 22 131 29 132 23 133
REMARK SMILES IDX 24 135 28 136 25 138 27 139 26 141 14 145 15 148
REMARK H PARENT 7 2 7 3 6 5 6 6 5 8 5 9 4 11 4 12 3 16 41 21 102 23 42 25
REMARK H PARENT 101 26 100 36 94 38 96 40 99 42 93 43 61 52 64 54 97 57 62 58
REMARK H PARENT 98 60 8 95 8 96 9 98 9 99 10 102 13 105 16 108 19 111 30 114
REMARK H PARENT 34 120 39 122 35 124 38 125 20 128 20 129 22 134 23 137 28 140
REMARK H PARENT 25 142 27 143 26 144 14 146 14 147 15 149
REMARK Flexibility Score: inf
ROOT
ATOM      1  C   UNL A   1      37.944  23.081  25.955  1.00  0.00    -0.052 C 
ATOM      2  H   UNL A   1      38.138  24.061  25.571  1.00  0.00     0.027 H 
ATOM      3  H   UNL A   1      37.389  23.063  26.869  1.00  0.00     0.027 H 
ENDROOT
BRANCH   1   4
ATOM      4  C   UNL A   1      39.294  22.439  26.291  1.00  0.00    -0.052 C 
ATOM      5  H   UNL A   1      40.062  23.141  26.039  1.00  0.00     0.027 H 
ATOM      6  H   UNL A   1      39.243  22.193  27.331  1.00  0.00     0.027 H 
BRANCH   4   7
ATOM      7  C   UNL A   1      39.612  21.126  25.578  1.00  0.00    -0.036 C 
ATOM      8  H   UNL A   1      38.834  20.942  24.866  1.00  0.00     0.028 H 
ATOM      9  H   UNL A   1      40.579  21.261  25.139  1.00  0.00     0.028 H 
BRANCH   7  10
ATOM     10  C   UNL A   1      39.730  19.897  26.468  1.00  0.00     0.018 C 
ATOM     11  H   UNL A   1      39.928  20.222  27.467  1.00  0.00     0.049 H 
ATOM     12  H   UNL A   1      38.807  19.364  26.386  1.00  0.00     0.049 H 
BRANCH  10  13
ATOM     13  N   UNL A   1      40.784  18.984  26.067  1.00  0.00    -0.352 N 
ATOM     14  O   UNL A   1      42.888  18.358  25.531  1.00  0.00    -0.269 OA
ATOM     15  C   UNL A   1      42.133  19.225  25.960  1.00  0.00     0.251 C 
ATOM     16  H   UNL A   1      40.494  18.071  25.841  1.00  0.00     0.163 HD
BRANCH  15  17
ATOM     17  C   UNL A   1      42.665  20.556  26.320  1.00  0.00     0.039 A 
ATOM     18  C   UNL A   1      42.662  20.992  27.647  1.00  0.00    -0.049 A 
ATOM     19  C   UNL A   1      43.143  21.392  25.306  1.00  0.00    -0.049 A 
ATOM     20  C   UNL A   1      42.989  22.312  27.937  1.00  0.00    -0.053 A 
ATOM     21  H   UNL A   1      42.420  20.338  28.408  1.00  0.00     0.063 H 
ATOM     22  C   UNL A   1      43.553  22.691  25.613  1.00  0.00    -0.053 A 
ATOM     23  H   UNL A   1      43.191  21.048  24.334  1.00  0.00     0.063 H 
ATOM     24  C   UNL A   1      43.442  23.175  26.925  1.00  0.00    -0.014 A 
ATOM     25  H   UNL A   1      42.896  22.661  28.904  1.00  0.00     0.063 H 
ATOM     26  H   UNL A   1      43.939  23.297  24.872  1.00  0.00     0.063 H 
BRANCH  24  27
ATOM     27  C   UNL A   1      43.832  24.564  27.278  1.00  0.00     0.031 A 
ATOM     28  C   UNL A   1      45.231  25.062  27.053  1.00  0.00     0.074 A 
ATOM     29  C   UNL A   1      42.889  25.393  27.764  1.00  0.00     0.049 A 
ATOM     30  N   UNL A   1      45.724  26.257  27.267  1.00  0.00    -0.248 NA
ATOM     31  C   UNL A   1      46.208  24.098  26.525  1.00  0.00    -0.034 C 
ATOM     32  C   UNL A   1      41.499  25.016  28.032  1.00  0.00    -0.036 A 
ATOM     33  N   UNL A   1      42.942  26.724  28.089  1.00  0.00    -0.354 N 
ATOM     34  C   UNL A   1      47.066  26.184  26.919  1.00  0.00     0.074 A 
ATOM     35  C   UNL A   1      47.319  24.822  26.501  1.00  0.00    -0.034 C 
ATOM     36  H   UNL A   1      46.066  23.115  26.244  1.00  0.00     0.065 H 
ATOM     37  C   UNL A   1      40.818  26.103  28.420  1.00  0.00    -0.036 A 
ATOM     38  H   UNL A   1      41.109  24.067  27.936  1.00  0.00     0.065 H 
ATOM     39  C   UNL A   1      41.733  27.238  28.485  1.00  0.00     0.049 A 
ATOM     40  H   UNL A   1      43.767  27.259  28.044  1.00  0.00     0.167 HD
ATOM     41  C   UNL A   1      47.996  27.170  26.938  1.00  0.00     0.037 A 
ATOM     42  H   UNL A   1      48.244  24.461  26.221  1.00  0.00     0.065 H 
ATOM     43  H   UNL A   1      39.810  26.132  28.637  1.00  0.00     0.065 H 
ATOM     44  C   UNL A   1      41.394  28.484  28.863  1.00  0.00     0.037 A 
ATOM     45  C   UNL A   1      47.733  28.528  27.339  1.00  0.00     0.049 A 
ATOM     46  C   UNL A   1      42.444  29.554  28.881  1.00  0.00     0.074 A 
ATOM     47  C   UNL A   1      48.608  29.601  27.378  1.00  0.00    -0.036 A 
ATOM     48  N   UNL A   1      46.502  29.002  27.768  1.00  0.00    -0.354 N 
ATOM     49  N   UNL A   1      43.708  29.473  28.543  1.00  0.00    -0.248 NA
ATOM     50  C   UNL A   1      42.026  30.887  29.336  1.00  0.00    -0.034 C 
ATOM     51  C   UNL A   1      47.916  30.714  27.865  1.00  0.00    -0.036 A 
ATOM     52  H   UNL A   1      49.600  29.582  27.096  1.00  0.00     0.065 H 
ATOM     53  C   UNL A   1      46.598  30.348  28.087  1.00  0.00     0.049 A 
ATOM     54  H   UNL A   1      45.682  28.463  27.837  1.00  0.00     0.167 HD
ATOM     55  C   UNL A   1      44.235  30.741  28.738  1.00  0.00     0.074 A 
ATOM     56  C   UNL A   1      43.149  31.579  29.203  1.00  0.00    -0.034 C 
ATOM     57  H   UNL A   1      41.101  31.200  29.671  1.00  0.00     0.065 H 
ATOM     58  H   UNL A   1      48.319  31.650  28.031  1.00  0.00     0.065 H 
ATOM     59  C   UNL A   1      45.508  31.167  28.553  1.00  0.00     0.037 A 
ATOM     60  H   UNL A   1      43.238  32.587  29.406  1.00  0.00     0.065 H 
BRANCH  41  61
ATOM     61  C   UNL A   1      49.394  26.819  26.519  1.00  0.00     0.064 A 
ATOM     62  C   UNL A   1      50.338  26.398  27.469  1.00  0.00     0.173 A 
ATOM     63  C   UNL A   1      49.820  26.960  25.190  1.00  0.00     0.173 A 
ATOM     64  F   UNL A   1      49.984  26.254  28.755  1.00  0.00    -0.203 F 
ATOM     65  C   UNL A   1      51.656  26.139  27.104  1.00  0.00     0.198 A 
ATOM     66  C   UNL A   1      51.134  26.676  24.824  1.00  0.00     0.198 A 
ATOM     67  F   UNL A   1      48.954  27.348  24.241  1.00  0.00    -0.203 F 
ATOM     68  F   UNL A   1      52.546  25.763  28.034  1.00  0.00    -0.200 F 
ATOM     69  C   UNL A   1      52.052  26.273  25.783  1.00  0.00     0.200 A 
ATOM     70  F   UNL A   1      51.509  26.784  23.543  1.00  0.00    -0.200 F 
ATOM     71  F   UNL A   1      53.320  26.013  25.431  1.00  0.00    -0.200 F 
ENDBRANCH  41  61
BRANCH  44  72
ATOM     72  C   UNL A   1      39.984  28.770  29.229  1.00  0.00     0.064 A 
ATOM     73  C   UNL A   1      39.514  28.556  30.532  1.00  0.00     0.173 A 
ATOM     74  C   UNL A   1      39.066  29.197  28.261  1.00  0.00     0.173 A 
ATOM     75  F   UNL A   1      40.354  28.137  31.489  1.00  0.00    -0.203 F 
ATOM     76  C   UNL A   1      38.168  28.729  30.847  1.00  0.00     0.198 A 
ATOM     77  C   UNL A   1      37.725  29.394  28.584  1.00  0.00     0.198 A 
ATOM     78  F   UNL A   1      39.475  29.429  27.005  1.00  0.00    -0.203 F 
ATOM     79  F   UNL A   1      37.734  28.471  32.088  1.00  0.00    -0.200 F 
ATOM     80  C   UNL A   1      37.275  29.149  29.873  1.00  0.00     0.200 A 
ATOM     81  F   UNL A   1      36.868  29.818  27.644  1.00  0.00    -0.200 F 
ATOM     82  F   UNL A   1      35.981  29.315  30.176  1.00  0.00    -0.200 F 
ENDBRANCH  44  72
BRANCH  59  83
ATOM     83  C   UNL A   1      45.799  32.609  28.844  1.00  0.00     0.064 A 
ATOM     84  C   UNL A   1      45.672  33.578  27.837  1.00  0.00     0.173 A 
ATOM     85  C   UNL A   1      46.255  33.023  30.103  1.00  0.00     0.173 A 
ATOM     86  F   UNL A   1      45.244  33.229  26.614  1.00  0.00    -0.203 F 
ATOM     87  C   UNL A   1      46.001  34.908  28.079  1.00  0.00     0.198 A 
ATOM     88  C   UNL A   1      46.561  34.359  30.349  1.00  0.00     0.198 A 
ATOM     89  F   UNL A   1      46.379  32.135  31.102  1.00  0.00    -0.203 F 
ATOM     90  F   UNL A   1      45.895  35.812  27.096  1.00  0.00    -0.200 F 
ATOM     91  C   UNL A   1      46.442  35.298  29.335  1.00  0.00     0.200 A 
ATOM     92  F   UNL A   1      46.964  34.738  31.569  1.00  0.00    -0.200 F 
ATOM     93  F   UNL A   1      46.746  36.581  29.570  1.00  0.00    -0.200 F 
ENDBRANCH  59  83
ENDBRANCH  24  27
ENDBRANCH  15  17
ENDBRANCH  10  13
ENDBRANCH   7  10
ENDBRANCH   4   7
ENDBRANCH   1   4
BRANCH   1  94
ATOM     94  C   UNL A   1      37.070  22.344  24.935  1.00  0.00    -0.036 C 
ATOM     95  H   UNL A   1      37.708  21.984  24.154  1.00  0.00     0.028 H 
ATOM     96  H   UNL A   1      36.342  23.055  24.605  1.00  0.00     0.028 H 
BRANCH  94  97
ATOM     97  C   UNL A   1      36.283  21.160  25.481  1.00  0.00     0.017 C 
ATOM     98  H   UNL A   1      36.968  20.378  25.733  1.00  0.00     0.049 H 
ATOM     99  H   UNL A   1      35.596  20.848  24.722  1.00  0.00     0.049 H 
BRANCH  97 100
ATOM    100  N   UNL A   1      35.517  21.505  26.657  1.00  0.00    -0.354 N 
ATOM    101  C   UNL A   1      34.174  21.534  26.866  1.00  0.00     0.244 C 
ATOM    102  H   UNL A   1      36.059  21.761  27.438  1.00  0.00     0.163 HD
ATOM    103  O   UNL A   1      33.797  21.923  27.974  1.00  0.00    -0.273 OA
BRANCH 101 104
ATOM    104  C   UNL A   1      33.158  21.193  25.764  1.00  0.00     0.131 C 
ATOM    105  H   UNL A   1      32.191  21.429  26.156  1.00  0.00     0.066 H 
BRANCH 104 106
ATOM    106  N   UNL A   1      33.422  22.014  24.581  1.00  0.00    -0.340 N 
ATOM    107  C   UNL A   1      32.639  22.837  23.833  1.00  0.00     0.243 C 
ATOM    108  H   UNL A   1      34.352  21.959  24.264  1.00  0.00     0.164 HD
ATOM    109  O   UNL A   1      33.221  23.343  22.865  1.00  0.00    -0.273 OA
BRANCH 107 110
ATOM    110  C   UNL A   1      31.099  22.965  24.001  1.00  0.00     0.112 C 
ATOM    111  H   UNL A   1      30.756  21.970  23.804  1.00  0.00     0.064 H 
BRANCH 110 112
ATOM    112  N   UNL A   1      30.572  23.216  25.342  1.00  0.00    -0.340 N 
ATOM    113  C   UNL A   1      31.008  23.952  26.413  1.00  0.00     0.251 C 
ATOM    114  H   UNL A   1      29.717  22.758  25.512  1.00  0.00     0.164 HD
ATOM    115  O   UNL A   1      30.469  23.725  27.498  1.00  0.00    -0.269 OA
BRANCH 113 116
ATOM    116  C   UNL A   1      32.039  25.034  26.353  1.00  0.00     0.040 A 
ATOM    117  C   UNL A   1      33.325  24.888  25.819  1.00  0.00    -0.047 A 
ATOM    118  C   UNL A   1      31.622  26.325  26.726  1.00  0.00    -0.047 A 
ATOM    119  C   UNL A   1      34.170  25.993  25.663  1.00  0.00    -0.026 A 
ATOM    120  H   UNL A   1      33.655  23.952  25.536  1.00  0.00     0.063 H 
ATOM    121  C   UNL A   1      32.462  27.432  26.568  1.00  0.00    -0.026 A 
ATOM    122  H   UNL A   1      30.679  26.459  27.123  1.00  0.00     0.063 H 
ATOM    123  C   UNL A   1      33.729  27.255  26.034  1.00  0.00     0.123 A 
ATOM    124  H   UNL A   1      35.117  25.869  25.273  1.00  0.00     0.065 H 
ATOM    125  H   UNL A   1      32.142  28.373  26.848  1.00  0.00     0.065 H 
ATOM    126  F   UNL A   1      34.530  28.313  25.856  1.00  0.00    -0.207 F 
ENDBRANCH 113 116
ENDBRANCH 110 112
BRANCH 110 127
ATOM    127  C   UNL A   1      30.517  23.961  22.975  1.00  0.00     0.004 C 
ATOM    128  H   UNL A   1      29.484  23.707  22.852  1.00  0.00     0.034 H 
ATOM    129  H   UNL A   1      31.160  23.843  22.128  1.00  0.00     0.034 H 
BRANCH 127 130
ATOM    130  C   UNL A   1      30.569  25.448  23.239  1.00  0.00    -0.020 A 
ATOM    131  C   UNL A   1      29.503  26.122  23.814  1.00  0.00     0.005 A 
ATOM    132  C   UNL A   1      31.574  26.447  22.970  1.00  0.00     0.003 A 
ATOM    133  N   UNL A   1      29.811  27.446  23.912  1.00  0.00    -0.361 N 
ATOM    134  H   UNL A   1      28.616  25.690  24.118  1.00  0.00     0.082 H 
ATOM    135  C   UNL A   1      31.066  27.676  23.408  1.00  0.00     0.046 A 
ATOM    136  C   UNL A   1      32.870  26.457  22.406  1.00  0.00    -0.053 A 
ATOM    137  H   UNL A   1      29.219  28.136  24.289  1.00  0.00     0.166 HD
ATOM    138  C   UNL A   1      31.773  28.883  23.315  1.00  0.00    -0.038 A 
ATOM    139  C   UNL A   1      33.596  27.653  22.312  1.00  0.00    -0.062 A 
ATOM    140  H   UNL A   1      33.284  25.578  22.060  1.00  0.00     0.063 H 
ATOM    141  C   UNL A   1      33.052  28.849  22.761  1.00  0.00    -0.060 A 
ATOM    142  H   UNL A   1      31.359  29.768  23.646  1.00  0.00     0.064 H 
ATOM    143  H   UNL A   1      34.544  27.644  21.907  1.00  0.00     0.062 H 
ATOM    144  H   UNL A   1      33.598  29.721  22.683  1.00  0.00     0.062 H 
ENDBRANCH 127 130
ENDBRANCH 110 127
ENDBRANCH 107 110
ENDBRANCH 104 106
BRANCH 104 145
ATOM    145  C   UNL A   1      33.054  19.698  25.422  1.00  0.00     0.072 C 
ATOM    146  H   UNL A   1      33.941  19.402  24.901  1.00  0.00     0.059 H 
ATOM    147  H   UNL A   1      32.180  19.561  24.821  1.00  0.00     0.059 H 
BRANCH 145 148
ATOM    148  O   UNL A   1      32.913  18.884  26.582  1.00  0.00    -0.394 OA
ATOM    149  H   UNL A   1      32.204  19.237  27.141  1.00  0.00     0.210 HD
ENDBRANCH 145 148
ENDBRANCH 104 145
ENDBRANCH 101 104
ENDBRANCH  97 100
ENDBRANCH  94  97
ENDBRANCH   1  94
TORSDOF 21
ENDMDL
MODEL 10
REMARK VINA RESULT:     -11.6      2.069      7.395
REMARK SMILES O=C(NCCCCCCNC(=O)[C@H](CO)NC(=O)[C@H](Cc1c[nH]c2ccccc12)NC(=O)c1ccc(F)cc1)c1ccc(-c2c3nc(c(-c4c(F)c(F)c(F)c(F)c4F)c4ccc([nH]4)c(-c4c(F)c(F)c(F)c(F)c4F)c4nc(c(-c5c(F)c(F)c(F)c(F)c5F)c5ccc2[nH]5)C=C4)C=C3)cc1
REMARK SMILES IDX 7 1 6 4 5 7 4 10 3 13 1 14 2 15 40 17 41 18 102 19 42 20
REMARK SMILES IDX 101 22 43 24 44 27 45 28 95 29 46 30 100 31 94 32 96 33
REMARK SMILES IDX 47 34 99 35 93 37 92 39 48 41 80 44 60 45 79 46 61 47 64 48
REMARK SMILES IDX 78 49 97 50 62 51 63 53 77 55 98 56 65 59 49 61 50 62 58 63
REMARK SMILES IDX 51 64 52 65 56 66 59 67 53 68 54 69 57 70 55 71 81 72 82 73
REMARK SMILES IDX 90 74 83 75 84 76 88 77 91 78 85 79 86 80 89 81 87 82 66 83
REMARK SMILES IDX 67 84 75 85 68 86 69 87 73 88 76 89 70 90 71 91 74 92 72 93
REMARK SMILES IDX 8 94 9 97 10 100 11 101 12 103 13 104 16 106 17 107 18 109
REMARK SMILES IDX 19 110 30 112 31 113 32 115 33 116 34 117 39 118 35 119
REMARK SMILES IDX 38 121 36 123 37 126 20 127 21 130 22 131 29 132 23 133
REMARK SMILES IDX 24 135 28 136 25 138 27 139 26 141 14 145 15 148
REMARK H PARENT 7 2 7 3 6 5 6 6 5 8 5 9 4 11 4 12 3 16 41 21 102 23 42 25
REMARK H PARENT 101 26 100 36 94 38 96 40 99 42 93 43 61 52 64 54 97 57 62 58
REMARK H PARENT 98 60 8 95 8 96 9 98 9 99 10 102 13 105 16 108 19 111 30 114
REMARK H PARENT 34 120 39 122 35 124 38 125 20 128 20 129 22 134 23 137 28 140
REMARK H PARENT 25 142 27 143 26 144 14 146 14 147 15 149
REMARK Flexibility Score: inf
ROOT
ATOM      1  C   UNL A   1      33.805  25.981  23.535  1.00  0.00    -0.052 C 
ATOM      2  H   UNL A   1      33.442  25.879  24.536  1.00  0.00     0.027 H 
ATOM      3  H   UNL A   1      34.820  25.674  23.396  1.00  0.00     0.027 H 
ENDROOT
BRANCH   1   4
ATOM      4  C   UNL A   1      33.781  27.471  23.181  1.00  0.00    -0.052 C 
ATOM      5  H   UNL A   1      34.791  27.824  23.186  1.00  0.00     0.027 H 
ATOM      6  H   UNL A   1      33.297  27.530  22.228  1.00  0.00     0.027 H 
BRANCH   4   7
ATOM      7  C   UNL A   1      32.967  28.371  24.108  1.00  0.00    -0.036 C 
ATOM      8  H   UNL A   1      32.543  29.155  23.515  1.00  0.00     0.028 H 
ATOM      9  H   UNL A   1      32.242  27.734  24.569  1.00  0.00     0.028 H 
BRANCH   7  10
ATOM     10  C   UNL A   1      33.737  29.016  25.252  1.00  0.00     0.018 C 
ATOM     11  H   UNL A   1      33.871  28.287  26.022  1.00  0.00     0.049 H 
ATOM     12  H   UNL A   1      34.665  29.360  24.847  1.00  0.00     0.049 H 
BRANCH  10  13
ATOM     13  N   UNL A   1      33.072  30.171  25.826  1.00  0.00    -0.352 N 
ATOM     14  O   UNL A   1      32.750  31.855  27.299  1.00  0.00    -0.269 OA
ATOM     15  C   UNL A   1      33.470  30.951  26.885  1.00  0.00     0.251 C 
ATOM     16  H   UNL A   1      32.222  30.429  25.401  1.00  0.00     0.163 HD
BRANCH  15  17
ATOM     17  C   UNL A   1      34.755  30.664  27.557  1.00  0.00     0.039 A 
ATOM     18  C   UNL A   1      35.042  29.384  28.038  1.00  0.00    -0.049 A 
ATOM     19  C   UNL A   1      35.672  31.704  27.737  1.00  0.00    -0.049 A 
ATOM     20  C   UNL A   1      36.166  29.184  28.831  1.00  0.00    -0.053 A 
ATOM     21  H   UNL A   1      34.422  28.592  27.806  1.00  0.00     0.063 H 
ATOM     22  C   UNL A   1      36.845  31.478  28.460  1.00  0.00    -0.053 A 
ATOM     23  H   UNL A   1      35.481  32.636  27.336  1.00  0.00     0.063 H 
ATOM     24  C   UNL A   1      37.083  30.227  29.047  1.00  0.00    -0.014 A 
ATOM     25  H   UNL A   1      36.328  28.261  29.264  1.00  0.00     0.063 H 
ATOM     26  H   UNL A   1      37.540  32.235  28.563  1.00  0.00     0.063 H 
BRANCH  24  27
ATOM     27  C   UNL A   1      38.301  29.964  29.855  1.00  0.00     0.031 A 
ATOM     28  C   UNL A   1      39.471  29.217  29.282  1.00  0.00     0.074 A 
ATOM     29  C   UNL A   1      38.360  30.453  31.108  1.00  0.00     0.049 A 
ATOM     30  N   UNL A   1      40.624  28.940  29.839  1.00  0.00    -0.248 NA
ATOM     31  C   UNL A   1      39.333  28.707  27.909  1.00  0.00    -0.034 C 
ATOM     32  C   UNL A   1      37.280  31.187  31.772  1.00  0.00    -0.036 A 
ATOM     33  N   UNL A   1      39.371  30.438  32.034  1.00  0.00    -0.354 N 
ATOM     34  C   UNL A   1      41.338  28.213  28.896  1.00  0.00     0.074 A 
ATOM     35  C   UNL A   1      40.483  28.069  27.738  1.00  0.00    -0.034 C 
ATOM     36  H   UNL A   1      38.546  28.819  27.250  1.00  0.00     0.065 H 
ATOM     37  C   UNL A   1      37.707  31.604  32.972  1.00  0.00    -0.036 A 
ATOM     38  H   UNL A   1      36.341  31.355  31.379  1.00  0.00     0.065 H 
ATOM     39  C   UNL A   1      39.067  31.119  33.185  1.00  0.00     0.049 A 
ATOM     40  H   UNL A   1      40.230  29.981  31.887  1.00  0.00     0.167 HD
ATOM     41  C   UNL A   1      42.598  27.721  28.989  1.00  0.00     0.037 A 
ATOM     42  H   UNL A   1      40.734  27.537  26.891  1.00  0.00     0.065 H 
ATOM     43  H   UNL A   1      37.163  32.176  33.636  1.00  0.00     0.065 H 
ATOM     44  C   UNL A   1      39.798  31.330  34.295  1.00  0.00     0.037 A 
ATOM     45  C   UNL A   1      43.451  27.883  30.138  1.00  0.00     0.049 A 
ATOM     46  C   UNL A   1      41.187  30.770  34.374  1.00  0.00     0.074 A 
ATOM     47  C   UNL A   1      44.748  27.433  30.320  1.00  0.00    -0.036 A 
ATOM     48  N   UNL A   1      43.095  28.550  31.301  1.00  0.00    -0.354 N 
ATOM     49  N   UNL A   1      41.852  30.089  33.473  1.00  0.00    -0.248 NA
ATOM     50  C   UNL A   1      41.925  31.001  35.622  1.00  0.00    -0.034 C 
ATOM     51  C   UNL A   1      45.162  27.795  31.606  1.00  0.00    -0.036 A 
ATOM     52  H   UNL A   1      45.312  26.918  29.626  1.00  0.00     0.065 H 
ATOM     53  C   UNL A   1      44.141  28.511  32.209  1.00  0.00     0.049 A 
ATOM     54  H   UNL A   1      42.226  28.986  31.459  1.00  0.00     0.167 HD
ATOM     55  C   UNL A   1      43.087  29.815  34.040  1.00  0.00     0.074 A 
ATOM     56  C   UNL A   1      43.088  30.421  35.355  1.00  0.00    -0.034 C 
ATOM     57  H   UNL A   1      41.619  31.485  36.480  1.00  0.00     0.065 H 
ATOM     58  H   UNL A   1      46.075  27.568  32.032  1.00  0.00     0.065 H 
ATOM     59  C   UNL A   1      44.124  29.117  33.517  1.00  0.00     0.037 A 
ATOM     60  H   UNL A   1      43.892  30.405  36.003  1.00  0.00     0.065 H 
BRANCH  41  61
ATOM     61  C   UNL A   1      43.135  26.951  27.818  1.00  0.00     0.064 A 
ATOM     62  C   UNL A   1      43.008  25.554  27.765  1.00  0.00     0.173 A 
ATOM     63  C   UNL A   1      43.832  27.586  26.779  1.00  0.00     0.173 A 
ATOM     64  F   UNL A   1      42.357  24.898  28.737  1.00  0.00    -0.203 F 
ATOM     65  C   UNL A   1      43.565  24.822  26.720  1.00  0.00     0.198 A 
ATOM     66  C   UNL A   1      44.367  26.852  25.722  1.00  0.00     0.198 A 
ATOM     67  F   UNL A   1      43.972  28.920  26.776  1.00  0.00    -0.203 F 
ATOM     68  F   UNL A   1      43.453  23.487  26.705  1.00  0.00    -0.200 F 
ATOM     69  C   UNL A   1      44.240  25.471  25.698  1.00  0.00     0.200 A 
ATOM     70  F   UNL A   1      44.999  27.483  24.723  1.00  0.00    -0.200 F 
ATOM     71  F   UNL A   1      44.766  24.766  24.686  1.00  0.00    -0.200 F 
ENDBRANCH  41  61
BRANCH  44  72
ATOM     72  C   UNL A   1      39.218  32.133  35.401  1.00  0.00     0.064 A 
ATOM     73  C   UNL A   1      39.471  33.508  35.512  1.00  0.00     0.173 A 
ATOM     74  C   UNL A   1      38.457  31.522  36.406  1.00  0.00     0.173 A 
ATOM     75  F   UNL A   1      40.203  34.133  34.579  1.00  0.00    -0.203 F 
ATOM     76  C   UNL A   1      39.009  34.236  36.605  1.00  0.00     0.198 A 
ATOM     77  C   UNL A   1      37.974  32.259  37.486  1.00  0.00     0.198 A 
ATOM     78  F   UNL A   1      38.178  30.212  36.332  1.00  0.00    -0.203 F 
ATOM     79  F   UNL A   1      39.305  35.539  36.713  1.00  0.00    -0.200 F 
ATOM     80  C   UNL A   1      38.260  33.612  37.590  1.00  0.00     0.200 A 
ATOM     81  F   UNL A   1      37.235  31.655  38.427  1.00  0.00    -0.200 F 
ATOM     82  F   UNL A   1      37.816  34.312  38.641  1.00  0.00    -0.200 F 
ENDBRANCH  44  72
BRANCH  59  83
ATOM     83  C   UNL A   1      45.354  28.977  34.362  1.00  0.00     0.064 A 
ATOM     84  C   UNL A   1      46.371  29.942  34.305  1.00  0.00     0.173 A 
ATOM     85  C   UNL A   1      45.551  27.860  35.187  1.00  0.00     0.173 A 
ATOM     86  F   UNL A   1      46.231  31.025  33.527  1.00  0.00    -0.203 F 
ATOM     87  C   UNL A   1      47.545  29.788  35.037  1.00  0.00     0.198 A 
ATOM     88  C   UNL A   1      46.716  27.722  35.936  1.00  0.00     0.198 A 
ATOM     89  F   UNL A   1      44.601  26.918  35.285  1.00  0.00    -0.203 F 
ATOM     90  F   UNL A   1      48.513  30.711  34.948  1.00  0.00    -0.200 F 
ATOM     91  C   UNL A   1      47.715  28.681  35.854  1.00  0.00     0.200 A 
ATOM     92  F   UNL A   1      46.870  26.663  36.744  1.00  0.00    -0.200 F 
ATOM     93  F   UNL A   1      48.840  28.541  36.568  1.00  0.00    -0.200 F 
ENDBRANCH  59  83
ENDBRANCH  24  27
ENDBRANCH  15  17
ENDBRANCH  10  13
ENDBRANCH   7  10
ENDBRANCH   4   7
ENDBRANCH   1   4
BRANCH   1  94
ATOM     94  C   UNL A   1      32.975  25.052  22.641  1.00  0.00    -0.036 C 
ATOM     95  H   UNL A   1      33.600  24.236  22.344  1.00  0.00     0.028 H 
ATOM     96  H   UNL A   1      32.637  25.655  21.825  1.00  0.00     0.028 H 
BRANCH  94  97
ATOM     97  C   UNL A   1      31.721  24.474  23.282  1.00  0.00     0.017 C 
ATOM     98  H   UNL A   1      31.856  23.421  23.415  1.00  0.00     0.049 H 
ATOM     99  H   UNL A   1      30.897  24.683  22.633  1.00  0.00     0.049 H 
BRANCH  97 100
ATOM    100  N   UNL A   1      31.435  25.071  24.567  1.00  0.00    -0.354 N 
ATOM    101  C   UNL A   1      31.261  24.504  25.791  1.00  0.00     0.244 C 
ATOM    102  H   UNL A   1      31.353  26.051  24.554  1.00  0.00     0.163 HD
ATOM    103  O   UNL A   1      30.973  25.268  26.716  1.00  0.00    -0.273 OA
BRANCH 101 104
ATOM    104  C   UNL A   1      31.327  22.985  26.016  1.00  0.00     0.131 C 
ATOM    105  H   UNL A   1      31.441  22.537  25.051  1.00  0.00     0.066 H 
BRANCH 104 106
ATOM    106  N   UNL A   1      32.489  22.662  26.846  1.00  0.00    -0.340 N 
ATOM    107  C   UNL A   1      33.700  22.106  26.568  1.00  0.00     0.243 C 
ATOM    108  H   UNL A   1      32.371  22.893  27.796  1.00  0.00     0.164 HD
ATOM    109  O   UNL A   1      34.423  21.954  27.560  1.00  0.00    -0.273 OA
BRANCH 107 110
ATOM    110  C   UNL A   1      34.077  21.485  25.195  1.00  0.00     0.112 C 
ATOM    111  H   UNL A   1      34.340  20.480  25.453  1.00  0.00     0.064 H 
BRANCH 110 112
ATOM    112  N   UNL A   1      33.011  21.286  24.213  1.00  0.00    -0.340 N 
ATOM    113  C   UNL A   1      32.535  20.196  23.534  1.00  0.00     0.251 C 
ATOM    114  H   UNL A   1      32.530  22.117  23.994  1.00  0.00     0.164 HD
ATOM    115  O   UNL A   1      31.808  20.420  22.564  1.00  0.00    -0.269 OA
BRANCH 113 116
ATOM    116  C   UNL A   1      32.786  18.770  23.909  1.00  0.00     0.040 A 
ATOM    117  C   UNL A   1      33.490  17.846  23.127  1.00  0.00    -0.047 A 
ATOM    118  C   UNL A   1      32.411  18.383  25.210  1.00  0.00    -0.047 A 
ATOM    119  C   UNL A   1      33.810  16.577  23.624  1.00  0.00    -0.026 A 
ATOM    120  H   UNL A   1      33.777  18.104  22.170  1.00  0.00     0.063 H 
ATOM    121  C   UNL A   1      32.733  17.118  25.711  1.00  0.00    -0.026 A 
ATOM    122  H   UNL A   1      31.891  19.046  25.805  1.00  0.00     0.063 H 
ATOM    123  C   UNL A   1      33.433  16.226  24.912  1.00  0.00     0.123 A 
ATOM    124  H   UNL A   1      34.324  15.905  23.034  1.00  0.00     0.065 H 
ATOM    125  H   UNL A   1      32.450  16.849  26.667  1.00  0.00     0.065 H 
ATOM    126  F   UNL A   1      33.767  15.023  25.394  1.00  0.00    -0.207 F 
ENDBRANCH 113 116
ENDBRANCH 110 112
BRANCH 110 127
ATOM    127  C   UNL A   1      35.281  22.225  24.572  1.00  0.00     0.004 C 
ATOM    128  H   UNL A   1      35.124  23.269  24.748  1.00  0.00     0.034 H 
ATOM    129  H   UNL A   1      35.276  21.888  23.557  1.00  0.00     0.034 H 
BRANCH 127 130
ATOM    130  C   UNL A   1      36.687  21.915  25.029  1.00  0.00    -0.020 A 
ATOM    131  C   UNL A   1      37.265  20.674  24.812  1.00  0.00     0.005 A 
ATOM    132  C   UNL A   1      37.667  22.690  25.752  1.00  0.00     0.003 A 
ATOM    133  N   UNL A   1      38.519  20.664  25.346  1.00  0.00    -0.361 N 
ATOM    134  H   UNL A   1      36.816  19.882  24.324  1.00  0.00     0.082 H 
ATOM    135  C   UNL A   1      38.793  21.878  25.924  1.00  0.00     0.046 A 
ATOM    136  C   UNL A   1      37.736  23.998  26.282  1.00  0.00    -0.053 A 
ATOM    137  H   UNL A   1      39.137  19.898  25.321  1.00  0.00     0.166 HD
ATOM    138  C   UNL A   1      39.958  22.299  26.582  1.00  0.00    -0.038 A 
ATOM    139  C   UNL A   1      38.894  24.440  26.935  1.00  0.00    -0.062 A 
ATOM    140  H   UNL A   1      36.926  24.631  26.189  1.00  0.00     0.063 H 
ATOM    141  C   UNL A   1      39.990  23.600  27.082  1.00  0.00    -0.060 A 
ATOM    142  H   UNL A   1      40.766  21.666  26.691  1.00  0.00     0.064 H 
ATOM    143  H   UNL A   1      38.934  25.401  27.309  1.00  0.00     0.062 H 
ATOM    144  H   UNL A   1      40.834  23.941  27.567  1.00  0.00     0.062 H 
ENDBRANCH 127 130
ENDBRANCH 110 127
ENDBRANCH 107 110
ENDBRANCH 104 106
BRANCH 104 145
ATOM    145  C   UNL A   1      30.033  22.355  26.557  1.00  0.00     0.072 C 
ATOM    146  H   UNL A   1      30.214  21.320  26.760  1.00  0.00     0.059 H 
ATOM    147  H   UNL A   1      29.274  22.483  25.814  1.00  0.00     0.059 H 
BRANCH 145 148
ATOM    148  O   UNL A   1      29.582  22.983  27.752  1.00  0.00    -0.394 OA
ATOM    149  H   UNL A   1      30.337  23.144  28.338  1.00  0.00     0.210 HD
ENDBRANCH 145 148
ENDBRANCH 104 145
ENDBRANCH 101 104
ENDBRANCH  97 100
ENDBRANCH  94  97
ENDBRANCH   1  94
TORSDOF 21
ENDMDL
