MODEL 1
REMARK VINA RESULT:     -10.3      0.000      0.000
REMARK SMILES CC(C)C[C@H](NC(=O)CNC(=O)[C@@H]([NH3+])C(C)C)C(=O)NCCCCCCNC(=O)c1ccc(-c2c3nc(c(-c4c(F)c(F)c(F)c(F)c4F)c4ccc([nH]4)c(-c4c(F)c(F)c(F)c(F)c4F)c4nc(c(-c5c(F)c(F)c(F)c(F)c5F)c5ccc2[nH]5)C=C4)C=C3)cc1
REMARK SMILES IDX 21 1 20 4 18 5 19 6 5 8 4 10 2 13 1 15 3 19 6 23 7 24 8 26
REMARK SMILES IDX 9 27 10 30 11 31 12 33 13 34 14 36 15 40 16 42 17 46 22 50
REMARK SMILES IDX 23 53 24 56 25 59 26 62 27 65 28 66 29 68 30 69 31 70 92 71
REMARK SMILES IDX 32 72 91 74 33 76 34 79 35 80 85 81 36 82 90 83 84 84 86 85
REMARK SMILES IDX 37 86 89 87 83 89 82 91 38 93 70 96 50 97 69 98 51 99 54 100
REMARK SMILES IDX 68 101 87 102 52 103 53 105 67 107 88 108 55 111 39 113
REMARK SMILES IDX 40 114 48 115 41 116 42 117 46 118 49 119 43 120 44 121
REMARK SMILES IDX 47 122 45 123 71 124 72 125 80 126 73 127 74 128 78 129
REMARK SMILES IDX 81 130 75 131 76 132 79 133 77 134 56 135 57 136 65 137
REMARK SMILES IDX 58 138 59 139 63 140 66 141 60 142 61 143 64 144 62 145
REMARK H PARENT 21 2 21 3 20 7 5 9 4 11 4 12 2 14 1 16 1 17 1 18 3 20 3 21
REMARK H PARENT 3 22 6 25 9 28 9 29 10 32 13 35 14 37 14 38 14 39 15 41 16 43
REMARK H PARENT 16 44 16 45 17 47 17 48 17 49 22 51 22 52 23 54 23 55 24 57
REMARK H PARENT 24 58 25 60 25 61 26 63 26 64 27 67 31 73 92 75 32 77 91 78
REMARK H PARENT 90 88 84 90 86 92 89 94 83 95 51 104 54 106 87 109 52 110
REMARK H PARENT 88 112
REMARK Flexibility Score: inf
ROOT
ATOM      1  C   UNL A   1      30.453  25.728  23.415  1.00  0.00     0.017 C 
ATOM      2  H   UNL A   1      30.482  24.682  23.632  1.00  0.00     0.049 H 
ATOM      3  H   UNL A   1      29.563  25.975  22.875  1.00  0.00     0.049 H 
ENDROOT
BRANCH   1   4
ATOM      4  N   UNL A   1      31.596  26.075  22.601  1.00  0.00    -0.354 N 
ATOM      5  C   UNL A   1      32.817  25.484  22.503  1.00  0.00     0.242 C 
ATOM      6  O   UNL A   1      33.580  25.891  21.621  1.00  0.00    -0.273 OA
ATOM      7  H   UNL A   1      31.471  26.864  22.027  1.00  0.00     0.163 HD
BRANCH   5   8
ATOM      8  C   UNL A   1      33.191  24.266  23.365  1.00  0.00     0.108 C 
ATOM      9  H   UNL A   1      32.594  24.330  24.252  1.00  0.00     0.063 H 
BRANCH   8  10
ATOM     10  C   UNL A   1      34.651  24.304  23.839  1.00  0.00    -0.021 C 
ATOM     11  H   UNL A   1      35.075  23.332  23.698  1.00  0.00     0.030 H 
ATOM     12  H   UNL A   1      35.139  25.061  23.261  1.00  0.00     0.030 H 
BRANCH  10  13
ATOM     13  C   UNL A   1      34.833  24.700  25.325  1.00  0.00    -0.045 C 
ATOM     14  H   UNL A   1      35.244  25.689  25.329  1.00  0.00     0.030 H 
BRANCH  13  15
ATOM     15  C   UNL A   1      33.518  24.748  26.100  1.00  0.00    -0.063 C 
ATOM     16  H   UNL A   1      33.679  25.221  27.046  1.00  0.00     0.023 H 
ATOM     17  H   UNL A   1      33.160  23.752  26.257  1.00  0.00     0.023 H 
ATOM     18  H   UNL A   1      32.795  25.304  25.541  1.00  0.00     0.023 H 
ENDBRANCH  13  15
BRANCH  13  19
ATOM     19  C   UNL A   1      35.776  23.712  26.011  1.00  0.00    -0.063 C 
ATOM     20  H   UNL A   1      36.134  23.004  25.294  1.00  0.00     0.023 H 
ATOM     21  H   UNL A   1      35.249  23.197  26.788  1.00  0.00     0.023 H 
ATOM     22  H   UNL A   1      36.604  24.241  26.433  1.00  0.00     0.023 H 
ENDBRANCH  13  19
ENDBRANCH  10  13
ENDBRANCH   8  10
BRANCH   8  23
ATOM     23  N   UNL A   1      32.831  22.997  22.730  1.00  0.00    -0.343 N 
ATOM     24  C   UNL A   1      32.686  21.756  23.272  1.00  0.00     0.240 C 
ATOM     25  H   UNL A   1      32.668  23.049  21.761  1.00  0.00     0.164 HD
ATOM     26  O   UNL A   1      32.143  20.906  22.556  1.00  0.00    -0.273 OA
BRANCH  24  27
ATOM     27  C   UNL A   1      33.030  21.434  24.733  1.00  0.00     0.097 C 
ATOM     28  H   UNL A   1      32.706  22.254  25.337  1.00  0.00     0.059 H 
ATOM     29  H   UNL A   1      34.088  21.272  24.756  1.00  0.00     0.059 H 
BRANCH  27  30
ATOM     30  N   UNL A   1      32.431  20.223  25.265  1.00  0.00    -0.342 N 
ATOM     31  C   UNL A   1      32.829  18.925  25.169  1.00  0.00     0.278 C 
ATOM     32  H   UNL A   1      31.603  20.364  25.778  1.00  0.00     0.164 HD
ATOM     33  O   UNL A   1      32.152  18.095  25.785  1.00  0.00    -0.268 OA
BRANCH  31  34
ATOM     34  C   UNL A   1      34.095  18.475  24.389  1.00  0.00     0.166 C 
ATOM     35  H   UNL A   1      34.048  18.913  23.415  1.00  0.00     0.107 H 
BRANCH  34  36
ATOM     36  N   UNL A   1      35.341  18.982  25.000  1.00  0.00    -0.347 N 
ATOM     37  H   UNL A   1      35.158  19.263  25.963  1.00  0.00     0.345 HD
ATOM     38  H   UNL A   1      35.678  19.784  24.469  1.00  0.00     0.345 HD
ATOM     39  H   UNL A   1      36.048  18.247  24.990  1.00  0.00     0.345 HD
ENDBRANCH  34  36
BRANCH  34  40
ATOM     40  C   UNL A   1      34.110  16.941  24.212  1.00  0.00     0.015 C 
ATOM     41  H   UNL A   1      33.140  16.587  24.497  1.00  0.00     0.036 H 
BRANCH  40  42
ATOM     42  C   UNL A   1      34.402  16.573  22.751  1.00  0.00    -0.057 C 
ATOM     43  H   UNL A   1      35.438  16.327  22.646  1.00  0.00     0.024 H 
ATOM     44  H   UNL A   1      34.166  17.404  22.120  1.00  0.00     0.024 H 
ATOM     45  H   UNL A   1      33.806  15.730  22.469  1.00  0.00     0.024 H 
ENDBRANCH  40  42
BRANCH  40  46
ATOM     46  C   UNL A   1      35.160  16.271  25.106  1.00  0.00    -0.057 C 
ATOM     47  H   UNL A   1      34.680  15.834  25.956  1.00  0.00     0.024 H 
ATOM     48  H   UNL A   1      35.869  17.003  25.434  1.00  0.00     0.024 H 
ATOM     49  H   UNL A   1      35.667  15.508  24.553  1.00  0.00     0.024 H 
ENDBRANCH  40  46
ENDBRANCH  34  40
ENDBRANCH  31  34
ENDBRANCH  27  30
ENDBRANCH  24  27
ENDBRANCH   8  23
ENDBRANCH   5   8
ENDBRANCH   1   4
BRANCH   1  50
ATOM     50  C   UNL A   1      30.459  26.508  24.724  1.00  0.00    -0.036 C 
ATOM     51  H   UNL A   1      31.096  25.999  25.418  1.00  0.00     0.028 H 
ATOM     52  H   UNL A   1      29.445  26.558  25.062  1.00  0.00     0.028 H 
BRANCH  50  53
ATOM     53  C   UNL A   1      30.955  27.951  24.580  1.00  0.00    -0.052 C 
ATOM     54  H   UNL A   1      30.105  28.582  24.430  1.00  0.00     0.027 H 
ATOM     55  H   UNL A   1      31.635  27.954  23.755  1.00  0.00     0.027 H 
BRANCH  53  56
ATOM     56  C   UNL A   1      31.737  28.484  25.787  1.00  0.00    -0.052 C 
ATOM     57  H   UNL A   1      31.443  27.921  26.648  1.00  0.00     0.027 H 
ATOM     58  H   UNL A   1      31.501  29.525  25.860  1.00  0.00     0.027 H 
BRANCH  56  59
ATOM     59  C   UNL A   1      33.259  28.396  25.658  1.00  0.00    -0.036 C 
ATOM     60  H   UNL A   1      33.583  29.176  25.000  1.00  0.00     0.028 H 
ATOM     61  H   UNL A   1      33.480  27.419  25.285  1.00  0.00     0.028 H 
BRANCH  59  62
ATOM     62  C   UNL A   1      34.009  28.543  26.975  1.00  0.00     0.018 C 
ATOM     63  H   UNL A   1      35.039  28.303  26.816  1.00  0.00     0.049 H 
ATOM     64  H   UNL A   1      33.563  27.878  27.685  1.00  0.00     0.049 H 
BRANCH  62  65
ATOM     65  N   UNL A   1      33.917  29.893  27.504  1.00  0.00    -0.352 N 
ATOM     66  C   UNL A   1      34.814  30.578  28.280  1.00  0.00     0.251 C 
ATOM     67  H   UNL A   1      33.095  30.383  27.274  1.00  0.00     0.163 HD
ATOM     68  O   UNL A   1      34.494  31.635  28.817  1.00  0.00    -0.269 OA
BRANCH  66  69
ATOM     69  C   UNL A   1      36.166  30.023  28.487  1.00  0.00     0.039 A 
ATOM     70  C   UNL A   1      37.108  30.148  27.466  1.00  0.00    -0.049 A 
ATOM     71  C   UNL A   1      36.506  29.400  29.693  1.00  0.00    -0.049 A 
ATOM     72  C   UNL A   1      38.412  29.703  27.675  1.00  0.00    -0.053 A 
ATOM     73  H   UNL A   1      36.841  30.568  26.560  1.00  0.00     0.063 H 
ATOM     74  C   UNL A   1      37.826  29.030  29.929  1.00  0.00    -0.053 A 
ATOM     75  H   UNL A   1      35.781  29.216  30.403  1.00  0.00     0.063 H 
ATOM     76  C   UNL A   1      38.790  29.178  28.922  1.00  0.00    -0.014 A 
ATOM     77  H   UNL A   1      39.104  29.760  26.910  1.00  0.00     0.063 H 
ATOM     78  H   UNL A   1      38.095  28.646  30.847  1.00  0.00     0.063 H 
BRANCH  76  79
ATOM     79  C   UNL A   1      40.200  28.802  29.195  1.00  0.00     0.031 A 
ATOM     80  C   UNL A   1      41.122  29.759  29.891  1.00  0.00     0.074 A 
ATOM     81  C   UNL A   1      40.662  27.617  28.753  1.00  0.00     0.049 A 
ATOM     82  N   UNL A   1      42.394  29.626  30.172  1.00  0.00    -0.248 NA
ATOM     83  C   UNL A   1      40.547  31.048  30.302  1.00  0.00    -0.034 C 
ATOM     84  C   UNL A   1      39.875  26.629  28.013  1.00  0.00    -0.036 A 
ATOM     85  N   UNL A   1      41.907  27.048  28.849  1.00  0.00    -0.354 N 
ATOM     86  C   UNL A   1      42.769  30.812  30.788  1.00  0.00     0.074 A 
ATOM     87  C   UNL A   1      41.610  31.678  30.779  1.00  0.00    -0.034 C 
ATOM     88  H   UNL A   1      39.570  31.376  30.237  1.00  0.00     0.065 H 
ATOM     89  C   UNL A   1      40.650  25.569  27.739  1.00  0.00    -0.036 A 
ATOM     90  H   UNL A   1      38.884  26.732  27.745  1.00  0.00     0.065 H 
ATOM     91  C   UNL A   1      41.996  25.819  28.244  1.00  0.00     0.049 A 
ATOM     92  H   UNL A   1      42.663  27.480  29.308  1.00  0.00     0.167 HD
ATOM     93  C   UNL A   1      43.965  31.138  31.337  1.00  0.00     0.037 A 
ATOM     94  H   UNL A   1      41.610  32.658  31.101  1.00  0.00     0.065 H 
ATOM     95  H   UNL A   1      40.343  24.713  27.249  1.00  0.00     0.065 H 
ATOM     96  C   UNL A   1      43.048  24.991  28.101  1.00  0.00     0.037 A 
ATOM     97  C   UNL A   1      45.115  30.271  31.339  1.00  0.00     0.049 A 
ATOM     98  C   UNL A   1      44.373  25.383  28.692  1.00  0.00     0.074 A 
ATOM     99  C   UNL A   1      46.355  30.481  31.914  1.00  0.00    -0.036 A 
ATOM    100  N   UNL A   1      45.168  29.028  30.721  1.00  0.00    -0.354 N 
ATOM    101  N   UNL A   1      44.697  26.473  29.345  1.00  0.00    -0.248 NA
ATOM    102  C   UNL A   1      45.477  24.429  28.532  1.00  0.00    -0.034 C 
ATOM    103  C   UNL A   1      47.178  29.397  31.590  1.00  0.00    -0.036 A 
ATOM    104  H   UNL A   1      46.627  31.299  32.482  1.00  0.00     0.065 H 
ATOM    105  C   UNL A   1      46.432  28.478  30.869  1.00  0.00     0.049 A 
ATOM    106  H   UNL A   1      44.419  28.600  30.248  1.00  0.00     0.167 HD
ATOM    107  C   UNL A   1      46.035  26.331  29.688  1.00  0.00     0.074 A 
ATOM    108  C   UNL A   1      46.456  25.036  29.189  1.00  0.00    -0.034 C 
ATOM    109  H   UNL A   1      45.489  23.522  28.038  1.00  0.00     0.065 H 
ATOM    110  H   UNL A   1      48.173  29.298  31.847  1.00  0.00     0.065 H 
ATOM    111  C   UNL A   1      46.841  27.194  30.353  1.00  0.00     0.037 A 
ATOM    112  H   UNL A   1      47.397  24.638  29.329  1.00  0.00     0.065 H 
BRANCH  93 113
ATOM    113  C   UNL A   1      44.085  32.498  31.968  1.00  0.00     0.064 A 
ATOM    114  C   UNL A   1      44.541  33.610  31.242  1.00  0.00     0.173 A 
ATOM    115  C   UNL A   1      43.737  32.695  33.311  1.00  0.00     0.173 A 
ATOM    116  F   UNL A   1      44.897  33.477  29.955  1.00  0.00    -0.203 F 
ATOM    117  C   UNL A   1      44.690  34.855  31.850  1.00  0.00     0.198 A 
ATOM    118  C   UNL A   1      43.850  33.950  33.906  1.00  0.00     0.198 A 
ATOM    119  F   UNL A   1      43.287  31.671  34.053  1.00  0.00    -0.203 F 
ATOM    120  F   UNL A   1      45.194  35.882  31.153  1.00  0.00    -0.200 F 
ATOM    121  C   UNL A   1      44.339  35.024  33.180  1.00  0.00     0.200 A 
ATOM    122  F   UNL A   1      43.495  34.116  35.189  1.00  0.00    -0.200 F 
ATOM    123  F   UNL A   1      44.482  36.222  33.765  1.00  0.00    -0.200 F 
ENDBRANCH  93 113
BRANCH  96 124
ATOM    124  C   UNL A   1      42.876  23.710  27.369  1.00  0.00     0.064 A 
ATOM    125  C   UNL A   1      43.216  23.598  26.014  1.00  0.00     0.173 A 
ATOM    126  C   UNL A   1      42.397  22.562  28.019  1.00  0.00     0.173 A 
ATOM    127  F   UNL A   1      43.661  24.671  25.345  1.00  0.00    -0.203 F 
ATOM    128  C   UNL A   1      43.074  22.390  25.335  1.00  0.00     0.198 A 
ATOM    129  C   UNL A   1      42.285  21.347  27.347  1.00  0.00     0.198 A 
ATOM    130  F   UNL A   1      42.066  22.614  29.317  1.00  0.00    -0.203 F 
ATOM    131  F   UNL A   1      43.374  22.318  24.031  1.00  0.00    -0.200 F 
ATOM    132  C   UNL A   1      42.618  21.263  26.003  1.00  0.00     0.200 A 
ATOM    133  F   UNL A   1      41.862  20.258  28.002  1.00  0.00    -0.200 F 
ATOM    134  F   UNL A   1      42.498  20.097  25.353  1.00  0.00    -0.200 F 
ENDBRANCH  96 124
BRANCH 111 135
ATOM    135  C   UNL A   1      48.262  26.765  30.589  1.00  0.00     0.064 A 
ATOM    136  C   UNL A   1      48.615  25.956  31.680  1.00  0.00     0.173 A 
ATOM    137  C   UNL A   1      49.276  27.135  29.693  1.00  0.00     0.173 A 
ATOM    138  F   UNL A   1      47.687  25.587  32.575  1.00  0.00    -0.203 F 
ATOM    139  C   UNL A   1      49.935  25.557  31.878  1.00  0.00     0.198 A 
ATOM    140  C   UNL A   1      50.588  26.706  29.876  1.00  0.00     0.198 A 
ATOM    141  F   UNL A   1      48.993  27.903  28.629  1.00  0.00    -0.203 F 
ATOM    142  F   UNL A   1      50.257  24.829  32.956  1.00  0.00    -0.200 F 
ATOM    143  C   UNL A   1      50.917  25.925  30.972  1.00  0.00     0.200 A 
ATOM    144  F   UNL A   1      51.533  27.050  28.990  1.00  0.00    -0.200 F 
ATOM    145  F   UNL A   1      52.185  25.533  31.160  1.00  0.00    -0.200 F 
ENDBRANCH 111 135
ENDBRANCH  76  79
ENDBRANCH  66  69
ENDBRANCH  62  65
ENDBRANCH  59  62
ENDBRANCH  56  59
ENDBRANCH  53  56
ENDBRANCH  50  53
ENDBRANCH   1  50
TORSDOF 25
ENDMDL
MODEL 2
REMARK VINA RESULT:     -10.2      3.989      8.893
REMARK SMILES CC(C)C[C@H](NC(=O)CNC(=O)[C@@H]([NH3+])C(C)C)C(=O)NCCCCCCNC(=O)c1ccc(-c2c3nc(c(-c4c(F)c(F)c(F)c(F)c4F)c4ccc([nH]4)c(-c4c(F)c(F)c(F)c(F)c4F)c4nc(c(-c5c(F)c(F)c(F)c(F)c5F)c5ccc2[nH]5)C=C4)C=C3)cc1
REMARK SMILES IDX 21 1 20 4 18 5 19 6 5 8 4 10 2 13 1 15 3 19 6 23 7 24 8 26
REMARK SMILES IDX 9 27 10 30 11 31 12 33 13 34 14 36 15 40 16 42 17 46 22 50
REMARK SMILES IDX 23 53 24 56 25 59 26 62 27 65 28 66 29 68 30 69 31 70 92 71
REMARK SMILES IDX 32 72 91 74 33 76 34 79 35 80 85 81 36 82 90 83 84 84 86 85
REMARK SMILES IDX 37 86 89 87 83 89 82 91 38 93 70 96 50 97 69 98 51 99 54 100
REMARK SMILES IDX 68 101 87 102 52 103 53 105 67 107 88 108 55 111 39 113
REMARK SMILES IDX 40 114 48 115 41 116 42 117 46 118 49 119 43 120 44 121
REMARK SMILES IDX 47 122 45 123 71 124 72 125 80 126 73 127 74 128 78 129
REMARK SMILES IDX 81 130 75 131 76 132 79 133 77 134 56 135 57 136 65 137
REMARK SMILES IDX 58 138 59 139 63 140 66 141 60 142 61 143 64 144 62 145
REMARK H PARENT 21 2 21 3 20 7 5 9 4 11 4 12 2 14 1 16 1 17 1 18 3 20 3 21
REMARK H PARENT 3 22 6 25 9 28 9 29 10 32 13 35 14 37 14 38 14 39 15 41 16 43
REMARK H PARENT 16 44 16 45 17 47 17 48 17 49 22 51 22 52 23 54 23 55 24 57
REMARK H PARENT 24 58 25 60 25 61 26 63 26 64 27 67 31 73 92 75 32 77 91 78
REMARK H PARENT 90 88 84 90 86 92 89 94 83 95 51 104 54 106 87 109 52 110
REMARK H PARENT 88 112
REMARK Flexibility Score: inf
ROOT
ATOM      1  C   UNL A   1      33.007  27.668  25.796  1.00  0.00     0.017 C 
ATOM      2  H   UNL A   1      32.038  27.238  25.938  1.00  0.00     0.049 H 
ATOM      3  H   UNL A   1      33.071  28.144  24.841  1.00  0.00     0.049 H 
ENDROOT
BRANCH   1   4
ATOM      4  N   UNL A   1      34.002  26.621  25.856  1.00  0.00    -0.354 N 
ATOM      5  C   UNL A   1      33.966  25.346  25.384  1.00  0.00     0.242 C 
ATOM      6  O   UNL A   1      35.009  24.687  25.437  1.00  0.00    -0.273 OA
ATOM      7  H   UNL A   1      34.838  26.871  26.310  1.00  0.00     0.163 HD
BRANCH   5   8
ATOM      8  C   UNL A   1      32.715  24.783  24.687  1.00  0.00     0.108 C 
ATOM      9  H   UNL A   1      32.952  23.777  24.408  1.00  0.00     0.063 H 
BRANCH   8  10
ATOM     10  C   UNL A   1      32.390  25.515  23.377  1.00  0.00    -0.021 C 
ATOM     11  H   UNL A   1      31.350  25.381  23.167  1.00  0.00     0.030 H 
ATOM     12  H   UNL A   1      32.658  26.540  23.526  1.00  0.00     0.030 H 
BRANCH  10  13
ATOM     13  C   UNL A   1      33.197  25.024  22.150  1.00  0.00    -0.045 C 
ATOM     14  H   UNL A   1      34.201  25.367  22.287  1.00  0.00     0.030 H 
BRANCH  13  15
ATOM     15  C   UNL A   1      33.246  23.502  22.033  1.00  0.00    -0.063 C 
ATOM     16  H   UNL A   1      33.562  23.083  22.966  1.00  0.00     0.023 H 
ATOM     17  H   UNL A   1      33.938  23.224  21.266  1.00  0.00     0.023 H 
ATOM     18  H   UNL A   1      32.273  23.131  21.787  1.00  0.00     0.023 H 
ENDBRANCH  13  15
BRANCH  13  19
ATOM     19  C   UNL A   1      32.591  25.599  20.869  1.00  0.00    -0.063 C 
ATOM     20  H   UNL A   1      31.744  25.012  20.581  1.00  0.00     0.023 H 
ATOM     21  H   UNL A   1      33.323  25.577  20.088  1.00  0.00     0.023 H 
ATOM     22  H   UNL A   1      32.283  26.608  21.041  1.00  0.00     0.023 H 
ENDBRANCH  13  19
ENDBRANCH  10  13
ENDBRANCH   8  10
BRANCH   8  23
ATOM     23  N   UNL A   1      31.566  24.690  25.588  1.00  0.00    -0.343 N 
ATOM     24  C   UNL A   1      31.146  23.656  26.370  1.00  0.00     0.240 C 
ATOM     25  H   UNL A   1      31.009  25.499  25.637  1.00  0.00     0.164 HD
ATOM     26  O   UNL A   1      30.284  23.924  27.215  1.00  0.00    -0.273 OA
BRANCH  24  27
ATOM     27  C   UNL A   1      31.790  22.263  26.334  1.00  0.00     0.097 C 
ATOM     28  H   UNL A   1      31.302  21.655  27.065  1.00  0.00     0.059 H 
ATOM     29  H   UNL A   1      32.832  22.417  26.526  1.00  0.00     0.059 H 
BRANCH  27  30
ATOM     30  N   UNL A   1      31.719  21.574  25.058  1.00  0.00    -0.342 N 
ATOM     31  C   UNL A   1      32.395  20.482  24.606  1.00  0.00     0.278 C 
ATOM     32  H   UNL A   1      31.078  21.957  24.417  1.00  0.00     0.164 HD
ATOM     33  O   UNL A   1      32.081  20.066  23.486  1.00  0.00    -0.268 OA
BRANCH  31  34
ATOM     34  C   UNL A   1      33.466  19.732  25.444  1.00  0.00     0.166 C 
ATOM     35  H   UNL A   1      33.886  20.433  26.135  1.00  0.00     0.107 H 
BRANCH  34  36
ATOM     36  N   UNL A   1      32.882  18.654  26.268  1.00  0.00    -0.347 N 
ATOM     37  H   UNL A   1      32.008  18.340  25.847  1.00  0.00     0.345 HD
ATOM     38  H   UNL A   1      32.701  19.004  27.208  1.00  0.00     0.345 HD
ATOM     39  H   UNL A   1      33.535  17.872  26.317  1.00  0.00     0.345 HD
ENDBRANCH  34  36
BRANCH  34  40
ATOM     40  C   UNL A   1      34.611  19.226  24.540  1.00  0.00     0.015 C 
ATOM     41  H   UNL A   1      34.356  19.499  23.536  1.00  0.00     0.036 H 
BRANCH  40  42
ATOM     42  C   UNL A   1      35.942  19.872  24.946  1.00  0.00    -0.057 C 
ATOM     43  H   UNL A   1      36.556  20.001  24.079  1.00  0.00     0.024 H 
ATOM     44  H   UNL A   1      36.445  19.242  25.650  1.00  0.00     0.024 H 
ATOM     45  H   UNL A   1      35.753  20.826  25.394  1.00  0.00     0.024 H 
ENDBRANCH  40  42
BRANCH  40  46
ATOM     46  C   UNL A   1      34.764  17.701  24.610  1.00  0.00    -0.057 C 
ATOM     47  H   UNL A   1      34.084  17.242  23.923  1.00  0.00     0.024 H 
ATOM     48  H   UNL A   1      34.548  17.366  25.603  1.00  0.00     0.024 H 
ATOM     49  H   UNL A   1      35.767  17.430  24.353  1.00  0.00     0.024 H 
ENDBRANCH  40  46
ENDBRANCH  34  40
ENDBRANCH  31  34
ENDBRANCH  27  30
ENDBRANCH  24  27
ENDBRANCH   8  23
ENDBRANCH   5   8
ENDBRANCH   1   4
BRANCH   1  50
ATOM     50  C   UNL A   1      33.250  28.713  26.877  1.00  0.00    -0.036 C 
ATOM     51  H   UNL A   1      34.056  29.344  26.563  1.00  0.00     0.028 H 
ATOM     52  H   UNL A   1      33.475  28.183  27.780  1.00  0.00     0.028 H 
BRANCH  50  53
ATOM     53  C   UNL A   1      32.031  29.595  27.168  1.00  0.00    -0.052 C 
ATOM     54  H   UNL A   1      32.183  30.072  28.113  1.00  0.00     0.027 H 
ATOM     55  H   UNL A   1      31.180  28.946  27.155  1.00  0.00     0.027 H 
BRANCH  53  56
ATOM     56  C   UNL A   1      31.761  30.683  26.122  1.00  0.00    -0.052 C 
ATOM     57  H   UNL A   1      30.917  30.382  25.539  1.00  0.00     0.027 H 
ATOM     58  H   UNL A   1      32.660  30.777  25.549  1.00  0.00     0.027 H 
BRANCH  56  59
ATOM     59  C   UNL A   1      31.472  32.072  26.697  1.00  0.00    -0.036 C 
ATOM     60  H   UNL A   1      30.719  31.971  27.451  1.00  0.00     0.028 H 
ATOM     61  H   UNL A   1      31.161  32.684  25.878  1.00  0.00     0.028 H 
BRANCH  59  62
ATOM     62  C   UNL A   1      32.681  32.756  27.321  1.00  0.00     0.018 C 
ATOM     63  H   UNL A   1      33.504  32.691  26.643  1.00  0.00     0.049 H 
ATOM     64  H   UNL A   1      32.902  32.261  28.244  1.00  0.00     0.049 H 
BRANCH  62  65
ATOM     65  N   UNL A   1      32.421  34.155  27.613  1.00  0.00    -0.352 N 
ATOM     66  C   UNL A   1      32.974  34.952  28.580  1.00  0.00     0.251 C 
ATOM     67  H   UNL A   1      31.752  34.591  27.036  1.00  0.00     0.163 HD
ATOM     68  O   UNL A   1      32.495  36.055  28.828  1.00  0.00    -0.269 OA
BRANCH  66  69
ATOM     69  C   UNL A   1      34.142  34.464  29.340  1.00  0.00     0.039 A 
ATOM     70  C   UNL A   1      33.934  33.882  30.591  1.00  0.00    -0.049 A 
ATOM     71  C   UNL A   1      35.433  34.565  28.811  1.00  0.00    -0.049 A 
ATOM     72  C   UNL A   1      35.015  33.342  31.286  1.00  0.00    -0.053 A 
ATOM     73  H   UNL A   1      32.986  33.850  30.999  1.00  0.00     0.063 H 
ATOM     74  C   UNL A   1      36.496  33.955  29.467  1.00  0.00    -0.053 A 
ATOM     75  H   UNL A   1      35.594  35.088  27.936  1.00  0.00     0.063 H 
ATOM     76  C   UNL A   1      36.297  33.339  30.711  1.00  0.00    -0.014 A 
ATOM     77  H   UNL A   1      34.873  32.943  32.228  1.00  0.00     0.063 H 
ATOM     78  H   UNL A   1      37.434  33.957  29.038  1.00  0.00     0.063 H 
BRANCH  76  79
ATOM     79  C   UNL A   1      37.435  32.672  31.391  1.00  0.00     0.031 A 
ATOM     80  C   UNL A   1      38.119  31.497  30.755  1.00  0.00     0.074 A 
ATOM     81  C   UNL A   1      37.808  33.092  32.614  1.00  0.00     0.049 A 
ATOM     82  N   UNL A   1      39.095  30.759  31.218  1.00  0.00    -0.248 NA
ATOM     83  C   UNL A   1      37.621  31.079  29.437  1.00  0.00    -0.034 C 
ATOM     84  C   UNL A   1      37.180  34.186  33.358  1.00  0.00    -0.036 A 
ATOM     85  N   UNL A   1      38.794  32.640  33.455  1.00  0.00    -0.354 N 
ATOM     86  C   UNL A   1      39.326  29.790  30.251  1.00  0.00     0.074 A 
ATOM     87  C   UNL A   1      38.343  29.992  29.209  1.00  0.00    -0.034 C 
ATOM     88  H   UNL A   1      36.898  31.517  28.844  1.00  0.00     0.065 H 
ATOM     89  C   UNL A   1      37.808  34.333  34.534  1.00  0.00    -0.036 A 
ATOM     90  H   UNL A   1      36.384  34.753  33.029  1.00  0.00     0.065 H 
ATOM     91  C   UNL A   1      38.852  33.318  34.647  1.00  0.00     0.049 A 
ATOM     92  H   UNL A   1      39.402  31.900  33.225  1.00  0.00     0.167 HD
ATOM     93  C   UNL A   1      40.287  28.835  30.223  1.00  0.00     0.037 A 
ATOM     94  H   UNL A   1      38.219  29.371  28.394  1.00  0.00     0.065 H 
ATOM     95  H   UNL A   1      37.589  35.048  35.245  1.00  0.00     0.065 H 
ATOM     96  C   UNL A   1      39.647  33.135  35.718  1.00  0.00     0.037 A 
ATOM     97  C   UNL A   1      41.260  28.639  31.266  1.00  0.00     0.049 A 
ATOM     98  C   UNL A   1      40.690  32.053  35.679  1.00  0.00     0.074 A 
ATOM     99  C   UNL A   1      42.310  27.739  31.312  1.00  0.00    -0.036 A 
ATOM    100  N   UNL A   1      41.293  29.349  32.459  1.00  0.00    -0.354 N 
ATOM    101  N   UNL A   1      40.953  31.194  34.724  1.00  0.00    -0.248 NA
ATOM    102  C   UNL A   1      41.549  31.919  36.861  1.00  0.00    -0.034 C 
ATOM    103  C   UNL A   1      42.936  27.860  32.557  1.00  0.00    -0.036 A 
ATOM    104  H   UNL A   1      42.581  27.089  30.558  1.00  0.00     0.065 H 
ATOM    105  C   UNL A   1      42.321  28.881  33.264  1.00  0.00     0.049 A 
ATOM    106  H   UNL A   1      40.677  30.079  32.699  1.00  0.00     0.167 HD
ATOM    107  C   UNL A   1      42.016  30.427  35.181  1.00  0.00     0.074 A 
ATOM    108  C   UNL A   1      42.364  30.941  36.492  1.00  0.00    -0.034 C 
ATOM    109  H   UNL A   1      41.525  32.447  37.748  1.00  0.00     0.065 H 
ATOM    110  H   UNL A   1      43.726  27.286  32.892  1.00  0.00     0.065 H 
ATOM    111  C   UNL A   1      42.646  29.392  34.573  1.00  0.00     0.037 A 
ATOM    112  H   UNL A   1      43.147  30.589  37.064  1.00  0.00     0.065 H 
BRANCH  93 113
ATOM    113  C   UNL A   1      40.320  27.926  29.026  1.00  0.00     0.064 A 
ATOM    114  C   UNL A   1      41.077  28.235  27.884  1.00  0.00     0.173 A 
ATOM    115  C   UNL A   1      39.591  26.728  29.019  1.00  0.00     0.173 A 
ATOM    116  F   UNL A   1      41.787  29.373  27.833  1.00  0.00    -0.203 F 
ATOM    117  C   UNL A   1      41.064  27.406  26.765  1.00  0.00     0.198 A 
ATOM    118  C   UNL A   1      39.610  25.881  27.913  1.00  0.00     0.198 A 
ATOM    119  F   UNL A   1      38.855  26.375  30.084  1.00  0.00    -0.203 F 
ATOM    120  F   UNL A   1      41.739  27.760  25.664  1.00  0.00    -0.200 F 
ATOM    121  C   UNL A   1      40.335  26.227  26.783  1.00  0.00     0.200 A 
ATOM    122  F   UNL A   1      38.917  24.733  27.937  1.00  0.00    -0.200 F 
ATOM    123  F   UNL A   1      40.323  25.429  25.706  1.00  0.00    -0.200 F 
ENDBRANCH  93 113
BRANCH  96 124
ATOM    124  C   UNL A   1      39.482  34.008  36.909  1.00  0.00     0.064 A 
ATOM    125  C   UNL A   1      38.723  33.593  38.011  1.00  0.00     0.173 A 
ATOM    126  C   UNL A   1      40.108  35.262  36.982  1.00  0.00     0.173 A 
ATOM    127  F   UNL A   1      38.091  32.410  37.982  1.00  0.00    -0.203 F 
ATOM    128  C   UNL A   1      38.587  34.403  39.137  1.00  0.00     0.198 A 
ATOM    129  C   UNL A   1      39.996  36.058  38.120  1.00  0.00     0.198 A 
ATOM    130  F   UNL A   1      40.852  35.701  35.957  1.00  0.00    -0.203 F 
ATOM    131  F   UNL A   1      37.827  33.998  40.163  1.00  0.00    -0.200 F 
ATOM    132  C   UNL A   1      39.231  35.631  39.194  1.00  0.00     0.200 A 
ATOM    133  F   UNL A   1      40.636  37.233  38.177  1.00  0.00    -0.200 F 
ATOM    134  F   UNL A   1      39.113  36.402  40.284  1.00  0.00    -0.200 F 
ENDBRANCH  96 124
BRANCH 111 135
ATOM    135  C   UNL A   1      43.782  28.747  35.315  1.00  0.00     0.064 A 
ATOM    136  C   UNL A   1      45.108  29.177  35.148  1.00  0.00     0.173 A 
ATOM    137  C   UNL A   1      43.540  27.712  36.231  1.00  0.00     0.173 A 
ATOM    138  F   UNL A   1      45.396  30.151  34.272  1.00  0.00    -0.203 F 
ATOM    139  C   UNL A   1      46.150  28.576  35.851  1.00  0.00     0.198 A 
ATOM    140  C   UNL A   1      44.580  27.138  36.957  1.00  0.00     0.198 A 
ATOM    141  F   UNL A   1      42.290  27.267  36.434  1.00  0.00    -0.203 F 
ATOM    142  F   UNL A   1      47.413  28.968  35.636  1.00  0.00    -0.200 F 
ATOM    143  C   UNL A   1      45.884  27.564  36.760  1.00  0.00     0.200 A 
ATOM    144  F   UNL A   1      44.318  26.170  37.847  1.00  0.00    -0.200 F 
ATOM    145  F   UNL A   1      46.886  26.993  37.443  1.00  0.00    -0.200 F 
ENDBRANCH 111 135
ENDBRANCH  76  79
ENDBRANCH  66  69
ENDBRANCH  62  65
ENDBRANCH  59  62
ENDBRANCH  56  59
ENDBRANCH  53  56
ENDBRANCH  50  53
ENDBRANCH   1  50
TORSDOF 25
ENDMDL
MODEL 3
REMARK VINA RESULT:     -10.1      4.069      6.450
REMARK SMILES CC(C)C[C@H](NC(=O)CNC(=O)[C@@H]([NH3+])C(C)C)C(=O)NCCCCCCNC(=O)c1ccc(-c2c3nc(c(-c4c(F)c(F)c(F)c(F)c4F)c4ccc([nH]4)c(-c4c(F)c(F)c(F)c(F)c4F)c4nc(c(-c5c(F)c(F)c(F)c(F)c5F)c5ccc2[nH]5)C=C4)C=C3)cc1
REMARK SMILES IDX 21 1 20 4 18 5 19 6 5 8 4 10 2 13 1 15 3 19 6 23 7 24 8 26
REMARK SMILES IDX 9 27 10 30 11 31 12 33 13 34 14 36 15 40 16 42 17 46 22 50
REMARK SMILES IDX 23 53 24 56 25 59 26 62 27 65 28 66 29 68 30 69 31 70 92 71
REMARK SMILES IDX 32 72 91 74 33 76 34 79 35 80 85 81 36 82 90 83 84 84 86 85
REMARK SMILES IDX 37 86 89 87 83 89 82 91 38 93 70 96 50 97 69 98 51 99 54 100
REMARK SMILES IDX 68 101 87 102 52 103 53 105 67 107 88 108 55 111 39 113
REMARK SMILES IDX 40 114 48 115 41 116 42 117 46 118 49 119 43 120 44 121
REMARK SMILES IDX 47 122 45 123 71 124 72 125 80 126 73 127 74 128 78 129
REMARK SMILES IDX 81 130 75 131 76 132 79 133 77 134 56 135 57 136 65 137
REMARK SMILES IDX 58 138 59 139 63 140 66 141 60 142 61 143 64 144 62 145
REMARK H PARENT 21 2 21 3 20 7 5 9 4 11 4 12 2 14 1 16 1 17 1 18 3 20 3 21
REMARK H PARENT 3 22 6 25 9 28 9 29 10 32 13 35 14 37 14 38 14 39 15 41 16 43
REMARK H PARENT 16 44 16 45 17 47 17 48 17 49 22 51 22 52 23 54 23 55 24 57
REMARK H PARENT 24 58 25 60 25 61 26 63 26 64 27 67 31 73 92 75 32 77 91 78
REMARK H PARENT 90 88 84 90 86 92 89 94 83 95 51 104 54 106 87 109 52 110
REMARK H PARENT 88 112
REMARK Flexibility Score: inf
ROOT
ATOM      1  C   UNL A   1      32.740  27.403  26.041  1.00  0.00     0.017 C 
ATOM      2  H   UNL A   1      32.136  27.057  26.853  1.00  0.00     0.049 H 
ATOM      3  H   UNL A   1      32.175  27.420  25.133  1.00  0.00     0.049 H 
ENDROOT
BRANCH   1   4
ATOM      4  N   UNL A   1      33.862  26.507  25.869  1.00  0.00    -0.354 N 
ATOM      5  C   UNL A   1      33.953  25.335  25.186  1.00  0.00     0.242 C 
ATOM      6  O   UNL A   1      35.073  24.825  25.073  1.00  0.00    -0.273 OA
ATOM      7  H   UNL A   1      34.690  26.791  26.318  1.00  0.00     0.163 HD
BRANCH   5   8
ATOM      8  C   UNL A   1      32.737  24.729  24.465  1.00  0.00     0.108 C 
ATOM      9  H   UNL A   1      32.012  25.512  24.386  1.00  0.00     0.063 H 
BRANCH   8  10
ATOM     10  C   UNL A   1      32.063  23.615  25.280  1.00  0.00    -0.021 C 
ATOM     11  H   UNL A   1      31.556  22.963  24.601  1.00  0.00     0.030 H 
ATOM     12  H   UNL A   1      32.841  23.125  25.828  1.00  0.00     0.030 H 
BRANCH  10  13
ATOM     13  C   UNL A   1      31.037  24.117  26.326  1.00  0.00    -0.045 C 
ATOM     14  H   UNL A   1      31.602  24.556  27.121  1.00  0.00     0.030 H 
BRANCH  13  15
ATOM     15  C   UNL A   1      30.100  25.193  25.781  1.00  0.00    -0.063 C 
ATOM     16  H   UNL A   1      29.108  24.799  25.709  1.00  0.00     0.023 H 
ATOM     17  H   UNL A   1      30.432  25.497  24.810  1.00  0.00     0.023 H 
ATOM     18  H   UNL A   1      30.103  26.036  26.439  1.00  0.00     0.023 H 
ENDBRANCH  13  15
BRANCH  13  19
ATOM     19  C   UNL A   1      30.199  22.942  26.832  1.00  0.00    -0.063 C 
ATOM     20  H   UNL A   1      29.233  22.970  26.374  1.00  0.00     0.023 H 
ATOM     21  H   UNL A   1      30.092  23.013  27.895  1.00  0.00     0.023 H 
ATOM     22  H   UNL A   1      30.686  22.023  26.584  1.00  0.00     0.023 H 
ENDBRANCH  13  19
ENDBRANCH  10  13
ENDBRANCH   8  10
BRANCH   8  23
ATOM     23  N   UNL A   1      33.042  24.324  23.092  1.00  0.00    -0.343 N 
ATOM     24  C   UNL A   1      32.655  24.877  21.908  1.00  0.00     0.240 C 
ATOM     25  H   UNL A   1      33.617  23.530  23.010  1.00  0.00     0.164 HD
ATOM     26  O   UNL A   1      33.249  24.481  20.899  1.00  0.00    -0.273 OA
BRANCH  24  27
ATOM     27  C   UNL A   1      31.648  26.031  21.813  1.00  0.00     0.097 C 
ATOM     28  H   UNL A   1      30.806  25.786  22.424  1.00  0.00     0.059 H 
ATOM     29  H   UNL A   1      31.412  26.130  20.773  1.00  0.00     0.059 H 
BRANCH  27  30
ATOM     30  N   UNL A   1      32.142  27.330  22.233  1.00  0.00    -0.342 N 
ATOM     31  C   UNL A   1      31.470  28.476  22.532  1.00  0.00     0.278 C 
ATOM     32  H   UNL A   1      33.121  27.392  22.315  1.00  0.00     0.164 HD
ATOM     33  O   UNL A   1      32.153  29.426  22.931  1.00  0.00    -0.268 OA
BRANCH  31  34
ATOM     34  C   UNL A   1      29.925  28.607  22.450  1.00  0.00     0.166 C 
ATOM     35  H   UNL A   1      29.599  28.064  21.588  1.00  0.00     0.107 H 
BRANCH  34  36
ATOM     36  N   UNL A   1      29.246  27.979  23.602  1.00  0.00    -0.347 N 
ATOM     37  H   UNL A   1      29.271  26.964  23.502  1.00  0.00     0.345 HD
ATOM     38  H   UNL A   1      28.276  28.293  23.638  1.00  0.00     0.345 HD
ATOM     39  H   UNL A   1      29.721  28.246  24.464  1.00  0.00     0.345 HD
ENDBRANCH  34  36
BRANCH  34  40
ATOM     40  C   UNL A   1      29.511  30.082  22.257  1.00  0.00     0.015 C 
ATOM     41  H   UNL A   1      30.362  30.592  21.855  1.00  0.00     0.036 H 
BRANCH  40  42
ATOM     42  C   UNL A   1      28.323  30.184  21.291  1.00  0.00    -0.057 C 
ATOM     43  H   UNL A   1      28.569  30.854  20.494  1.00  0.00     0.024 H 
ATOM     44  H   UNL A   1      27.467  30.553  21.816  1.00  0.00     0.024 H 
ATOM     45  H   UNL A   1      28.106  29.216  20.890  1.00  0.00     0.024 H 
ENDBRANCH  40  42
BRANCH  40  46
ATOM     46  C   UNL A   1      29.123  30.746  23.584  1.00  0.00    -0.057 C 
ATOM     47  H   UNL A   1      29.161  31.810  23.476  1.00  0.00     0.024 H 
ATOM     48  H   UNL A   1      29.807  30.441  24.350  1.00  0.00     0.024 H 
ATOM     49  H   UNL A   1      28.130  30.451  23.855  1.00  0.00     0.024 H 
ENDBRANCH  40  46
ENDBRANCH  34  40
ENDBRANCH  31  34
ENDBRANCH  27  30
ENDBRANCH  24  27
ENDBRANCH   8  23
ENDBRANCH   5   8
ENDBRANCH   1   4
BRANCH   1  50
ATOM     50  C   UNL A   1      33.215  28.819  26.343  1.00  0.00    -0.036 C 
ATOM     51  H   UNL A   1      33.527  29.274  25.426  1.00  0.00     0.028 H 
ATOM     52  H   UNL A   1      34.014  28.736  27.050  1.00  0.00     0.028 H 
BRANCH  50  53
ATOM     53  C   UNL A   1      32.142  29.706  26.983  1.00  0.00    -0.052 C 
ATOM     54  H   UNL A   1      32.548  30.126  27.880  1.00  0.00     0.027 H 
ATOM     55  H   UNL A   1      31.295  29.076  27.157  1.00  0.00     0.027 H 
BRANCH  53  56
ATOM     56  C   UNL A   1      31.649  30.857  26.098  1.00  0.00    -0.052 C 
ATOM     57  H   UNL A   1      30.718  30.566  25.661  1.00  0.00     0.027 H 
ATOM     58  H   UNL A   1      32.420  31.031  25.377  1.00  0.00     0.027 H 
BRANCH  56  59
ATOM     59  C   UNL A   1      31.437  32.186  26.828  1.00  0.00    -0.036 C 
ATOM     60  H   UNL A   1      30.879  31.990  27.721  1.00  0.00     0.028 H 
ATOM     61  H   UNL A   1      30.921  32.830  26.148  1.00  0.00     0.028 H 
BRANCH  59  62
ATOM     62  C   UNL A   1      32.723  32.899  27.218  1.00  0.00     0.018 C 
ATOM     63  H   UNL A   1      33.382  32.911  26.376  1.00  0.00     0.049 H 
ATOM     64  H   UNL A   1      33.159  32.372  28.041  1.00  0.00     0.049 H 
BRANCH  62  65
ATOM     65  N   UNL A   1      32.478  34.268  27.641  1.00  0.00    -0.352 N 
ATOM     66  C   UNL A   1      33.039  34.964  28.678  1.00  0.00     0.251 C 
ATOM     67  H   UNL A   1      31.814  34.763  27.108  1.00  0.00     0.163 HD
ATOM     68  O   UNL A   1      32.571  36.044  29.029  1.00  0.00    -0.269 OA
BRANCH  66  69
ATOM     69  C   UNL A   1      34.201  34.396  29.388  1.00  0.00     0.039 A 
ATOM     70  C   UNL A   1      33.980  33.624  30.529  1.00  0.00    -0.049 A 
ATOM     71  C   UNL A   1      35.501  34.608  28.916  1.00  0.00    -0.049 A 
ATOM     72  C   UNL A   1      35.060  33.012  31.164  1.00  0.00    -0.053 A 
ATOM     73  H   UNL A   1      33.024  33.507  30.901  1.00  0.00     0.063 H 
ATOM     74  C   UNL A   1      36.566  33.932  29.502  1.00  0.00    -0.053 A 
ATOM     75  H   UNL A   1      35.668  35.262  28.136  1.00  0.00     0.063 H 
ATOM     76  C   UNL A   1      36.355  33.128  30.632  1.00  0.00    -0.014 A 
ATOM     77  H   UNL A   1      34.907  32.469  32.030  1.00  0.00     0.063 H 
ATOM     78  H   UNL A   1      37.514  34.023  29.105  1.00  0.00     0.063 H 
BRANCH  76  79
ATOM     79  C   UNL A   1      37.495  32.394  31.234  1.00  0.00     0.031 A 
ATOM     80  C   UNL A   1      38.032  32.791  32.578  1.00  0.00     0.074 A 
ATOM     81  C   UNL A   1      38.085  31.406  30.534  1.00  0.00     0.049 A 
ATOM     82  N   UNL A   1      39.049  32.300  33.240  1.00  0.00    -0.248 NA
ATOM     83  C   UNL A   1      37.355  33.907  33.255  1.00  0.00    -0.034 C 
ATOM     84  C   UNL A   1      37.689  30.971  29.194  1.00  0.00    -0.036 A 
ATOM     85  N   UNL A   1      39.152  30.602  30.845  1.00  0.00    -0.354 N 
ATOM     86  C   UNL A   1      39.133  33.047  34.407  1.00  0.00     0.074 A 
ATOM     87  C   UNL A   1      38.110  34.067  34.331  1.00  0.00    -0.034 C 
ATOM     88  H   UNL A   1      36.511  34.428  32.967  1.00  0.00     0.065 H 
ATOM     89  C   UNL A   1      38.488  29.965  28.806  1.00  0.00    -0.036 A 
ATOM     90  H   UNL A   1      36.918  31.371  28.637  1.00  0.00     0.065 H 
ATOM     91  C   UNL A   1      39.479  29.715  29.849  1.00  0.00     0.049 A 
ATOM     92  H   UNL A   1      39.637  30.655  31.701  1.00  0.00     0.167 HD
ATOM     93  C   UNL A   1      39.971  32.880  35.459  1.00  0.00     0.037 A 
ATOM     94  H   UNL A   1      37.984  34.822  35.023  1.00  0.00     0.065 H 
ATOM     95  H   UNL A   1      38.415  29.451  27.914  1.00  0.00     0.065 H 
ATOM     96  C   UNL A   1      40.475  28.812  29.777  1.00  0.00     0.037 A 
ATOM     97  C   UNL A   1      40.989  31.863  35.526  1.00  0.00     0.049 A 
ATOM     98  C   UNL A   1      41.411  28.660  30.943  1.00  0.00     0.074 A 
ATOM     99  C   UNL A   1      41.853  31.572  36.566  1.00  0.00    -0.036 A 
ATOM    100  N   UNL A   1      41.289  30.978  34.500  1.00  0.00    -0.354 N 
ATOM    101  N   UNL A   1      41.431  29.316  32.077  1.00  0.00    -0.248 NA
ATOM    102  C   UNL A   1      42.458  27.638  30.822  1.00  0.00    -0.034 C 
ATOM    103  C   UNL A   1      42.718  30.555  36.146  1.00  0.00    -0.036 A 
ATOM    104  H   UNL A   1      41.861  32.029  37.491  1.00  0.00     0.065 H 
ATOM    105  C   UNL A   1      42.351  30.165  34.868  1.00  0.00     0.049 A 
ATOM    106  H   UNL A   1      40.817  30.932  33.636  1.00  0.00     0.167 HD
ATOM    107  C   UNL A   1      42.479  28.779  32.812  1.00  0.00     0.074 A 
ATOM    108  C   UNL A   1      43.057  27.725  32.001  1.00  0.00    -0.034 C 
ATOM    109  H   UNL A   1      42.672  27.014  30.027  1.00  0.00     0.065 H 
ATOM    110  H   UNL A   1      43.497  30.161  36.696  1.00  0.00     0.065 H 
ATOM    111  C   UNL A   1      42.925  29.129  34.044  1.00  0.00     0.037 A 
ATOM    112  H   UNL A   1      43.835  27.120  32.305  1.00  0.00     0.065 H 
BRANCH  93 113
ATOM    113  C   UNL A   1      39.823  33.830  36.615  1.00  0.00     0.064 A 
ATOM    114  C   UNL A   1      40.526  35.044  36.667  1.00  0.00     0.173 A 
ATOM    115  C   UNL A   1      38.965  33.527  37.683  1.00  0.00     0.173 A 
ATOM    116  F   UNL A   1      41.367  35.381  35.677  1.00  0.00    -0.203 F 
ATOM    117  C   UNL A   1      40.413  35.895  37.764  1.00  0.00     0.198 A 
ATOM    118  C   UNL A   1      38.825  34.398  38.761  1.00  0.00     0.198 A 
ATOM    119  F   UNL A   1      38.261  32.385  37.685  1.00  0.00    -0.203 F 
ATOM    120  F   UNL A   1      41.148  37.013  37.821  1.00  0.00    -0.200 F 
ATOM    121  C   UNL A   1      39.559  35.574  38.808  1.00  0.00     0.200 A 
ATOM    122  F   UNL A   1      37.987  34.094  39.763  1.00  0.00    -0.200 F 
ATOM    123  F   UNL A   1      39.451  36.392  39.864  1.00  0.00    -0.200 F 
ENDBRANCH  93 113
BRANCH  96 124
ATOM    124  C   UNL A   1      40.621  27.982  28.553  1.00  0.00     0.064 A 
ATOM    125  C   UNL A   1      41.400  28.417  27.472  1.00  0.00     0.173 A 
ATOM    126  C   UNL A   1      40.012  26.722  28.454  1.00  0.00     0.173 A 
ATOM    127  F   UNL A   1      41.989  29.621  27.513  1.00  0.00    -0.203 F 
ATOM    128  C   UNL A   1      41.555  27.628  26.334  1.00  0.00     0.198 A 
ATOM    129  C   UNL A   1      40.192  25.921  27.327  1.00  0.00     0.198 A 
ATOM    130  F   UNL A   1      39.263  26.256  29.463  1.00  0.00    -0.203 F 
ATOM    131  F   UNL A   1      42.276  28.082  25.300  1.00  0.00    -0.200 F 
ATOM    132  C   UNL A   1      40.959  26.377  26.266  1.00  0.00     0.200 A 
ATOM    133  F   UNL A   1      39.630  24.706  27.276  1.00  0.00    -0.200 F 
ATOM    134  F   UNL A   1      41.121  25.613  25.178  1.00  0.00    -0.200 F 
ENDBRANCH  96 124
BRANCH 111 135
ATOM    135  C   UNL A   1      44.091  28.359  34.597  1.00  0.00     0.064 A 
ATOM    136  C   UNL A   1      45.411  28.805  34.435  1.00  0.00     0.173 A 
ATOM    137  C   UNL A   1      43.883  27.180  35.329  1.00  0.00     0.173 A 
ATOM    138  F   UNL A   1      45.666  29.917  33.730  1.00  0.00    -0.203 F 
ATOM    139  C   UNL A   1      46.481  28.086  34.964  1.00  0.00     0.198 A 
ATOM    140  C   UNL A   1      44.952  26.482  35.885  1.00  0.00     0.198 A 
ATOM    141  F   UNL A   1      42.640  26.711  35.519  1.00  0.00    -0.203 F 
ATOM    142  F   UNL A   1      47.736  28.504  34.751  1.00  0.00    -0.200 F 
ATOM    143  C   UNL A   1      46.249  26.931  35.694  1.00  0.00     0.200 A 
ATOM    144  F   UNL A   1      44.725  25.375  36.604  1.00  0.00    -0.200 F 
ATOM    145  F   UNL A   1      47.279  26.245  36.209  1.00  0.00    -0.200 F 
ENDBRANCH 111 135
ENDBRANCH  76  79
ENDBRANCH  66  69
ENDBRANCH  62  65
ENDBRANCH  59  62
ENDBRANCH  56  59
ENDBRANCH  53  56
ENDBRANCH  50  53
ENDBRANCH   1  50
TORSDOF 25
ENDMDL
MODEL 4
REMARK VINA RESULT:     -10.1      3.735      8.553
REMARK SMILES CC(C)C[C@H](NC(=O)CNC(=O)[C@@H]([NH3+])C(C)C)C(=O)NCCCCCCNC(=O)c1ccc(-c2c3nc(c(-c4c(F)c(F)c(F)c(F)c4F)c4ccc([nH]4)c(-c4c(F)c(F)c(F)c(F)c4F)c4nc(c(-c5c(F)c(F)c(F)c(F)c5F)c5ccc2[nH]5)C=C4)C=C3)cc1
REMARK SMILES IDX 21 1 20 4 18 5 19 6 5 8 4 10 2 13 1 15 3 19 6 23 7 24 8 26
REMARK SMILES IDX 9 27 10 30 11 31 12 33 13 34 14 36 15 40 16 42 17 46 22 50
REMARK SMILES IDX 23 53 24 56 25 59 26 62 27 65 28 66 29 68 30 69 31 70 92 71
REMARK SMILES IDX 32 72 91 74 33 76 34 79 35 80 85 81 36 82 90 83 84 84 86 85
REMARK SMILES IDX 37 86 89 87 83 89 82 91 38 93 70 96 50 97 69 98 51 99 54 100
REMARK SMILES IDX 68 101 87 102 52 103 53 105 67 107 88 108 55 111 39 113
REMARK SMILES IDX 40 114 48 115 41 116 42 117 46 118 49 119 43 120 44 121
REMARK SMILES IDX 47 122 45 123 71 124 72 125 80 126 73 127 74 128 78 129
REMARK SMILES IDX 81 130 75 131 76 132 79 133 77 134 56 135 57 136 65 137
REMARK SMILES IDX 58 138 59 139 63 140 66 141 60 142 61 143 64 144 62 145
REMARK H PARENT 21 2 21 3 20 7 5 9 4 11 4 12 2 14 1 16 1 17 1 18 3 20 3 21
REMARK H PARENT 3 22 6 25 9 28 9 29 10 32 13 35 14 37 14 38 14 39 15 41 16 43
REMARK H PARENT 16 44 16 45 17 47 17 48 17 49 22 51 22 52 23 54 23 55 24 57
REMARK H PARENT 24 58 25 60 25 61 26 63 26 64 27 67 31 73 92 75 32 77 91 78
REMARK H PARENT 90 88 84 90 86 92 89 94 83 95 51 104 54 106 87 109 52 110
REMARK H PARENT 88 112
REMARK Flexibility Score: inf
ROOT
ATOM      1  C   UNL A   1      32.865  28.622  24.135  1.00  0.00     0.017 C 
ATOM      2  H   UNL A   1      31.965  28.143  24.455  1.00  0.00     0.049 H 
ATOM      3  H   UNL A   1      32.644  29.552  23.654  1.00  0.00     0.049 H 
ENDROOT
BRANCH   1   4
ATOM      4  N   UNL A   1      33.548  27.766  23.192  1.00  0.00    -0.354 N 
ATOM      5  C   UNL A   1      33.397  26.438  22.941  1.00  0.00     0.242 C 
ATOM      6  O   UNL A   1      34.008  25.964  21.978  1.00  0.00    -0.273 OA
ATOM      7  H   UNL A   1      34.231  28.215  22.644  1.00  0.00     0.163 HD
BRANCH   5   8
ATOM      8  C   UNL A   1      32.404  25.578  23.742  1.00  0.00     0.108 C 
ATOM      9  H   UNL A   1      31.488  26.131  23.779  1.00  0.00     0.063 H 
BRANCH   8  10
ATOM     10  C   UNL A   1      32.836  25.383  25.202  1.00  0.00    -0.021 C 
ATOM     11  H   UNL A   1      33.297  24.422  25.290  1.00  0.00     0.030 H 
ATOM     12  H   UNL A   1      33.501  26.188  25.434  1.00  0.00     0.030 H 
BRANCH  10  13
ATOM     13  C   UNL A   1      31.678  25.459  26.230  1.00  0.00    -0.045 C 
ATOM     14  H   UNL A   1      32.071  25.950  27.095  1.00  0.00     0.030 H 
BRANCH  13  15
ATOM     15  C   UNL A   1      30.490  26.280  25.735  1.00  0.00    -0.063 C 
ATOM     16  H   UNL A   1      30.440  26.229  24.667  1.00  0.00     0.023 H 
ATOM     17  H   UNL A   1      30.610  27.300  26.037  1.00  0.00     0.023 H 
ATOM     18  H   UNL A   1      29.587  25.889  26.154  1.00  0.00     0.023 H 
ENDBRANCH  13  15
BRANCH  13  19
ATOM     19  C   UNL A   1      31.197  24.048  26.571  1.00  0.00    -0.063 C 
ATOM     20  H   UNL A   1      30.302  24.108  27.152  1.00  0.00     0.023 H 
ATOM     21  H   UNL A   1      31.954  23.539  27.131  1.00  0.00     0.023 H 
ATOM     22  H   UNL A   1      31.000  23.510  25.667  1.00  0.00     0.023 H 
ENDBRANCH  13  19
ENDBRANCH  10  13
ENDBRANCH   8  10
BRANCH   8  23
ATOM     23  N   UNL A   1      32.084  24.318  23.070  1.00  0.00    -0.343 N 
ATOM     24  C   UNL A   1      32.720  23.114  23.115  1.00  0.00     0.240 C 
ATOM     25  H   UNL A   1      31.286  24.343  22.495  1.00  0.00     0.164 HD
ATOM     26  O   UNL A   1      32.105  22.151  22.642  1.00  0.00    -0.273 OA
BRANCH  24  27
ATOM     27  C   UNL A   1      34.057  22.900  23.837  1.00  0.00     0.097 C 
ATOM     28  H   UNL A   1      34.553  23.845  23.902  1.00  0.00     0.059 H 
ATOM     29  H   UNL A   1      34.589  22.172  23.260  1.00  0.00     0.059 H 
BRANCH  27  30
ATOM     30  N   UNL A   1      33.965  22.352  25.179  1.00  0.00    -0.342 N 
ATOM     31  C   UNL A   1      33.950  21.059  25.605  1.00  0.00     0.278 C 
ATOM     32  H   UNL A   1      33.902  23.023  25.895  1.00  0.00     0.164 HD
ATOM     33  O   UNL A   1      33.929  20.884  26.828  1.00  0.00    -0.268 OA
BRANCH  31  34
ATOM     34  C   UNL A   1      34.018  19.841  24.644  1.00  0.00     0.166 C 
ATOM     35  H   UNL A   1      34.187  20.217  23.656  1.00  0.00     0.107 H 
BRANCH  34  36
ATOM     36  N   UNL A   1      35.162  18.955  24.939  1.00  0.00    -0.347 N 
ATOM     37  H   UNL A   1      35.436  19.066  25.915  1.00  0.00     0.345 HD
ATOM     38  H   UNL A   1      35.946  19.198  24.335  1.00  0.00     0.345 HD
ATOM     39  H   UNL A   1      34.893  17.985  24.771  1.00  0.00     0.345 HD
ENDBRANCH  34  36
BRANCH  34  40
ATOM     40  C   UNL A   1      32.674  19.081  24.631  1.00  0.00     0.015 C 
ATOM     41  H   UNL A   1      31.924  19.772  24.956  1.00  0.00     0.036 H 
BRANCH  40  42
ATOM     42  C   UNL A   1      32.356  18.578  23.216  1.00  0.00    -0.057 C 
ATOM     43  H   UNL A   1      31.350  18.841  22.962  1.00  0.00     0.024 H 
ATOM     44  H   UNL A   1      32.467  17.514  23.182  1.00  0.00     0.024 H 
ATOM     45  H   UNL A   1      33.029  19.029  22.517  1.00  0.00     0.024 H 
ENDBRANCH  40  42
BRANCH  40  46
ATOM     46  C   UNL A   1      32.685  17.882  25.587  1.00  0.00    -0.057 C 
ATOM     47  H   UNL A   1      32.919  18.216  26.576  1.00  0.00     0.024 H 
ATOM     48  H   UNL A   1      33.422  17.175  25.265  1.00  0.00     0.024 H 
ATOM     49  H   UNL A   1      31.721  17.416  25.587  1.00  0.00     0.024 H 
ENDBRANCH  40  46
ENDBRANCH  34  40
ENDBRANCH  31  34
ENDBRANCH  27  30
ENDBRANCH  24  27
ENDBRANCH   8  23
ENDBRANCH   5   8
ENDBRANCH   1   4
BRANCH   1  50
ATOM     50  C   UNL A   1      33.740  28.901  25.351  1.00  0.00    -0.036 C 
ATOM     51  H   UNL A   1      34.616  29.422  25.024  1.00  0.00     0.028 H 
ATOM     52  H   UNL A   1      33.969  27.955  25.794  1.00  0.00     0.028 H 
BRANCH  50  53
ATOM     53  C   UNL A   1      33.048  29.745  26.427  1.00  0.00    -0.052 C 
ATOM     54  H   UNL A   1      33.745  30.480  26.772  1.00  0.00     0.027 H 
ATOM     55  H   UNL A   1      32.741  29.063  27.192  1.00  0.00     0.027 H 
BRANCH  53  56
ATOM     56  C   UNL A   1      31.781  30.470  25.960  1.00  0.00    -0.052 C 
ATOM     57  H   UNL A   1      30.949  29.814  26.106  1.00  0.00     0.027 H 
ATOM     58  H   UNL A   1      31.944  30.725  24.933  1.00  0.00     0.027 H 
BRANCH  56  59
ATOM     59  C   UNL A   1      31.486  31.784  26.687  1.00  0.00    -0.036 C 
ATOM     60  H   UNL A   1      30.856  31.567  27.524  1.00  0.00     0.028 H 
ATOM     61  H   UNL A   1      31.021  32.431  25.974  1.00  0.00     0.028 H 
BRANCH  59  62
ATOM     62  C   UNL A   1      32.722  32.510  27.197  1.00  0.00     0.018 C 
ATOM     63  H   UNL A   1      33.487  32.458  26.452  1.00  0.00     0.049 H 
ATOM     64  H   UNL A   1      33.035  32.035  28.104  1.00  0.00     0.049 H 
BRANCH  62  65
ATOM     65  N   UNL A   1      32.448  33.906  27.492  1.00  0.00    -0.352 N 
ATOM     66  C   UNL A   1      32.999  34.709  28.456  1.00  0.00     0.251 C 
ATOM     67  H   UNL A   1      31.770  34.335  26.921  1.00  0.00     0.163 HD
ATOM     68  O   UNL A   1      32.508  35.806  28.709  1.00  0.00    -0.269 OA
BRANCH  66  69
ATOM     69  C   UNL A   1      34.178  34.234  29.207  1.00  0.00     0.039 A 
ATOM     70  C   UNL A   1      33.979  33.481  30.365  1.00  0.00    -0.049 A 
ATOM     71  C   UNL A   1      35.472  34.516  28.758  1.00  0.00    -0.049 A 
ATOM     72  C   UNL A   1      35.079  32.956  31.040  1.00  0.00    -0.053 A 
ATOM     73  H   UNL A   1      33.023  33.313  30.718  1.00  0.00     0.063 H 
ATOM     74  C   UNL A   1      36.563  33.925  29.386  1.00  0.00    -0.053 A 
ATOM     75  H   UNL A   1      35.616  35.159  27.964  1.00  0.00     0.063 H 
ATOM     76  C   UNL A   1      36.377  33.141  30.533  1.00  0.00    -0.014 A 
ATOM     77  H   UNL A   1      34.940  32.429  31.917  1.00  0.00     0.063 H 
ATOM     78  H   UNL A   1      37.513  34.066  29.008  1.00  0.00     0.063 H 
BRANCH  76  79
ATOM     79  C   UNL A   1      37.546  32.497  31.181  1.00  0.00     0.031 A 
ATOM     80  C   UNL A   1      38.259  31.360  30.508  1.00  0.00     0.074 A 
ATOM     81  C   UNL A   1      37.923  32.900  32.409  1.00  0.00     0.049 A 
ATOM     82  N   UNL A   1      39.267  30.645  30.940  1.00  0.00    -0.248 NA
ATOM     83  C   UNL A   1      37.756  30.956  29.187  1.00  0.00    -0.034 C 
ATOM     84  C   UNL A   1      37.270  33.954  33.187  1.00  0.00    -0.036 A 
ATOM     85  N   UNL A   1      38.936  32.462  33.225  1.00  0.00    -0.354 N 
ATOM     86  C   UNL A   1      39.515  29.707  29.947  1.00  0.00     0.074 A 
ATOM     87  C   UNL A   1      38.510  29.900  28.923  1.00  0.00    -0.034 C 
ATOM     88  H   UNL A   1      37.011  31.384  28.615  1.00  0.00     0.065 H 
ATOM     89  C   UNL A   1      37.910  34.095  34.357  1.00  0.00    -0.036 A 
ATOM     90  H   UNL A   1      36.450  34.502  32.883  1.00  0.00     0.065 H 
ATOM     91  C   UNL A   1      38.989  33.114  34.432  1.00  0.00     0.049 A 
ATOM     92  H   UNL A   1      39.565  31.749  32.969  1.00  0.00     0.167 HD
ATOM     93  C   UNL A   1      40.507  28.786  29.882  1.00  0.00     0.037 A 
ATOM     94  H   UNL A   1      38.395  29.295  28.096  1.00  0.00     0.065 H 
ATOM     95  H   UNL A   1      37.678  34.786  35.089  1.00  0.00     0.065 H 
ATOM     96  C   UNL A   1      39.805  32.933  35.487  1.00  0.00     0.037 A 
ATOM     97  C   UNL A   1      41.501  28.599  30.908  1.00  0.00     0.049 A 
ATOM     98  C   UNL A   1      40.883  31.888  35.407  1.00  0.00     0.074 A 
ATOM     99  C   UNL A   1      42.581  27.734  30.917  1.00  0.00    -0.036 A 
ATOM    100  N   UNL A   1      41.528  29.281  32.117  1.00  0.00    -0.354 N 
ATOM    101  N   UNL A   1      41.160  31.061  34.429  1.00  0.00    -0.248 NA
ATOM    102  C   UNL A   1      41.763  31.755  36.574  1.00  0.00    -0.034 C 
ATOM    103  C   UNL A   1      43.222  27.846  32.156  1.00  0.00    -0.036 A 
ATOM    104  H   UNL A   1      42.863  27.111  30.145  1.00  0.00     0.065 H 
ATOM    105  C   UNL A   1      42.583  28.830  32.895  1.00  0.00     0.049 A 
ATOM    106  H   UNL A   1      40.891  29.984  32.382  1.00  0.00     0.167 HD
ATOM    107  C   UNL A   1      42.255  30.320  34.853  1.00  0.00     0.074 A 
ATOM    108  C   UNL A   1      42.605  30.814  36.170  1.00  0.00    -0.034 C 
ATOM    109  H   UNL A   1      41.735  32.262  37.473  1.00  0.00     0.065 H 
ATOM    110  H   UNL A   1      44.035  27.292  32.466  1.00  0.00     0.065 H 
ATOM    111  C   UNL A   1      42.910  29.321  34.212  1.00  0.00     0.037 A 
ATOM    112  H   UNL A   1      43.407  30.475  36.723  1.00  0.00     0.065 H 
BRANCH  93 113
ATOM    113  C   UNL A   1      40.552  27.906  28.664  1.00  0.00     0.064 A 
ATOM    114  C   UNL A   1      39.866  26.682  28.612  1.00  0.00     0.173 A 
ATOM    115  C   UNL A   1      41.285  28.290  27.532  1.00  0.00     0.173 A 
ATOM    116  F   UNL A   1      39.156  26.260  29.670  1.00  0.00    -0.203 F 
ATOM    117  C   UNL A   1      39.951  25.856  27.494  1.00  0.00     0.198 A 
ATOM    118  C   UNL A   1      41.337  27.480  26.400  1.00  0.00     0.198 A 
ATOM    119  F   UNL A   1      41.954  29.453  27.520  1.00  0.00    -0.203 F 
ATOM    120  F   UNL A   1      39.344  24.662  27.498  1.00  0.00    -0.200 F 
ATOM    121  C   UNL A   1      40.682  26.258  26.388  1.00  0.00     0.200 A 
ATOM    122  F   UNL A   1      42.032  27.877  25.324  1.00  0.00    -0.200 F 
ATOM    123  F   UNL A   1      40.765  25.463  25.312  1.00  0.00    -0.200 F 
ENDBRANCH  93 113
BRANCH  96 124
ATOM    124  C   UNL A   1      39.629  33.772  36.700  1.00  0.00     0.064 A 
ATOM    125  C   UNL A   1      40.227  35.035  36.800  1.00  0.00     0.173 A 
ATOM    126  C   UNL A   1      38.831  33.340  37.771  1.00  0.00     0.173 A 
ATOM    127  F   UNL A   1      41.012  35.485  35.810  1.00  0.00    -0.203 F 
ATOM    128  C   UNL A   1      40.043  35.831  37.929  1.00  0.00     0.198 A 
ATOM    129  C   UNL A   1      38.623  34.150  38.887  1.00  0.00     0.198 A 
ATOM    130  F   UNL A   1      38.230  32.143  37.721  1.00  0.00    -0.203 F 
ATOM    131  F   UNL A   1      40.654  37.020  38.015  1.00  0.00    -0.200 F 
ATOM    132  C   UNL A   1      39.234  35.392  38.967  1.00  0.00     0.200 A 
ATOM    133  F   UNL A   1      37.825  33.728  39.877  1.00  0.00    -0.200 F 
ATOM    134  F   UNL A   1      39.044  36.164  40.045  1.00  0.00    -0.200 F 
ENDBRANCH  96 124
BRANCH 111 135
ATOM    135  C   UNL A   1      44.078  28.698  34.922  1.00  0.00     0.064 A 
ATOM    136  C   UNL A   1      43.926  27.563  35.733  1.00  0.00     0.173 A 
ATOM    137  C   UNL A   1      45.371  29.218  34.760  1.00  0.00     0.173 A 
ATOM    138  F   UNL A   1      42.710  27.035  35.935  1.00  0.00    -0.203 F 
ATOM    139  C   UNL A   1      45.021  26.990  36.377  1.00  0.00     0.198 A 
ATOM    140  C   UNL A   1      46.468  28.623  35.377  1.00  0.00     0.198 A 
ATOM    141  F   UNL A   1      45.574  30.299  33.990  1.00  0.00    -0.203 F 
ATOM    142  F   UNL A   1      44.843  25.939  37.188  1.00  0.00    -0.200 F 
ATOM    143  C   UNL A   1      46.291  27.515  36.191  1.00  0.00     0.200 A 
ATOM    144  F   UNL A   1      47.696  29.123  35.184  1.00  0.00    -0.200 F 
ATOM    145  F   UNL A   1      47.344  26.958  36.803  1.00  0.00    -0.200 F 
ENDBRANCH 111 135
ENDBRANCH  76  79
ENDBRANCH  66  69
ENDBRANCH  62  65
ENDBRANCH  59  62
ENDBRANCH  56  59
ENDBRANCH  53  56
ENDBRANCH  50  53
ENDBRANCH   1  50
TORSDOF 25
ENDMDL
MODEL 5
REMARK VINA RESULT:     -10.0      3.246      8.098
REMARK SMILES CC(C)C[C@H](NC(=O)CNC(=O)[C@@H]([NH3+])C(C)C)C(=O)NCCCCCCNC(=O)c1ccc(-c2c3nc(c(-c4c(F)c(F)c(F)c(F)c4F)c4ccc([nH]4)c(-c4c(F)c(F)c(F)c(F)c4F)c4nc(c(-c5c(F)c(F)c(F)c(F)c5F)c5ccc2[nH]5)C=C4)C=C3)cc1
REMARK SMILES IDX 21 1 20 4 18 5 19 6 5 8 4 10 2 13 1 15 3 19 6 23 7 24 8 26
REMARK SMILES IDX 9 27 10 30 11 31 12 33 13 34 14 36 15 40 16 42 17 46 22 50
REMARK SMILES IDX 23 53 24 56 25 59 26 62 27 65 28 66 29 68 30 69 31 70 92 71
REMARK SMILES IDX 32 72 91 74 33 76 34 79 35 80 85 81 36 82 90 83 84 84 86 85
REMARK SMILES IDX 37 86 89 87 83 89 82 91 38 93 70 96 50 97 69 98 51 99 54 100
REMARK SMILES IDX 68 101 87 102 52 103 53 105 67 107 88 108 55 111 39 113
REMARK SMILES IDX 40 114 48 115 41 116 42 117 46 118 49 119 43 120 44 121
REMARK SMILES IDX 47 122 45 123 71 124 72 125 80 126 73 127 74 128 78 129
REMARK SMILES IDX 81 130 75 131 76 132 79 133 77 134 56 135 57 136 65 137
REMARK SMILES IDX 58 138 59 139 63 140 66 141 60 142 61 143 64 144 62 145
REMARK H PARENT 21 2 21 3 20 7 5 9 4 11 4 12 2 14 1 16 1 17 1 18 3 20 3 21
REMARK H PARENT 3 22 6 25 9 28 9 29 10 32 13 35 14 37 14 38 14 39 15 41 16 43
REMARK H PARENT 16 44 16 45 17 47 17 48 17 49 22 51 22 52 23 54 23 55 24 57
REMARK H PARENT 24 58 25 60 25 61 26 63 26 64 27 67 31 73 92 75 32 77 91 78
REMARK H PARENT 90 88 84 90 86 92 89 94 83 95 51 104 54 106 87 109 52 110
REMARK H PARENT 88 112
REMARK Flexibility Score: inf
ROOT
ATOM      1  C   UNL A   1      35.823  24.058  25.053  1.00  0.00     0.017 C 
ATOM      2  H   UNL A   1      35.278  23.553  25.822  1.00  0.00     0.049 H 
ATOM      3  H   UNL A   1      35.738  25.118  25.168  1.00  0.00     0.049 H 
ENDROOT
BRANCH   1   4
ATOM      4  N   UNL A   1      35.281  23.688  23.765  1.00  0.00    -0.354 N 
ATOM      5  C   UNL A   1      34.014  23.789  23.284  1.00  0.00     0.242 C 
ATOM      6  O   UNL A   1      33.834  23.531  22.089  1.00  0.00    -0.273 OA
ATOM      7  H   UNL A   1      35.934  23.303  23.137  1.00  0.00     0.163 HD
BRANCH   5   8
ATOM      8  C   UNL A   1      32.865  24.329  24.153  1.00  0.00     0.108 C 
ATOM      9  H   UNL A   1      31.958  23.985  23.702  1.00  0.00     0.063 H 
BRANCH   8  10
ATOM     10  C   UNL A   1      32.785  25.862  24.139  1.00  0.00    -0.021 C 
ATOM     11  H   UNL A   1      33.717  26.243  23.778  1.00  0.00     0.030 H 
ATOM     12  H   UNL A   1      31.958  26.119  23.511  1.00  0.00     0.030 H 
BRANCH  10  13
ATOM     13  C   UNL A   1      32.504  26.503  25.521  1.00  0.00    -0.045 C 
ATOM     14  H   UNL A   1      32.392  25.696  26.214  1.00  0.00     0.030 H 
BRANCH  13  15
ATOM     15  C   UNL A   1      33.650  27.380  26.021  1.00  0.00    -0.063 C 
ATOM     16  H   UNL A   1      33.610  27.445  27.089  1.00  0.00     0.023 H 
ATOM     17  H   UNL A   1      33.559  28.360  25.602  1.00  0.00     0.023 H 
ATOM     18  H   UNL A   1      34.584  26.950  25.724  1.00  0.00     0.023 H 
ENDBRANCH  13  15
BRANCH  13  19
ATOM     19  C   UNL A   1      31.231  27.347  25.450  1.00  0.00    -0.063 C 
ATOM     20  H   UNL A   1      30.618  27.139  26.301  1.00  0.00     0.023 H 
ATOM     21  H   UNL A   1      30.694  27.107  24.556  1.00  0.00     0.023 H 
ATOM     22  H   UNL A   1      31.490  28.385  25.442  1.00  0.00     0.023 H 
ENDBRANCH  13  19
ENDBRANCH  10  13
ENDBRANCH   8  10
BRANCH   8  23
ATOM     23  N   UNL A   1      32.876  23.772  25.507  1.00  0.00    -0.343 N 
ATOM     24  C   UNL A   1      32.772  22.480  25.924  1.00  0.00     0.240 C 
ATOM     25  H   UNL A   1      32.975  24.434  26.228  1.00  0.00     0.164 HD
ATOM     26  O   UNL A   1      33.052  22.262  27.109  1.00  0.00    -0.273 OA
BRANCH  24  27
ATOM     27  C   UNL A   1      32.472  21.314  24.971  1.00  0.00     0.097 C 
ATOM     28  H   UNL A   1      33.320  21.182  24.334  1.00  0.00     0.059 H 
ATOM     29  H   UNL A   1      31.577  21.585  24.450  1.00  0.00     0.059 H 
BRANCH  27  30
ATOM     30  N   UNL A   1      32.190  20.041  25.610  1.00  0.00    -0.342 N 
ATOM     31  C   UNL A   1      32.707  18.803  25.377  1.00  0.00     0.278 C 
ATOM     32  H   UNL A   1      31.517  20.078  26.326  1.00  0.00     0.164 HD
ATOM     33  O   UNL A   1      32.326  17.897  26.127  1.00  0.00    -0.268 OA
BRANCH  31  34
ATOM     34  C   UNL A   1      33.767  18.512  24.279  1.00  0.00     0.166 C 
ATOM     35  H   UNL A   1      33.911  19.413  23.721  1.00  0.00     0.107 H 
BRANCH  34  36
ATOM     36  N   UNL A   1      35.088  18.176  24.849  1.00  0.00    -0.347 N 
ATOM     37  H   UNL A   1      35.695  18.994  24.810  1.00  0.00     0.345 HD
ATOM     38  H   UNL A   1      35.506  17.416  24.313  1.00  0.00     0.345 HD
ATOM     39  H   UNL A   1      34.976  17.884  25.820  1.00  0.00     0.345 HD
ENDBRANCH  34  36
BRANCH  34  40
ATOM     40  C   UNL A   1      33.258  17.432  23.301  1.00  0.00     0.015 C 
ATOM     41  H   UNL A   1      32.590  16.804  23.854  1.00  0.00     0.036 H 
BRANCH  40  42
ATOM     42  C   UNL A   1      32.523  18.081  22.120  1.00  0.00    -0.057 C 
ATOM     43  H   UNL A   1      31.499  17.770  22.123  1.00  0.00     0.024 H 
ATOM     44  H   UNL A   1      32.985  17.781  21.203  1.00  0.00     0.024 H 
ATOM     45  H   UNL A   1      32.572  19.146  22.212  1.00  0.00     0.024 H 
ENDBRANCH  40  42
BRANCH  40  46
ATOM     46  C   UNL A   1      34.402  16.570  22.752  1.00  0.00    -0.057 C 
ATOM     47  H   UNL A   1      34.702  16.943  21.795  1.00  0.00     0.024 H 
ATOM     48  H   UNL A   1      34.069  15.557  22.652  1.00  0.00     0.024 H 
ATOM     49  H   UNL A   1      35.233  16.607  23.426  1.00  0.00     0.024 H 
ENDBRANCH  40  46
ENDBRANCH  34  40
ENDBRANCH  31  34
ENDBRANCH  27  30
ENDBRANCH  24  27
ENDBRANCH   8  23
ENDBRANCH   5   8
ENDBRANCH   1   4
BRANCH   1  50
ATOM     50  C   UNL A   1      37.295  23.677  25.156  1.00  0.00    -0.036 C 
ATOM     51  H   UNL A   1      37.784  24.384  25.793  1.00  0.00     0.028 H 
ATOM     52  H   UNL A   1      37.689  23.683  24.161  1.00  0.00     0.028 H 
BRANCH  50  53
ATOM     53  C   UNL A   1      37.530  22.272  25.721  1.00  0.00    -0.052 C 
ATOM     54  H   UNL A   1      36.794  22.090  26.476  1.00  0.00     0.027 H 
ATOM     55  H   UNL A   1      38.531  22.263  26.098  1.00  0.00     0.027 H 
BRANCH  53  56
ATOM     56  C   UNL A   1      37.446  21.142  24.689  1.00  0.00    -0.052 C 
ATOM     57  H   UNL A   1      37.749  21.533  23.741  1.00  0.00     0.027 H 
ATOM     58  H   UNL A   1      36.431  20.800  24.701  1.00  0.00     0.027 H 
BRANCH  56  59
ATOM     59  C   UNL A   1      38.314  19.920  25.000  1.00  0.00    -0.036 C 
ATOM     60  H   UNL A   1      38.857  19.663  24.114  1.00  0.00     0.028 H 
ATOM     61  H   UNL A   1      37.649  19.145  25.319  1.00  0.00     0.028 H 
BRANCH  59  62
ATOM     62  C   UNL A   1      39.314  20.132  26.127  1.00  0.00     0.018 C 
ATOM     63  H   UNL A   1      38.804  20.054  27.063  1.00  0.00     0.049 H 
ATOM     64  H   UNL A   1      39.751  21.101  26.005  1.00  0.00     0.049 H 
BRANCH  62  65
ATOM     65  N   UNL A   1      40.385  19.150  26.094  1.00  0.00    -0.352 N 
ATOM     66  C   UNL A   1      41.739  19.350  26.085  1.00  0.00     0.251 C 
ATOM     67  H   UNL A   1      40.095  18.208  26.073  1.00  0.00     0.163 HD
ATOM     68  O   UNL A   1      42.505  18.421  25.845  1.00  0.00    -0.269 OA
BRANCH  66  69
ATOM     69  C   UNL A   1      42.274  20.701  26.345  1.00  0.00     0.039 A 
ATOM     70  C   UNL A   1      42.547  21.536  25.260  1.00  0.00    -0.049 A 
ATOM     71  C   UNL A   1      42.484  21.148  27.654  1.00  0.00    -0.049 A 
ATOM     72  C   UNL A   1      42.974  22.843  25.490  1.00  0.00    -0.053 A 
ATOM     73  H   UNL A   1      42.434  21.188  24.294  1.00  0.00     0.063 H 
ATOM     74  C   UNL A   1      42.832  22.475  27.882  1.00  0.00    -0.053 A 
ATOM     75  H   UNL A   1      42.380  20.495  28.446  1.00  0.00     0.063 H 
ATOM     76  C   UNL A   1      43.081  23.334  26.802  1.00  0.00    -0.014 A 
ATOM     77  H   UNL A   1      43.213  23.453  24.691  1.00  0.00     0.063 H 
ATOM     78  H   UNL A   1      42.908  22.828  28.848  1.00  0.00     0.063 H 
BRANCH  76  79
ATOM     79  C   UNL A   1      43.428  24.754  27.058  1.00  0.00     0.031 A 
ATOM     80  C   UNL A   1      44.824  25.251  26.817  1.00  0.00     0.074 A 
ATOM     81  C   UNL A   1      42.495  25.578  27.570  1.00  0.00     0.049 A 
ATOM     82  N   UNL A   1      45.325  26.442  27.028  1.00  0.00    -0.248 NA
ATOM     83  C   UNL A   1      45.791  24.274  26.297  1.00  0.00    -0.034 C 
ATOM     84  C   UNL A   1      41.122  25.193  27.901  1.00  0.00    -0.036 A 
ATOM     85  N   UNL A   1      42.562  26.904  27.916  1.00  0.00    -0.354 N 
ATOM     86  C   UNL A   1      46.663  26.355  26.669  1.00  0.00     0.074 A 
ATOM     87  C   UNL A   1      46.912  24.980  26.293  1.00  0.00    -0.034 C 
ATOM     88  H   UNL A   1      45.637  23.295  26.009  1.00  0.00     0.065 H 
ATOM     89  C   UNL A   1      40.471  26.263  28.383  1.00  0.00    -0.036 A 
ATOM     90  H   UNL A   1      40.718  24.251  27.781  1.00  0.00     0.065 H 
ATOM     91  C   UNL A   1      41.391  27.396  28.436  1.00  0.00     0.049 A 
ATOM     92  H   UNL A   1      43.374  27.451  27.801  1.00  0.00     0.167 HD
ATOM     93  C   UNL A   1      47.593  27.340  26.631  1.00  0.00     0.037 A 
ATOM     94  H   UNL A   1      47.839  24.599  26.053  1.00  0.00     0.065 H 
ATOM     95  H   UNL A   1      39.480  26.283  28.670  1.00  0.00     0.065 H 
ATOM     96  C   UNL A   1      41.094  28.618  28.916  1.00  0.00     0.037 A 
ATOM     97  C   UNL A   1      47.338  28.706  27.010  1.00  0.00     0.049 A 
ATOM     98  C   UNL A   1      42.148  29.690  28.891  1.00  0.00     0.074 A 
ATOM     99  C   UNL A   1      48.194  29.792  26.956  1.00  0.00    -0.036 A 
ATOM    100  N   UNL A   1      46.137  29.171  27.528  1.00  0.00    -0.354 N 
ATOM    101  N   UNL A   1      43.388  29.619  28.472  1.00  0.00    -0.248 NA
ATOM    102  C   UNL A   1      41.760  31.012  29.397  1.00  0.00    -0.034 C 
ATOM    103  C   UNL A   1      47.532  30.898  27.502  1.00  0.00    -0.036 A 
ATOM    104  H   UNL A   1      49.155  29.786  26.582  1.00  0.00     0.065 H 
ATOM    105  C   UNL A   1      46.241  30.519  27.834  1.00  0.00     0.049 A 
ATOM    106  H   UNL A   1      45.329  28.623  27.659  1.00  0.00     0.167 HD
ATOM    107  C   UNL A   1      43.925  30.887  28.650  1.00  0.00     0.074 A 
ATOM    108  C   UNL A   1      42.865  31.713  29.193  1.00  0.00    -0.034 C 
ATOM    109  H   UNL A   1      40.861  31.315  29.806  1.00  0.00     0.065 H 
ATOM    110  H   UNL A   1      47.937  31.838  27.633  1.00  0.00     0.065 H 
ATOM    111  C   UNL A   1      45.181  31.326  28.389  1.00  0.00     0.037 A 
ATOM    112  H   UNL A   1      42.960  32.721  29.395  1.00  0.00     0.065 H 
BRANCH  93 113
ATOM    113  C   UNL A   1      48.975  26.964  26.173  1.00  0.00     0.064 A 
ATOM    114  C   UNL A   1      49.370  27.098  24.831  1.00  0.00     0.173 A 
ATOM    115  C   UNL A   1      49.920  26.469  27.083  1.00  0.00     0.173 A 
ATOM    116  F   UNL A   1      48.504  27.559  23.915  1.00  0.00    -0.203 F 
ATOM    117  C   UNL A   1      50.639  26.706  24.412  1.00  0.00     0.198 A 
ATOM    118  C   UNL A   1      51.201  26.114  26.667  1.00  0.00     0.198 A 
ATOM    119  F   UNL A   1      49.603  26.327  28.379  1.00  0.00    -0.203 F 
ATOM    120  F   UNL A   1      50.966  26.779  23.115  1.00  0.00    -0.200 F 
ATOM    121  C   UNL A   1      51.555  26.219  25.331  1.00  0.00     0.200 A 
ATOM    122  F   UNL A   1      52.092  25.658  27.560  1.00  0.00    -0.200 F 
ATOM    123  F   UNL A   1      52.776  25.842  24.927  1.00  0.00    -0.200 F 
ENDBRANCH  93 113
BRANCH  96 124
ATOM    124  C   UNL A   1      39.734  28.882  29.452  1.00  0.00     0.064 A 
ATOM    125  C   UNL A   1      38.719  29.394  28.632  1.00  0.00     0.173 A 
ATOM    126  C   UNL A   1      39.413  28.597  30.788  1.00  0.00     0.173 A 
ATOM    127  F   UNL A   1      38.983  29.699  27.353  1.00  0.00    -0.203 F 
ATOM    128  C   UNL A   1      37.438  29.621  29.130  1.00  0.00     0.198 A 
ATOM    129  C   UNL A   1      38.123  28.795  31.277  1.00  0.00     0.198 A 
ATOM    130  F   UNL A   1      40.345  28.098  31.611  1.00  0.00    -0.203 F 
ATOM    131  F   UNL A   1      36.495  30.144  28.334  1.00  0.00    -0.200 F 
ATOM    132  C   UNL A   1      37.138  29.313  30.449  1.00  0.00     0.200 A 
ATOM    133  F   UNL A   1      37.834  28.478  32.546  1.00  0.00    -0.200 F 
ATOM    134  F   UNL A   1      35.901  29.516  30.923  1.00  0.00    -0.200 F 
ENDBRANCH  96 124
BRANCH 111 135
ATOM    135  C   UNL A   1      45.479  32.770  28.681  1.00  0.00     0.064 A 
ATOM    136  C   UNL A   1      46.059  33.171  29.894  1.00  0.00     0.173 A 
ATOM    137  C   UNL A   1      45.216  33.759  27.721  1.00  0.00     0.173 A 
ATOM    138  F   UNL A   1      46.315  32.268  30.851  1.00  0.00    -0.203 F 
ATOM    139  C   UNL A   1      46.339  34.513  30.145  1.00  0.00     0.198 A 
ATOM    140  C   UNL A   1      45.528  35.094  27.962  1.00  0.00     0.198 A 
ATOM    141  F   UNL A   1      44.667  33.430  26.542  1.00  0.00    -0.203 F 
ATOM    142  F   UNL A   1      46.843  34.878  31.331  1.00  0.00    -0.200 F 
ATOM    143  C   UNL A   1      46.082  35.470  29.176  1.00  0.00     0.200 A 
ATOM    144  F   UNL A   1      45.294  36.016  27.019  1.00  0.00    -0.200 F 
ATOM    145  F   UNL A   1      46.360  36.759  29.416  1.00  0.00    -0.200 F 
ENDBRANCH 111 135
ENDBRANCH  76  79
ENDBRANCH  66  69
ENDBRANCH  62  65
ENDBRANCH  59  62
ENDBRANCH  56  59
ENDBRANCH  53  56
ENDBRANCH  50  53
ENDBRANCH   1  50
TORSDOF 25
ENDMDL
MODEL 6
REMARK VINA RESULT:     -10.0      3.566      9.031
REMARK SMILES CC(C)C[C@H](NC(=O)CNC(=O)[C@@H]([NH3+])C(C)C)C(=O)NCCCCCCNC(=O)c1ccc(-c2c3nc(c(-c4c(F)c(F)c(F)c(F)c4F)c4ccc([nH]4)c(-c4c(F)c(F)c(F)c(F)c4F)c4nc(c(-c5c(F)c(F)c(F)c(F)c5F)c5ccc2[nH]5)C=C4)C=C3)cc1
REMARK SMILES IDX 21 1 20 4 18 5 19 6 5 8 4 10 2 13 1 15 3 19 6 23 7 24 8 26
REMARK SMILES IDX 9 27 10 30 11 31 12 33 13 34 14 36 15 40 16 42 17 46 22 50
REMARK SMILES IDX 23 53 24 56 25 59 26 62 27 65 28 66 29 68 30 69 31 70 92 71
REMARK SMILES IDX 32 72 91 74 33 76 34 79 35 80 85 81 36 82 90 83 84 84 86 85
REMARK SMILES IDX 37 86 89 87 83 89 82 91 38 93 70 96 50 97 69 98 51 99 54 100
REMARK SMILES IDX 68 101 87 102 52 103 53 105 67 107 88 108 55 111 39 113
REMARK SMILES IDX 40 114 48 115 41 116 42 117 46 118 49 119 43 120 44 121
REMARK SMILES IDX 47 122 45 123 71 124 72 125 80 126 73 127 74 128 78 129
REMARK SMILES IDX 81 130 75 131 76 132 79 133 77 134 56 135 57 136 65 137
REMARK SMILES IDX 58 138 59 139 63 140 66 141 60 142 61 143 64 144 62 145
REMARK H PARENT 21 2 21 3 20 7 5 9 4 11 4 12 2 14 1 16 1 17 1 18 3 20 3 21
REMARK H PARENT 3 22 6 25 9 28 9 29 10 32 13 35 14 37 14 38 14 39 15 41 16 43
REMARK H PARENT 16 44 16 45 17 47 17 48 17 49 22 51 22 52 23 54 23 55 24 57
REMARK H PARENT 24 58 25 60 25 61 26 63 26 64 27 67 31 73 92 75 32 77 91 78
REMARK H PARENT 90 88 84 90 86 92 89 94 83 95 51 104 54 106 87 109 52 110
REMARK H PARENT 88 112
REMARK Flexibility Score: inf
ROOT
ATOM      1  C   UNL A   1      32.911  22.699  22.405  1.00  0.00     0.017 C 
ATOM      2  H   UNL A   1      33.792  23.237  22.686  1.00  0.00     0.049 H 
ATOM      3  H   UNL A   1      33.011  22.306  21.415  1.00  0.00     0.049 H 
ENDROOT
BRANCH   1   4
ATOM      4  N   UNL A   1      31.779  23.597  22.432  1.00  0.00    -0.354 N 
ATOM      5  C   UNL A   1      31.673  24.864  22.915  1.00  0.00     0.242 C 
ATOM      6  O   UNL A   1      30.624  25.476  22.690  1.00  0.00    -0.273 OA
ATOM      7  H   UNL A   1      30.953  23.233  22.039  1.00  0.00     0.163 HD
BRANCH   5   8
ATOM      8  C   UNL A   1      32.859  25.563  23.602  1.00  0.00     0.108 C 
ATOM      9  H   UNL A   1      33.548  24.790  23.874  1.00  0.00     0.063 H 
BRANCH   8  10
ATOM     10  C   UNL A   1      32.459  26.248  24.917  1.00  0.00    -0.021 C 
ATOM     11  H   UNL A   1      32.919  27.213  24.945  1.00  0.00     0.030 H 
ATOM     12  H   UNL A   1      31.390  26.293  24.924  1.00  0.00     0.030 H 
BRANCH  10  13
ATOM     13  C   UNL A   1      32.875  25.477  26.195  1.00  0.00    -0.045 C 
ATOM     14  H   UNL A   1      32.904  26.195  26.988  1.00  0.00     0.030 H 
BRANCH  13  15
ATOM     15  C   UNL A   1      31.877  24.393  26.594  1.00  0.00    -0.063 C 
ATOM     16  H   UNL A   1      32.050  24.106  27.610  1.00  0.00     0.023 H 
ATOM     17  H   UNL A   1      32.002  23.541  25.958  1.00  0.00     0.023 H 
ATOM     18  H   UNL A   1      30.881  24.770  26.494  1.00  0.00     0.023 H 
ENDBRANCH  13  15
BRANCH  13  19
ATOM     19  C   UNL A   1      34.247  24.835  25.987  1.00  0.00    -0.063 C 
ATOM     20  H   UNL A   1      34.899  25.535  25.509  1.00  0.00     0.023 H 
ATOM     21  H   UNL A   1      34.144  23.966  25.371  1.00  0.00     0.023 H 
ATOM     22  H   UNL A   1      34.658  24.555  26.934  1.00  0.00     0.023 H 
ENDBRANCH  13  19
ENDBRANCH  10  13
ENDBRANCH   8  10
BRANCH   8  23
ATOM     23  N   UNL A   1      33.588  26.451  22.696  1.00  0.00    -0.343 N 
ATOM     24  C   UNL A   1      33.381  27.764  22.401  1.00  0.00     0.240 C 
ATOM     25  H   UNL A   1      34.347  26.035  22.227  1.00  0.00     0.164 HD
ATOM     26  O   UNL A   1      34.288  28.337  21.785  1.00  0.00    -0.273 OA
BRANCH  24  27
ATOM     27  C   UNL A   1      32.172  28.557  22.915  1.00  0.00     0.097 C 
ATOM     28  H   UNL A   1      32.532  29.323  23.569  1.00  0.00     0.059 H 
ATOM     29  H   UNL A   1      31.535  27.843  23.395  1.00  0.00     0.059 H 
BRANCH  27  30
ATOM     30  N   UNL A   1      31.357  29.191  21.893  1.00  0.00    -0.342 N 
ATOM     31  C   UNL A   1      30.154  29.820  21.987  1.00  0.00     0.278 C 
ATOM     32  H   UNL A   1      31.737  29.160  20.986  1.00  0.00     0.164 HD
ATOM     33  O   UNL A   1      29.717  30.331  20.950  1.00  0.00    -0.268 OA
BRANCH  31  34
ATOM     34  C   UNL A   1      29.367  29.965  23.319  1.00  0.00     0.166 C 
ATOM     35  H   UNL A   1      29.467  29.045  23.856  1.00  0.00     0.107 H 
BRANCH  34  36
ATOM     36  N   UNL A   1      29.936  31.008  24.197  1.00  0.00    -0.347 N 
ATOM     37  H   UNL A   1      29.590  30.879  25.148  1.00  0.00     0.345 HD
ATOM     38  H   UNL A   1      29.659  31.928  23.856  1.00  0.00     0.345 HD
ATOM     39  H   UNL A   1      30.954  30.937  24.194  1.00  0.00     0.345 HD
ENDBRANCH  34  36
BRANCH  34  40
ATOM     40  C   UNL A   1      27.864  30.185  23.044  1.00  0.00     0.015 C 
ATOM     41  H   UNL A   1      27.774  30.445  22.009  1.00  0.00     0.036 H 
BRANCH  40  42
ATOM     42  C   UNL A   1      27.071  28.905  23.342  1.00  0.00    -0.057 C 
ATOM     43  H   UNL A   1      27.561  28.355  24.118  1.00  0.00     0.024 H 
ATOM     44  H   UNL A   1      27.016  28.305  22.458  1.00  0.00     0.024 H 
ATOM     45  H   UNL A   1      26.082  29.164  23.659  1.00  0.00     0.024 H 
ENDBRANCH  40  42
BRANCH  40  46
ATOM     46  C   UNL A   1      27.288  31.327  23.890  1.00  0.00    -0.057 C 
ATOM     47  H   UNL A   1      27.204  31.010  24.908  1.00  0.00     0.024 H 
ATOM     48  H   UNL A   1      26.319  31.593  23.518  1.00  0.00     0.024 H 
ATOM     49  H   UNL A   1      27.936  32.176  23.834  1.00  0.00     0.024 H 
ENDBRANCH  40  46
ENDBRANCH  34  40
ENDBRANCH  31  34
ENDBRANCH  27  30
ENDBRANCH  24  27
ENDBRANCH   8  23
ENDBRANCH   5   8
ENDBRANCH   1   4
BRANCH   1  50
ATOM     50  C   UNL A   1      32.710  21.537  23.370  1.00  0.00    -0.036 C 
ATOM     51  H   UNL A   1      33.036  20.638  22.889  1.00  0.00     0.028 H 
ATOM     52  H   UNL A   1      31.669  21.513  23.616  1.00  0.00     0.028 H 
BRANCH  50  53
ATOM     53  C   UNL A   1      33.479  21.688  24.686  1.00  0.00    -0.052 C 
ATOM     54  H   UNL A   1      32.888  21.256  25.467  1.00  0.00     0.027 H 
ATOM     55  H   UNL A   1      33.651  22.735  24.816  1.00  0.00     0.027 H 
BRANCH  53  56
ATOM     56  C   UNL A   1      34.857  21.017  24.705  1.00  0.00    -0.052 C 
ATOM     57  H   UNL A   1      34.885  20.292  23.920  1.00  0.00     0.027 H 
ATOM     58  H   UNL A   1      34.970  20.590  25.680  1.00  0.00     0.027 H 
BRANCH  56  59
ATOM     59  C   UNL A   1      36.040  21.970  24.515  1.00  0.00    -0.036 C 
ATOM     60  H   UNL A   1      35.657  22.915  24.190  1.00  0.00     0.028 H 
ATOM     61  H   UNL A   1      36.688  21.514  23.797  1.00  0.00     0.028 H 
BRANCH  59  62
ATOM     62  C   UNL A   1      36.869  22.199  25.771  1.00  0.00     0.018 C 
ATOM     63  H   UNL A   1      36.223  22.173  26.622  1.00  0.00     0.049 H 
ATOM     64  H   UNL A   1      37.351  23.150  25.681  1.00  0.00     0.049 H 
BRANCH  62  65
ATOM     65  N   UNL A   1      37.898  21.186  25.932  1.00  0.00    -0.352 N 
ATOM     66  C   UNL A   1      39.222  21.344  26.247  1.00  0.00     0.251 C 
ATOM     67  H   UNL A   1      37.604  20.256  25.795  1.00  0.00     0.163 HD
ATOM     68  O   UNL A   1      40.005  20.404  26.140  1.00  0.00    -0.269 OA
BRANCH  66  69
ATOM     69  C   UNL A   1      39.708  22.664  26.694  1.00  0.00     0.039 A 
ATOM     70  C   UNL A   1      40.705  22.719  27.669  1.00  0.00    -0.049 A 
ATOM     71  C   UNL A   1      39.195  23.841  26.139  1.00  0.00    -0.049 A 
ATOM     72  C   UNL A   1      41.233  23.953  28.044  1.00  0.00    -0.053 A 
ATOM     73  H   UNL A   1      41.050  21.850  28.110  1.00  0.00     0.063 H 
ATOM     74  C   UNL A   1      39.778  25.063  26.454  1.00  0.00    -0.053 A 
ATOM     75  H   UNL A   1      38.388  23.801  25.497  1.00  0.00     0.063 H 
ATOM     76  C   UNL A   1      40.802  25.130  27.410  1.00  0.00    -0.014 A 
ATOM     77  H   UNL A   1      41.945  24.002  28.790  1.00  0.00     0.063 H 
ATOM     78  H   UNL A   1      39.456  25.923  25.984  1.00  0.00     0.063 H 
BRANCH  76  79
ATOM     79  C   UNL A   1      41.432  26.438  27.720  1.00  0.00     0.031 A 
ATOM     80  C   UNL A   1      42.846  26.720  27.303  1.00  0.00     0.074 A 
ATOM     81  C   UNL A   1      40.744  27.346  28.438  1.00  0.00     0.049 A 
ATOM     82  N   UNL A   1      43.578  27.782  27.527  1.00  0.00    -0.248 NA
ATOM     83  C   UNL A   1      43.538  25.657  26.560  1.00  0.00    -0.034 C 
ATOM     84  C   UNL A   1      39.385  27.161  28.950  1.00  0.00    -0.036 A 
ATOM     85  N   UNL A   1      41.097  28.598  28.874  1.00  0.00    -0.354 N 
ATOM     86  C   UNL A   1      44.814  27.514  26.955  1.00  0.00     0.074 A 
ATOM     87  C   UNL A   1      44.755  26.164  26.436  1.00  0.00    -0.034 C 
ATOM     88  H   UNL A   1      43.172  24.753  26.222  1.00  0.00     0.065 H 
ATOM     89  C   UNL A   1      39.012  28.266  29.612  1.00  0.00    -0.036 A 
ATOM     90  H   UNL A   1      38.806  26.317  28.820  1.00  0.00     0.065 H 
ATOM     91  C   UNL A   1      40.119  29.218  29.611  1.00  0.00     0.049 A 
ATOM     92  H   UNL A   1      41.969  29.012  28.677  1.00  0.00     0.167 HD
ATOM     93  C   UNL A   1      45.891  28.329  26.850  1.00  0.00     0.037 A 
ATOM     94  H   UNL A   1      45.556  25.662  26.023  1.00  0.00     0.065 H 
ATOM     95  H   UNL A   1      38.091  28.419  30.053  1.00  0.00     0.065 H 
ATOM     96  C   UNL A   1      40.118  30.415  30.228  1.00  0.00     0.037 A 
ATOM     97  C   UNL A   1      45.942  29.670  27.373  1.00  0.00     0.049 A 
ATOM     98  C   UNL A   1      41.332  31.294  30.122  1.00  0.00     0.074 A 
ATOM     99  C   UNL A   1      46.963  30.599  27.272  1.00  0.00    -0.036 A 
ATOM    100  N   UNL A   1      44.929  30.270  28.110  1.00  0.00    -0.354 N 
ATOM    101  N   UNL A   1      42.468  31.064  29.509  1.00  0.00    -0.248 NA
ATOM    102  C   UNL A   1      41.264  32.600  30.788  1.00  0.00    -0.034 C 
ATOM    103  C   UNL A   1      46.594  31.735  28.002  1.00  0.00    -0.036 A 
ATOM    104  H   UNL A   1      47.844  30.474  26.752  1.00  0.00     0.065 H 
ATOM    105  C   UNL A   1      45.316  31.542  28.503  1.00  0.00     0.049 A 
ATOM    106  H   UNL A   1      44.063  29.853  28.322  1.00  0.00     0.167 HD
ATOM    107  C   UNL A   1      43.244  32.199  29.701  1.00  0.00     0.074 A 
ATOM    108  C   UNL A   1      42.437  33.127  30.469  1.00  0.00    -0.034 C 
ATOM    109  H   UNL A   1      40.501  33.003  31.357  1.00  0.00     0.065 H 
ATOM    110  H   UNL A   1      47.176  32.575  28.143  1.00  0.00     0.065 H 
ATOM    111  C   UNL A   1      44.508  32.449  29.281  1.00  0.00     0.037 A 
ATOM    112  H   UNL A   1      42.740  34.077  30.734  1.00  0.00     0.065 H 
BRANCH  93 113
ATOM    113  C   UNL A   1      47.104  27.781  26.151  1.00  0.00     0.064 A 
ATOM    114  C   UNL A   1      48.185  27.238  26.864  1.00  0.00     0.173 A 
ATOM    115  C   UNL A   1      47.188  27.792  24.751  1.00  0.00     0.173 A 
ATOM    116  F   UNL A   1      48.162  27.209  28.206  1.00  0.00    -0.203 F 
ATOM    117  C   UNL A   1      49.321  26.773  26.207  1.00  0.00     0.198 A 
ATOM    118  C   UNL A   1      48.310  27.291  24.094  1.00  0.00     0.198 A 
ATOM    119  F   UNL A   1      46.183  28.291  24.015  1.00  0.00    -0.203 F 
ATOM    120  F   UNL A   1      50.367  26.325  26.915  1.00  0.00    -0.200 F 
ATOM    121  C   UNL A   1      49.381  26.796  24.822  1.00  0.00     0.200 A 
ATOM    122  F   UNL A   1      48.359  27.299  22.754  1.00  0.00    -0.200 F 
ATOM    123  F   UNL A   1      50.474  26.349  24.190  1.00  0.00    -0.200 F 
ENDBRANCH  93 113
BRANCH  96 124
ATOM    124  C   UNL A   1      38.917  30.842  30.991  1.00  0.00     0.064 A 
ATOM    125  C   UNL A   1      38.826  30.635  32.374  1.00  0.00     0.173 A 
ATOM    126  C   UNL A   1      37.849  31.496  30.358  1.00  0.00     0.173 A 
ATOM    127  F   UNL A   1      39.814  29.999  33.022  1.00  0.00    -0.203 F 
ATOM    128  C   UNL A   1      37.710  31.056  33.093  1.00  0.00     0.198 A 
ATOM    129  C   UNL A   1      36.746  31.944  31.083  1.00  0.00     0.198 A 
ATOM    130  F   UNL A   1      37.890  31.726  29.038  1.00  0.00    -0.203 F 
ATOM    131  F   UNL A   1      37.633  30.814  34.409  1.00  0.00    -0.200 F 
ATOM    132  C   UNL A   1      36.675  31.718  32.449  1.00  0.00     0.200 A 
ATOM    133  F   UNL A   1      35.759  32.600  30.458  1.00  0.00    -0.200 F 
ATOM    134  F   UNL A   1      35.608  32.137  33.144  1.00  0.00    -0.200 F 
ENDBRANCH  96 124
BRANCH 111 135
ATOM    135  C   UNL A   1      45.099  33.784  29.637  1.00  0.00     0.064 A 
ATOM    136  C   UNL A   1      45.855  33.967  30.805  1.00  0.00     0.173 A 
ATOM    137  C   UNL A   1      44.939  34.885  28.782  1.00  0.00     0.173 A 
ATOM    138  F   UNL A   1      46.025  32.952  31.665  1.00  0.00    -0.203 F 
ATOM    139  C   UNL A   1      46.405  35.209  31.115  1.00  0.00     0.198 A 
ATOM    140  C   UNL A   1      45.518  36.116  29.078  1.00  0.00     0.198 A 
ATOM    141  F   UNL A   1      44.230  34.764  27.648  1.00  0.00    -0.203 F 
ATOM    142  F   UNL A   1      47.078  35.372  32.262  1.00  0.00    -0.200 F 
ATOM    143  C   UNL A   1      46.244  36.278  30.248  1.00  0.00     0.200 A 
ATOM    144  F   UNL A   1      45.375  37.144  28.231  1.00  0.00    -0.200 F 
ATOM    145  F   UNL A   1      46.781  37.470  30.544  1.00  0.00    -0.200 F 
ENDBRANCH 111 135
ENDBRANCH  76  79
ENDBRANCH  66  69
ENDBRANCH  62  65
ENDBRANCH  59  62
ENDBRANCH  56  59
ENDBRANCH  53  56
ENDBRANCH  50  53
ENDBRANCH   1  50
TORSDOF 25
ENDMDL
MODEL 7
REMARK VINA RESULT:      -9.9      4.012      6.621
REMARK SMILES CC(C)C[C@H](NC(=O)CNC(=O)[C@@H]([NH3+])C(C)C)C(=O)NCCCCCCNC(=O)c1ccc(-c2c3nc(c(-c4c(F)c(F)c(F)c(F)c4F)c4ccc([nH]4)c(-c4c(F)c(F)c(F)c(F)c4F)c4nc(c(-c5c(F)c(F)c(F)c(F)c5F)c5ccc2[nH]5)C=C4)C=C3)cc1
REMARK SMILES IDX 21 1 20 4 18 5 19 6 5 8 4 10 2 13 1 15 3 19 6 23 7 24 8 26
REMARK SMILES IDX 9 27 10 30 11 31 12 33 13 34 14 36 15 40 16 42 17 46 22 50
REMARK SMILES IDX 23 53 24 56 25 59 26 62 27 65 28 66 29 68 30 69 31 70 92 71
REMARK SMILES IDX 32 72 91 74 33 76 34 79 35 80 85 81 36 82 90 83 84 84 86 85
REMARK SMILES IDX 37 86 89 87 83 89 82 91 38 93 70 96 50 97 69 98 51 99 54 100
REMARK SMILES IDX 68 101 87 102 52 103 53 105 67 107 88 108 55 111 39 113
REMARK SMILES IDX 40 114 48 115 41 116 42 117 46 118 49 119 43 120 44 121
REMARK SMILES IDX 47 122 45 123 71 124 72 125 80 126 73 127 74 128 78 129
REMARK SMILES IDX 81 130 75 131 76 132 79 133 77 134 56 135 57 136 65 137
REMARK SMILES IDX 58 138 59 139 63 140 66 141 60 142 61 143 64 144 62 145
REMARK H PARENT 21 2 21 3 20 7 5 9 4 11 4 12 2 14 1 16 1 17 1 18 3 20 3 21
REMARK H PARENT 3 22 6 25 9 28 9 29 10 32 13 35 14 37 14 38 14 39 15 41 16 43
REMARK H PARENT 16 44 16 45 17 47 17 48 17 49 22 51 22 52 23 54 23 55 24 57
REMARK H PARENT 24 58 25 60 25 61 26 63 26 64 27 67 31 73 92 75 32 77 91 78
REMARK H PARENT 90 88 84 90 86 92 89 94 83 95 51 104 54 106 87 109 52 110
REMARK H PARENT 88 112
REMARK Flexibility Score: inf
ROOT
ATOM      1  C   UNL A   1      31.563  27.922  26.248  1.00  0.00     0.017 C 
ATOM      2  H   UNL A   1      30.726  28.515  26.548  1.00  0.00     0.049 H 
ATOM      3  H   UNL A   1      31.587  27.819  25.183  1.00  0.00     0.049 H 
ENDROOT
BRANCH   1   4
ATOM      4  N   UNL A   1      31.447  26.606  26.835  1.00  0.00    -0.354 N 
ATOM      5  C   UNL A   1      31.540  25.376  26.261  1.00  0.00     0.242 C 
ATOM      6  O   UNL A   1      31.543  24.395  27.011  1.00  0.00    -0.273 OA
ATOM      7  H   UNL A   1      31.273  26.599  27.803  1.00  0.00     0.163 HD
BRANCH   5   8
ATOM      8  C   UNL A   1      31.764  25.211  24.748  1.00  0.00     0.108 C 
ATOM      9  H   UNL A   1      30.910  25.641  24.267  1.00  0.00     0.063 H 
BRANCH   8  10
ATOM     10  C   UNL A   1      31.792  23.738  24.313  1.00  0.00    -0.021 C 
ATOM     11  H   UNL A   1      31.422  23.143  25.121  1.00  0.00     0.030 H 
ATOM     12  H   UNL A   1      31.190  23.669  23.432  1.00  0.00     0.030 H 
BRANCH  10  13
ATOM     13  C   UNL A   1      33.197  23.209  23.929  1.00  0.00    -0.045 C 
ATOM     14  H   UNL A   1      33.902  23.934  24.280  1.00  0.00     0.030 H 
BRANCH  13  15
ATOM     15  C   UNL A   1      33.539  21.877  24.592  1.00  0.00    -0.063 C 
ATOM     16  H   UNL A   1      33.958  22.058  25.561  1.00  0.00     0.023 H 
ATOM     17  H   UNL A   1      34.251  21.351  23.990  1.00  0.00     0.023 H 
ATOM     18  H   UNL A   1      32.651  21.289  24.691  1.00  0.00     0.023 H 
ENDBRANCH  13  15
BRANCH  13  19
ATOM     19  C   UNL A   1      33.289  23.045  22.412  1.00  0.00    -0.063 C 
ATOM     20  H   UNL A   1      32.905  23.922  21.934  1.00  0.00     0.023 H 
ATOM     21  H   UNL A   1      32.714  22.194  22.110  1.00  0.00     0.023 H 
ATOM     22  H   UNL A   1      34.311  22.903  22.129  1.00  0.00     0.023 H 
ENDBRANCH  13  19
ENDBRANCH  10  13
ENDBRANCH   8  10
BRANCH   8  23
ATOM     23  N   UNL A   1      32.920  25.969  24.267  1.00  0.00    -0.343 N 
ATOM     24  C   UNL A   1      33.032  26.818  23.208  1.00  0.00     0.240 C 
ATOM     25  H   UNL A   1      33.745  25.846  24.789  1.00  0.00     0.164 HD
ATOM     26  O   UNL A   1      34.057  27.510  23.167  1.00  0.00    -0.273 OA
BRANCH  24  27
ATOM     27  C   UNL A   1      31.907  27.038  22.187  1.00  0.00     0.097 C 
ATOM     28  H   UNL A   1      32.009  26.301  21.419  1.00  0.00     0.059 H 
ATOM     29  H   UNL A   1      32.019  28.044  21.838  1.00  0.00     0.059 H 
BRANCH  27  30
ATOM     30  N   UNL A   1      30.557  26.948  22.715  1.00  0.00    -0.342 N 
ATOM     31  C   UNL A   1      29.680  27.929  23.067  1.00  0.00     0.278 C 
ATOM     32  H   UNL A   1      30.222  26.032  22.837  1.00  0.00     0.164 HD
ATOM     33  O   UNL A   1      28.558  27.558  23.430  1.00  0.00    -0.268 OA
BRANCH  31  34
ATOM     34  C   UNL A   1      30.010  29.444  22.974  1.00  0.00     0.166 C 
ATOM     35  H   UNL A   1      30.605  29.699  23.824  1.00  0.00     0.107 H 
BRANCH  34  36
ATOM     36  N   UNL A   1      30.835  29.768  21.791  1.00  0.00    -0.347 N 
ATOM     37  H   UNL A   1      31.679  29.196  21.798  1.00  0.00     0.345 HD
ATOM     38  H   UNL A   1      31.091  30.754  21.816  1.00  0.00     0.345 HD
ATOM     39  H   UNL A   1      30.303  29.576  20.942  1.00  0.00     0.345 HD
ENDBRANCH  34  36
BRANCH  34  40
ATOM     40  C   UNL A   1      28.718  30.288  23.037  1.00  0.00     0.015 C 
ATOM     41  H   UNL A   1      27.993  29.705  23.567  1.00  0.00     0.036 H 
BRANCH  40  42
ATOM     42  C   UNL A   1      28.977  31.610  23.771  1.00  0.00    -0.057 C 
ATOM     43  H   UNL A   1      28.054  32.136  23.897  1.00  0.00     0.024 H 
ATOM     44  H   UNL A   1      29.654  32.209  23.199  1.00  0.00     0.024 H 
ATOM     45  H   UNL A   1      29.406  31.407  24.731  1.00  0.00     0.024 H 
ENDBRANCH  40  42
BRANCH  40  46
ATOM     46  C   UNL A   1      28.169  30.602  21.640  1.00  0.00    -0.057 C 
ATOM     47  H   UNL A   1      28.913  30.374  20.905  1.00  0.00     0.024 H 
ATOM     48  H   UNL A   1      27.916  31.640  21.581  1.00  0.00     0.024 H 
ATOM     49  H   UNL A   1      27.296  30.011  21.457  1.00  0.00     0.024 H 
ENDBRANCH  40  46
ENDBRANCH  34  40
ENDBRANCH  31  34
ENDBRANCH  27  30
ENDBRANCH  24  27
ENDBRANCH   8  23
ENDBRANCH   5   8
ENDBRANCH   1   4
BRANCH   1  50
ATOM     50  C   UNL A   1      32.846  28.608  26.698  1.00  0.00    -0.036 C 
ATOM     51  H   UNL A   1      33.543  28.589  25.886  1.00  0.00     0.028 H 
ATOM     52  H   UNL A   1      33.202  28.074  27.554  1.00  0.00     0.028 H 
BRANCH  50  53
ATOM     53  C   UNL A   1      32.648  30.065  27.130  1.00  0.00    -0.052 C 
ATOM     54  H   UNL A   1      33.540  30.606  26.894  1.00  0.00     0.027 H 
ATOM     55  H   UNL A   1      32.432  30.041  28.178  1.00  0.00     0.027 H 
BRANCH  53  56
ATOM     56  C   UNL A   1      31.466  30.778  26.462  1.00  0.00    -0.052 C 
ATOM     57  H   UNL A   1      30.563  30.398  26.891  1.00  0.00     0.027 H 
ATOM     58  H   UNL A   1      31.552  30.581  25.413  1.00  0.00     0.027 H 
BRANCH  56  59
ATOM     59  C   UNL A   1      31.463  32.301  26.614  1.00  0.00    -0.036 C 
ATOM     60  H   UNL A   1      30.573  32.581  27.138  1.00  0.00     0.028 H 
ATOM     61  H   UNL A   1      31.510  32.707  25.626  1.00  0.00     0.028 H 
BRANCH  59  62
ATOM     62  C   UNL A   1      32.659  32.857  27.374  1.00  0.00     0.018 C 
ATOM     63  H   UNL A   1      33.536  32.739  26.775  1.00  0.00     0.049 H 
ATOM     64  H   UNL A   1      32.745  32.319  28.295  1.00  0.00     0.049 H 
BRANCH  62  65
ATOM     65  N   UNL A   1      32.493  34.266  27.690  1.00  0.00    -0.352 N 
ATOM     66  C   UNL A   1      33.117  35.014  28.653  1.00  0.00     0.251 C 
ATOM     67  H   UNL A   1      31.839  34.750  27.135  1.00  0.00     0.163 HD
ATOM     68  O   UNL A   1      32.712  36.140  28.927  1.00  0.00    -0.269 OA
BRANCH  66  69
ATOM     69  C   UNL A   1      34.270  34.445  29.378  1.00  0.00     0.039 A 
ATOM     70  C   UNL A   1      34.034  33.678  30.519  1.00  0.00    -0.049 A 
ATOM     71  C   UNL A   1      35.575  34.652  28.920  1.00  0.00    -0.049 A 
ATOM     72  C   UNL A   1      35.104  33.065  31.169  1.00  0.00    -0.053 A 
ATOM     73  H   UNL A   1      33.073  33.564  30.881  1.00  0.00     0.063 H 
ATOM     74  C   UNL A   1      36.632  33.976  29.521  1.00  0.00    -0.053 A 
ATOM     75  H   UNL A   1      35.753  35.303  28.140  1.00  0.00     0.063 H 
ATOM     76  C   UNL A   1      36.406  33.177  30.651  1.00  0.00    -0.014 A 
ATOM     77  H   UNL A   1      34.941  32.527  32.035  1.00  0.00     0.063 H 
ATOM     78  H   UNL A   1      37.584  34.063  29.134  1.00  0.00     0.063 H 
BRANCH  76  79
ATOM     79  C   UNL A   1      37.537  32.442  31.269  1.00  0.00     0.031 A 
ATOM     80  C   UNL A   1      38.042  32.825  32.629  1.00  0.00     0.074 A 
ATOM     81  C   UNL A   1      38.150  31.468  30.569  1.00  0.00     0.049 A 
ATOM     82  N   UNL A   1      39.047  32.332  33.307  1.00  0.00    -0.248 NA
ATOM     83  C   UNL A   1      37.342  33.928  33.305  1.00  0.00    -0.034 C 
ATOM     84  C   UNL A   1      37.786  31.047  29.215  1.00  0.00    -0.036 A 
ATOM     85  N   UNL A   1      39.215  30.666  30.893  1.00  0.00    -0.354 N 
ATOM     86  C   UNL A   1      39.100  33.064  34.486  1.00  0.00     0.074 A 
ATOM     87  C   UNL A   1      38.072  34.079  34.400  1.00  0.00    -0.034 C 
ATOM     88  H   UNL A   1      36.502  34.447  33.005  1.00  0.00     0.065 H 
ATOM     89  C   UNL A   1      38.601  30.052  28.832  1.00  0.00    -0.036 A 
ATOM     90  H   UNL A   1      37.025  31.450  28.647  1.00  0.00     0.065 H 
ATOM     91  C   UNL A   1      39.570  29.795  29.893  1.00  0.00     0.049 A 
ATOM     92  H   UNL A   1      39.680  30.711  31.760  1.00  0.00     0.167 HD
ATOM     93  C   UNL A   1      39.916  32.889  35.554  1.00  0.00     0.037 A 
ATOM     94  H   UNL A   1      37.926  34.823  35.099  1.00  0.00     0.065 H 
ATOM     95  H   UNL A   1      38.551  29.549  27.932  1.00  0.00     0.065 H 
ATOM     96  C   UNL A   1      40.573  28.899  29.831  1.00  0.00     0.037 A 
ATOM     97  C   UNL A   1      40.939  31.878  35.630  1.00  0.00     0.049 A 
ATOM     98  C   UNL A   1      41.484  28.738  31.016  1.00  0.00     0.074 A 
ATOM     99  C   UNL A   1      41.782  31.579  36.685  1.00  0.00    -0.036 A 
ATOM    100  N   UNL A   1      41.268  31.008  34.599  1.00  0.00    -0.354 N 
ATOM    101  N   UNL A   1      41.475  29.380  32.159  1.00  0.00    -0.248 NA
ATOM    102  C   UNL A   1      42.540  27.724  30.905  1.00  0.00    -0.034 C 
ATOM    103  C   UNL A   1      42.663  30.573  36.271  1.00  0.00    -0.036 A 
ATOM    104  H   UNL A   1      41.766  32.023  37.616  1.00  0.00     0.065 H 
ATOM    105  C   UNL A   1      42.327  30.197  34.980  1.00  0.00     0.049 A 
ATOM    106  H   UNL A   1      40.816  30.971  33.725  1.00  0.00     0.167 HD
ATOM    107  C   UNL A   1      42.510  28.840  32.910  1.00  0.00     0.074 A 
ATOM    108  C   UNL A   1      43.112  27.800  32.098  1.00  0.00    -0.034 C 
ATOM    109  H   UNL A   1      42.776  27.113  30.107  1.00  0.00     0.065 H 
ATOM    110  H   UNL A   1      43.432  30.177  36.833  1.00  0.00     0.065 H 
ATOM    111  C   UNL A   1      42.926  29.176  34.156  1.00  0.00     0.037 A 
ATOM    112  H   UNL A   1      43.888  27.196  32.411  1.00  0.00     0.065 H 
BRANCH  93 113
ATOM    113  C   UNL A   1      39.736  33.822  36.719  1.00  0.00     0.064 A 
ATOM    114  C   UNL A   1      40.383  35.067  36.774  1.00  0.00     0.173 A 
ATOM    115  C   UNL A   1      38.903  33.474  37.792  1.00  0.00     0.173 A 
ATOM    116  F   UNL A   1      41.199  35.449  35.779  1.00  0.00    -0.203 F 
ATOM    117  C   UNL A   1      40.243  35.904  37.878  1.00  0.00     0.198 A 
ATOM    118  C   UNL A   1      38.734  34.329  38.878  1.00  0.00     0.198 A 
ATOM    119  F   UNL A   1      38.251  32.301  37.791  1.00  0.00    -0.203 F 
ATOM    120  F   UNL A   1      40.927  37.054  37.937  1.00  0.00    -0.200 F 
ATOM    121  C   UNL A   1      39.414  35.536  38.927  1.00  0.00     0.200 A 
ATOM    122  F   UNL A   1      37.919  33.979  39.884  1.00  0.00    -0.200 F 
ATOM    123  F   UNL A   1      39.279  36.341  39.990  1.00  0.00    -0.200 F 
ENDBRANCH  93 113
BRANCH  96 124
ATOM    124  C   UNL A   1      40.752  28.086  28.601  1.00  0.00     0.064 A 
ATOM    125  C   UNL A   1      40.125  26.841  28.457  1.00  0.00     0.173 A 
ATOM    126  C   UNL A   1      41.528  28.554  27.529  1.00  0.00     0.173 A 
ATOM    127  F   UNL A   1      39.387  26.344  29.461  1.00  0.00    -0.203 F 
ATOM    128  C   UNL A   1      40.276  26.089  27.294  1.00  0.00     0.198 A 
ATOM    129  C   UNL A   1      41.653  27.815  26.354  1.00  0.00     0.198 A 
ATOM    130  F   UNL A   1      42.142  29.742  27.613  1.00  0.00    -0.203 F 
ATOM    131  F   UNL A   1      39.694  24.887  27.196  1.00  0.00    -0.200 F 
ATOM    132  C   UNL A   1      41.032  26.581  26.239  1.00  0.00     0.200 A 
ATOM    133  F   UNL A   1      42.369  28.304  25.332  1.00  0.00    -0.200 F 
ATOM    134  F   UNL A   1      41.163  25.865  25.114  1.00  0.00    -0.200 F 
ENDBRANCH  96 124
BRANCH 111 135
ATOM    135  C   UNL A   1      44.084  28.407  34.724  1.00  0.00     0.064 A 
ATOM    136  C   UNL A   1      43.898  27.201  35.418  1.00  0.00     0.173 A 
ATOM    137  C   UNL A   1      45.400  28.860  34.543  1.00  0.00     0.173 A 
ATOM    138  F   UNL A   1      42.660  26.731  35.633  1.00  0.00    -0.203 F 
ATOM    139  C   UNL A   1      44.983  26.493  35.930  1.00  0.00     0.198 A 
ATOM    140  C   UNL A   1      46.484  28.133  35.027  1.00  0.00     0.198 A 
ATOM    141  F   UNL A   1      45.636  30.004  33.882  1.00  0.00    -0.203 F 
ATOM    142  F   UNL A   1      44.776  25.372  36.633  1.00  0.00    -0.200 F 
ATOM    143  C   UNL A   1      46.274  26.955  35.726  1.00  0.00     0.200 A 
ATOM    144  F   UNL A   1      47.732  28.573  34.815  1.00  0.00    -0.200 F 
ATOM    145  F   UNL A   1      47.317  26.268  36.212  1.00  0.00    -0.200 F 
ENDBRANCH 111 135
ENDBRANCH  76  79
ENDBRANCH  66  69
ENDBRANCH  62  65
ENDBRANCH  59  62
ENDBRANCH  56  59
ENDBRANCH  53  56
ENDBRANCH  50  53
ENDBRANCH   1  50
TORSDOF 25
ENDMDL
MODEL 8
REMARK VINA RESULT:      -9.9      3.473      7.764
REMARK SMILES CC(C)C[C@H](NC(=O)CNC(=O)[C@@H]([NH3+])C(C)C)C(=O)NCCCCCCNC(=O)c1ccc(-c2c3nc(c(-c4c(F)c(F)c(F)c(F)c4F)c4ccc([nH]4)c(-c4c(F)c(F)c(F)c(F)c4F)c4nc(c(-c5c(F)c(F)c(F)c(F)c5F)c5ccc2[nH]5)C=C4)C=C3)cc1
REMARK SMILES IDX 21 1 20 4 18 5 19 6 5 8 4 10 2 13 1 15 3 19 6 23 7 24 8 26
REMARK SMILES IDX 9 27 10 30 11 31 12 33 13 34 14 36 15 40 16 42 17 46 22 50
REMARK SMILES IDX 23 53 24 56 25 59 26 62 27 65 28 66 29 68 30 69 31 70 92 71
REMARK SMILES IDX 32 72 91 74 33 76 34 79 35 80 85 81 36 82 90 83 84 84 86 85
REMARK SMILES IDX 37 86 89 87 83 89 82 91 38 93 70 96 50 97 69 98 51 99 54 100
REMARK SMILES IDX 68 101 87 102 52 103 53 105 67 107 88 108 55 111 39 113
REMARK SMILES IDX 40 114 48 115 41 116 42 117 46 118 49 119 43 120 44 121
REMARK SMILES IDX 47 122 45 123 71 124 72 125 80 126 73 127 74 128 78 129
REMARK SMILES IDX 81 130 75 131 76 132 79 133 77 134 56 135 57 136 65 137
REMARK SMILES IDX 58 138 59 139 63 140 66 141 60 142 61 143 64 144 62 145
REMARK H PARENT 21 2 21 3 20 7 5 9 4 11 4 12 2 14 1 16 1 17 1 18 3 20 3 21
REMARK H PARENT 3 22 6 25 9 28 9 29 10 32 13 35 14 37 14 38 14 39 15 41 16 43
REMARK H PARENT 16 44 16 45 17 47 17 48 17 49 22 51 22 52 23 54 23 55 24 57
REMARK H PARENT 24 58 25 60 25 61 26 63 26 64 27 67 31 73 92 75 32 77 91 78
REMARK H PARENT 90 88 84 90 86 92 89 94 83 95 51 104 54 106 87 109 52 110
REMARK H PARENT 88 112
REMARK Flexibility Score: inf
ROOT
ATOM      1  C   UNL A   1      32.521  21.855  22.814  1.00  0.00     0.017 C 
ATOM      2  H   UNL A   1      33.409  22.452  22.831  1.00  0.00     0.049 H 
ATOM      3  H   UNL A   1      32.468  21.288  21.909  1.00  0.00     0.049 H 
ENDROOT
BRANCH   1   4
ATOM      4  N   UNL A   1      31.366  22.722  22.883  1.00  0.00    -0.354 N 
ATOM      5  C   UNL A   1      31.259  24.011  23.301  1.00  0.00     0.242 C 
ATOM      6  O   UNL A   1      30.176  24.580  23.128  1.00  0.00    -0.273 OA
ATOM      7  H   UNL A   1      30.524  22.314  22.579  1.00  0.00     0.163 HD
BRANCH   5   8
ATOM      8  C   UNL A   1      32.473  24.781  23.850  1.00  0.00     0.108 C 
ATOM      9  H   UNL A   1      33.180  24.043  24.166  1.00  0.00     0.063 H 
BRANCH   8  10
ATOM     10  C   UNL A   1      32.134  25.601  25.103  1.00  0.00    -0.021 C 
ATOM     11  H   UNL A   1      31.787  26.564  24.791  1.00  0.00     0.030 H 
ATOM     12  H   UNL A   1      31.395  25.045  25.641  1.00  0.00     0.030 H 
BRANCH  10  13
ATOM     13  C   UNL A   1      33.322  25.808  26.075  1.00  0.00    -0.045 C 
ATOM     14  H   UNL A   1      32.970  25.540  27.049  1.00  0.00     0.030 H 
BRANCH  13  15
ATOM     15  C   UNL A   1      34.520  24.916  25.759  1.00  0.00    -0.063 C 
ATOM     16  H   UNL A   1      34.618  24.814  24.698  1.00  0.00     0.023 H 
ATOM     17  H   UNL A   1      34.371  23.950  26.196  1.00  0.00     0.023 H 
ATOM     18  H   UNL A   1      35.409  25.356  26.159  1.00  0.00     0.023 H 
ENDBRANCH  13  15
BRANCH  13  19
ATOM     19  C   UNL A   1      33.771  27.270  26.038  1.00  0.00    -0.063 C 
ATOM     20  H   UNL A   1      33.560  27.731  26.979  1.00  0.00     0.023 H 
ATOM     21  H   UNL A   1      33.244  27.785  25.262  1.00  0.00     0.023 H 
ATOM     22  H   UNL A   1      34.823  27.316  25.847  1.00  0.00     0.023 H 
ENDBRANCH  13  19
ENDBRANCH  10  13
ENDBRANCH   8  10
BRANCH   8  23
ATOM     23  N   UNL A   1      33.149  25.570  22.819  1.00  0.00    -0.343 N 
ATOM     24  C   UNL A   1      32.911  26.841  22.391  1.00  0.00     0.240 C 
ATOM     25  H   UNL A   1      33.892  25.112  22.365  1.00  0.00     0.164 HD
ATOM     26  O   UNL A   1      33.782  27.350  21.675  1.00  0.00    -0.273 OA
BRANCH  24  27
ATOM     27  C   UNL A   1      31.715  27.675  22.868  1.00  0.00     0.097 C 
ATOM     28  H   UNL A   1      32.018  28.221  23.736  1.00  0.00     0.059 H 
ATOM     29  H   UNL A   1      30.924  26.977  23.052  1.00  0.00     0.059 H 
BRANCH  27  30
ATOM     30  N   UNL A   1      31.189  28.626  21.905  1.00  0.00    -0.342 N 
ATOM     31  C   UNL A   1      30.203  29.557  22.030  1.00  0.00     0.278 C 
ATOM     32  H   UNL A   1      31.614  28.592  21.018  1.00  0.00     0.164 HD
ATOM     33  O   UNL A   1      30.007  30.285  21.051  1.00  0.00    -0.268 OA
BRANCH  31  34
ATOM     34  C   UNL A   1      29.388  29.767  23.335  1.00  0.00     0.166 C 
ATOM     35  H   UNL A   1      29.434  28.858  23.897  1.00  0.00     0.107 H 
BRANCH  34  36
ATOM     36  N   UNL A   1      29.975  30.808  24.203  1.00  0.00    -0.347 N 
ATOM     37  H   UNL A   1      30.232  30.399  25.100  1.00  0.00     0.345 HD
ATOM     38  H   UNL A   1      29.293  31.552  24.351  1.00  0.00     0.345 HD
ATOM     39  H   UNL A   1      30.806  31.195  23.756  1.00  0.00     0.345 HD
ENDBRANCH  34  36
BRANCH  34  40
ATOM     40  C   UNL A   1      27.903  30.041  23.012  1.00  0.00     0.015 C 
ATOM     41  H   UNL A   1      27.849  30.260  21.965  1.00  0.00     0.036 H 
BRANCH  40  42
ATOM     42  C   UNL A   1      27.046  28.811  23.342  1.00  0.00    -0.057 C 
ATOM     43  H   UNL A   1      26.647  28.401  22.438  1.00  0.00     0.024 H 
ATOM     44  H   UNL A   1      26.244  29.098  23.989  1.00  0.00     0.024 H 
ATOM     45  H   UNL A   1      27.652  28.075  23.830  1.00  0.00     0.024 H 
ENDBRANCH  40  42
BRANCH  40  46
ATOM     46  C   UNL A   1      27.358  31.242  23.794  1.00  0.00    -0.057 C 
ATOM     47  H   UNL A   1      28.133  31.969  23.918  1.00  0.00     0.024 H 
ATOM     48  H   UNL A   1      27.017  30.917  24.756  1.00  0.00     0.024 H 
ATOM     49  H   UNL A   1      26.542  31.680  23.257  1.00  0.00     0.024 H 
ENDBRANCH  40  46
ENDBRANCH  34  40
ENDBRANCH  31  34
ENDBRANCH  27  30
ENDBRANCH  24  27
ENDBRANCH   8  23
ENDBRANCH   5   8
ENDBRANCH   1   4
BRANCH   1  50
ATOM     50  C   UNL A   1      32.549  20.889  23.992  1.00  0.00    -0.036 C 
ATOM     51  H   UNL A   1      32.860  19.929  23.634  1.00  0.00     0.028 H 
ATOM     52  H   UNL A   1      31.562  20.872  24.405  1.00  0.00     0.028 H 
BRANCH  50  53
ATOM     53  C   UNL A   1      33.498  21.316  25.117  1.00  0.00    -0.052 C 
ATOM     54  H   UNL A   1      33.096  20.963  26.043  1.00  0.00     0.027 H 
ATOM     55  H   UNL A   1      33.566  22.382  25.065  1.00  0.00     0.027 H 
BRANCH  53  56
ATOM     56  C   UNL A   1      34.930  20.784  24.985  1.00  0.00    -0.052 C 
ATOM     57  H   UNL A   1      34.933  20.016  24.241  1.00  0.00     0.027 H 
ATOM     58  H   UNL A   1      35.210  20.433  25.957  1.00  0.00     0.027 H 
BRANCH  56  59
ATOM     59  C   UNL A   1      35.973  21.833  24.591  1.00  0.00    -0.036 C 
ATOM     60  H   UNL A   1      35.457  22.728  24.312  1.00  0.00     0.028 H 
ATOM     61  H   UNL A   1      36.542  21.413  23.789  1.00  0.00     0.028 H 
BRANCH  59  62
ATOM     62  C   UNL A   1      36.962  22.179  25.695  1.00  0.00     0.018 C 
ATOM     63  H   UNL A   1      36.426  22.322  26.609  1.00  0.00     0.049 H 
ATOM     64  H   UNL A   1      37.481  23.070  25.408  1.00  0.00     0.049 H 
BRANCH  62  65
ATOM     65  N   UNL A   1      37.947  21.128  25.889  1.00  0.00    -0.352 N 
ATOM     66  C   UNL A   1      39.266  21.236  26.245  1.00  0.00     0.251 C 
ATOM     67  H   UNL A   1      37.622  20.210  25.743  1.00  0.00     0.163 HD
ATOM     68  O   UNL A   1      40.015  20.266  26.163  1.00  0.00    -0.269 OA
BRANCH  66  69
ATOM     69  C   UNL A   1      39.787  22.537  26.706  1.00  0.00     0.039 A 
ATOM     70  C   UNL A   1      40.771  22.555  27.696  1.00  0.00    -0.049 A 
ATOM     71  C   UNL A   1      39.320  23.733  26.150  1.00  0.00    -0.049 A 
ATOM     72  C   UNL A   1      41.333  23.769  28.085  1.00  0.00    -0.053 A 
ATOM     73  H   UNL A   1      41.081  21.673  28.137  1.00  0.00     0.063 H 
ATOM     74  C   UNL A   1      39.938  24.934  26.481  1.00  0.00    -0.053 A 
ATOM     75  H   UNL A   1      38.522  23.723  25.497  1.00  0.00     0.063 H 
ATOM     76  C   UNL A   1      40.949  24.963  27.451  1.00  0.00    -0.014 A 
ATOM     77  H   UNL A   1      42.035  23.792  28.842  1.00  0.00     0.063 H 
ATOM     78  H   UNL A   1      39.650  25.806  26.011  1.00  0.00     0.063 H 
BRANCH  76  79
ATOM     79  C   UNL A   1      41.616  26.248  27.779  1.00  0.00     0.031 A 
ATOM     80  C   UNL A   1      40.859  27.345  28.469  1.00  0.00     0.074 A 
ATOM     81  C   UNL A   1      42.891  26.444  27.393  1.00  0.00     0.049 A 
ATOM     82  N   UNL A   1      41.259  28.549  28.792  1.00  0.00    -0.248 NA
ATOM     83  C   UNL A   1      39.459  27.061  28.817  1.00  0.00    -0.034 C 
ATOM     84  C   UNL A   1      43.710  25.474  26.664  1.00  0.00    -0.036 A 
ATOM     85  N   UNL A   1      43.717  27.529  27.546  1.00  0.00    -0.354 N 
ATOM     86  C   UNL A   1      40.161  29.164  29.378  1.00  0.00     0.074 A 
ATOM     87  C   UNL A   1      39.061  28.227  29.303  1.00  0.00    -0.034 C 
ATOM     88  H   UNL A   1      38.927  26.183  28.711  1.00  0.00     0.065 H 
ATOM     89  C   UNL A   1      44.926  25.999  26.451  1.00  0.00    -0.036 A 
ATOM     90  H   UNL A   1      43.402  24.536  26.364  1.00  0.00     0.065 H 
ATOM     91  C   UNL A   1      44.959  27.357  26.987  1.00  0.00     0.049 A 
ATOM     92  H   UNL A   1      43.445  28.353  28.012  1.00  0.00     0.167 HD
ATOM     93  C   UNL A   1      40.085  30.390  29.950  1.00  0.00     0.037 A 
ATOM     94  H   UNL A   1      38.093  28.438  29.590  1.00  0.00     0.065 H 
ATOM     95  H   UNL A   1      45.712  25.521  25.982  1.00  0.00     0.065 H 
ATOM     96  C   UNL A   1      46.004  28.202  26.904  1.00  0.00     0.037 A 
ATOM     97  C   UNL A   1      41.185  31.319  30.017  1.00  0.00     0.049 A 
ATOM     98  C   UNL A   1      45.891  29.568  27.521  1.00  0.00     0.074 A 
ATOM     99  C   UNL A   1      41.230  32.562  30.621  1.00  0.00    -0.036 A 
ATOM    100  N   UNL A   1      42.432  31.109  29.444  1.00  0.00    -0.354 N 
ATOM    101  N   UNL A   1      44.874  30.111  28.145  1.00  0.00    -0.248 NA
ATOM    102  C   UNL A   1      47.071  30.436  27.428  1.00  0.00    -0.034 C 
ATOM    103  C   UNL A   1      42.482  33.131  30.360  1.00  0.00    -0.036 A 
ATOM    104  H   UNL A   1      40.471  32.997  31.168  1.00  0.00     0.065 H 
ATOM    105  C   UNL A   1      43.242  32.215  29.649  1.00  0.00     0.049 A 
ATOM    106  H   UNL A   1      42.703  30.293  28.964  1.00  0.00     0.167 HD
ATOM    107  C   UNL A   1      45.295  31.376  28.533  1.00  0.00     0.074 A 
ATOM    108  C   UNL A   1      46.669  31.510  28.092  1.00  0.00    -0.034 C 
ATOM    109  H   UNL A   1      47.978  30.257  26.965  1.00  0.00     0.065 H 
ATOM    110  H   UNL A   1      42.788  34.073  30.649  1.00  0.00     0.065 H 
ATOM    111  C   UNL A   1      44.605  32.340  29.191  1.00  0.00     0.037 A 
ATOM    112  H   UNL A   1      47.259  32.336  28.273  1.00  0.00     0.065 H 
BRANCH  93 113
ATOM    113  C   UNL A   1      38.762  30.796  30.536  1.00  0.00     0.064 A 
ATOM    114  C   UNL A   1      37.725  31.305  29.737  1.00  0.00     0.173 A 
ATOM    115  C   UNL A   1      38.521  30.672  31.912  1.00  0.00     0.173 A 
ATOM    116  F   UNL A   1      37.903  31.455  28.415  1.00  0.00    -0.203 F 
ATOM    117  C   UNL A   1      36.519  31.718  30.298  1.00  0.00     0.198 A 
ATOM    118  C   UNL A   1      37.300  31.050  32.465  1.00  0.00     0.198 A 
ATOM    119  F   UNL A   1      39.471  30.184  32.725  1.00  0.00    -0.203 F 
ATOM    120  F   UNL A   1      35.574  32.266  29.522  1.00  0.00    -0.200 F 
ATOM    121  C   UNL A   1      36.306  31.585  31.661  1.00  0.00     0.200 A 
ATOM    122  F   UNL A   1      37.090  30.905  33.782  1.00  0.00    -0.200 F 
ATOM    123  F   UNL A   1      35.146  31.983  32.201  1.00  0.00    -0.200 F 
ENDBRANCH  93 113
BRANCH  96 124
ATOM    124  C   UNL A   1      47.244  27.765  26.213  1.00  0.00     0.064 A 
ATOM    125  C   UNL A   1      48.340  27.271  26.934  1.00  0.00     0.173 A 
ATOM    126  C   UNL A   1      47.347  27.801  24.814  1.00  0.00     0.173 A 
ATOM    127  F   UNL A   1      48.296  27.232  28.274  1.00  0.00    -0.203 F 
ATOM    128  C   UNL A   1      49.494  26.840  26.284  1.00  0.00     0.198 A 
ATOM    129  C   UNL A   1      48.490  27.342  24.163  1.00  0.00     0.198 A 
ATOM    130  F   UNL A   1      46.324  28.258  24.077  1.00  0.00    -0.203 F 
ATOM    131  F   UNL A   1      50.540  26.404  26.998  1.00  0.00    -0.200 F 
ATOM    132  C   UNL A   1      49.565  26.867  24.898  1.00  0.00     0.200 A 
ATOM    133  F   UNL A   1      48.545  27.353  22.824  1.00  0.00    -0.200 F 
ATOM    134  F   UNL A   1      50.669  26.438  24.273  1.00  0.00    -0.200 F 
ENDBRANCH  96 124
BRANCH 111 135
ATOM    135  C   UNL A   1      45.328  33.624  29.484  1.00  0.00     0.064 A 
ATOM    136  C   UNL A   1      46.093  33.789  30.648  1.00  0.00     0.173 A 
ATOM    137  C   UNL A   1      45.285  34.690  28.572  1.00  0.00     0.173 A 
ATOM    138  F   UNL A   1      46.154  32.808  31.560  1.00  0.00    -0.203 F 
ATOM    139  C   UNL A   1      46.767  34.983  30.900  1.00  0.00     0.198 A 
ATOM    140  C   UNL A   1      45.987  35.868  28.811  1.00  0.00     0.198 A 
ATOM    141  F   UNL A   1      44.572  34.584  27.439  1.00  0.00    -0.203 F 
ATOM    142  F   UNL A   1      47.448  35.135  32.043  1.00  0.00    -0.200 F 
ATOM    143  C   UNL A   1      46.720  36.016  29.978  1.00  0.00     0.200 A 
ATOM    144  F   UNL A   1      45.953  36.861  27.911  1.00  0.00    -0.200 F 
ATOM    145  F   UNL A   1      47.375  37.160  30.217  1.00  0.00    -0.200 F 
ENDBRANCH 111 135
ENDBRANCH  76  79
ENDBRANCH  66  69
ENDBRANCH  62  65
ENDBRANCH  59  62
ENDBRANCH  56  59
ENDBRANCH  53  56
ENDBRANCH  50  53
ENDBRANCH   1  50
TORSDOF 25
ENDMDL
MODEL 9
REMARK VINA RESULT:      -9.8      3.502      5.242
REMARK SMILES CC(C)C[C@H](NC(=O)CNC(=O)[C@@H]([NH3+])C(C)C)C(=O)NCCCCCCNC(=O)c1ccc(-c2c3nc(c(-c4c(F)c(F)c(F)c(F)c4F)c4ccc([nH]4)c(-c4c(F)c(F)c(F)c(F)c4F)c4nc(c(-c5c(F)c(F)c(F)c(F)c5F)c5ccc2[nH]5)C=C4)C=C3)cc1
REMARK SMILES IDX 21 1 20 4 18 5 19 6 5 8 4 10 2 13 1 15 3 19 6 23 7 24 8 26
REMARK SMILES IDX 9 27 10 30 11 31 12 33 13 34 14 36 15 40 16 42 17 46 22 50
REMARK SMILES IDX 23 53 24 56 25 59 26 62 27 65 28 66 29 68 30 69 31 70 92 71
REMARK SMILES IDX 32 72 91 74 33 76 34 79 35 80 85 81 36 82 90 83 84 84 86 85
REMARK SMILES IDX 37 86 89 87 83 89 82 91 38 93 70 96 50 97 69 98 51 99 54 100
REMARK SMILES IDX 68 101 87 102 52 103 53 105 67 107 88 108 55 111 39 113
REMARK SMILES IDX 40 114 48 115 41 116 42 117 46 118 49 119 43 120 44 121
REMARK SMILES IDX 47 122 45 123 71 124 72 125 80 126 73 127 74 128 78 129
REMARK SMILES IDX 81 130 75 131 76 132 79 133 77 134 56 135 57 136 65 137
REMARK SMILES IDX 58 138 59 139 63 140 66 141 60 142 61 143 64 144 62 145
REMARK H PARENT 21 2 21 3 20 7 5 9 4 11 4 12 2 14 1 16 1 17 1 18 3 20 3 21
REMARK H PARENT 3 22 6 25 9 28 9 29 10 32 13 35 14 37 14 38 14 39 15 41 16 43
REMARK H PARENT 16 44 16 45 17 47 17 48 17 49 22 51 22 52 23 54 23 55 24 57
REMARK H PARENT 24 58 25 60 25 61 26 63 26 64 27 67 31 73 92 75 32 77 91 78
REMARK H PARENT 90 88 84 90 86 92 89 94 83 95 51 104 54 106 87 109 52 110
REMARK H PARENT 88 112
REMARK Flexibility Score: inf
ROOT
ATOM      1  C   UNL A   1      32.639  28.598  23.425  1.00  0.00     0.017 C 
ATOM      2  H   UNL A   1      31.930  28.074  24.031  1.00  0.00     0.049 H 
ATOM      3  H   UNL A   1      32.153  29.359  22.852  1.00  0.00     0.049 H 
ENDROOT
BRANCH   1   4
ATOM      4  N   UNL A   1      33.267  27.666  22.515  1.00  0.00    -0.354 N 
ATOM      5  C   UNL A   1      33.098  26.324  22.378  1.00  0.00     0.242 C 
ATOM      6  O   UNL A   1      33.654  25.773  21.422  1.00  0.00    -0.273 OA
ATOM      7  H   UNL A   1      33.919  28.067  21.897  1.00  0.00     0.163 HD
BRANCH   5   8
ATOM      8  C   UNL A   1      32.148  25.535  23.297  1.00  0.00     0.108 C 
ATOM      9  H   UNL A   1      31.220  26.067  23.298  1.00  0.00     0.063 H 
BRANCH   8  10
ATOM     10  C   UNL A   1      32.622  25.515  24.757  1.00  0.00    -0.021 C 
ATOM     11  H   UNL A   1      33.082  24.568  24.948  1.00  0.00     0.030 H 
ATOM     12  H   UNL A   1      33.297  26.338  24.870  1.00  0.00     0.030 H 
BRANCH  10  13
ATOM     13  C   UNL A   1      31.496  25.724  25.800  1.00  0.00    -0.045 C 
ATOM     14  H   UNL A   1      31.858  26.449  26.499  1.00  0.00     0.030 H 
BRANCH  13  15
ATOM     15  C   UNL A   1      30.210  26.278  25.192  1.00  0.00    -0.063 C 
ATOM     16  H   UNL A   1      29.572  25.466  24.906  1.00  0.00     0.023 H 
ATOM     17  H   UNL A   1      30.446  26.865  24.329  1.00  0.00     0.023 H 
ATOM     18  H   UNL A   1      29.707  26.888  25.913  1.00  0.00     0.023 H 
ENDBRANCH  13  15
BRANCH  13  19
ATOM     19  C   UNL A   1      31.184  24.399  26.496  1.00  0.00    -0.063 C 
ATOM     20  H   UNL A   1      31.707  24.355  27.428  1.00  0.00     0.023 H 
ATOM     21  H   UNL A   1      31.497  23.587  25.873  1.00  0.00     0.023 H 
ATOM     22  H   UNL A   1      30.132  24.328  26.673  1.00  0.00     0.023 H 
ENDBRANCH  13  19
ENDBRANCH  10  13
ENDBRANCH   8  10
BRANCH   8  23
ATOM     23  N   UNL A   1      31.846  24.201  22.778  1.00  0.00    -0.343 N 
ATOM     24  C   UNL A   1      32.502  23.021  22.958  1.00  0.00     0.240 C 
ATOM     25  H   UNL A   1      31.043  24.147  22.212  1.00  0.00     0.164 HD
ATOM     26  O   UNL A   1      31.900  22.000  22.605  1.00  0.00    -0.273 OA
BRANCH  24  27
ATOM     27  C   UNL A   1      33.848  22.913  23.688  1.00  0.00     0.097 C 
ATOM     28  H   UNL A   1      34.284  23.889  23.722  1.00  0.00     0.059 H 
ATOM     29  H   UNL A   1      34.425  22.201  23.136  1.00  0.00     0.059 H 
BRANCH  27  30
ATOM     30  N   UNL A   1      33.784  22.406  25.047  1.00  0.00    -0.342 N 
ATOM     31  C   UNL A   1      33.836  21.128  25.516  1.00  0.00     0.278 C 
ATOM     32  H   UNL A   1      33.688  23.096  25.742  1.00  0.00     0.164 HD
ATOM     33  O   UNL A   1      33.825  20.992  26.744  1.00  0.00    -0.268 OA
BRANCH  31  34
ATOM     34  C   UNL A   1      33.966  19.885  24.594  1.00  0.00     0.166 C 
ATOM     35  H   UNL A   1      34.140  20.236  23.599  1.00  0.00     0.107 H 
BRANCH  34  36
ATOM     36  N   UNL A   1      35.136  19.050  24.938  1.00  0.00    -0.347 N 
ATOM     37  H   UNL A   1      35.974  19.630  24.956  1.00  0.00     0.345 HD
ATOM     38  H   UNL A   1      35.245  18.315  24.240  1.00  0.00     0.345 HD
ATOM     39  H   UNL A   1      34.995  18.629  25.856  1.00  0.00     0.345 HD
ENDBRANCH  34  36
BRANCH  34  40
ATOM     40  C   UNL A   1      32.651  19.076  24.581  1.00  0.00     0.015 C 
ATOM     41  H   UNL A   1      31.866  19.756  24.842  1.00  0.00     0.036 H 
BRANCH  40  42
ATOM     42  C   UNL A   1      32.399  18.483  23.188  1.00  0.00    -0.057 C 
ATOM     43  H   UNL A   1      31.489  17.921  23.199  1.00  0.00     0.024 H 
ATOM     44  H   UNL A   1      33.213  17.841  22.921  1.00  0.00     0.024 H 
ATOM     45  H   UNL A   1      32.321  19.275  22.472  1.00  0.00     0.024 H 
ENDBRANCH  40  42
BRANCH  40  46
ATOM     46  C   UNL A   1      32.671  17.933  25.604  1.00  0.00    -0.057 C 
ATOM     47  H   UNL A   1      33.596  17.952  26.142  1.00  0.00     0.024 H 
ATOM     48  H   UNL A   1      32.574  16.996  25.094  1.00  0.00     0.024 H 
ATOM     49  H   UNL A   1      31.858  18.051  26.289  1.00  0.00     0.024 H 
ENDBRANCH  40  46
ENDBRANCH  34  40
ENDBRANCH  31  34
ENDBRANCH  27  30
ENDBRANCH  24  27
ENDBRANCH   8  23
ENDBRANCH   5   8
ENDBRANCH   1   4
BRANCH   1  50
ATOM     50  C   UNL A   1      33.673  29.257  24.329  1.00  0.00    -0.036 C 
ATOM     51  H   UNL A   1      34.001  30.163  23.863  1.00  0.00     0.028 H 
ATOM     52  H   UNL A   1      34.469  28.554  24.459  1.00  0.00     0.028 H 
BRANCH  50  53
ATOM     53  C   UNL A   1      33.144  29.597  25.727  1.00  0.00    -0.052 C 
ATOM     54  H   UNL A   1      33.760  30.369  26.137  1.00  0.00     0.027 H 
ATOM     55  H   UNL A   1      33.174  28.688  26.289  1.00  0.00     0.027 H 
BRANCH  53  56
ATOM     56  C   UNL A   1      31.689  30.079  25.762  1.00  0.00    -0.052 C 
ATOM     57  H   UNL A   1      31.092  29.305  26.196  1.00  0.00     0.027 H 
ATOM     58  H   UNL A   1      31.422  30.303  24.750  1.00  0.00     0.027 H 
BRANCH  56  59
ATOM     59  C   UNL A   1      31.455  31.364  26.561  1.00  0.00    -0.036 C 
ATOM     60  H   UNL A   1      30.855  31.122  27.414  1.00  0.00     0.028 H 
ATOM     61  H   UNL A   1      30.977  32.054  25.899  1.00  0.00     0.028 H 
BRANCH  59  62
ATOM     62  C   UNL A   1      32.729  32.038  27.051  1.00  0.00     0.018 C 
ATOM     63  H   UNL A   1      33.491  31.921  26.310  1.00  0.00     0.049 H 
ATOM     64  H   UNL A   1      33.014  31.576  27.974  1.00  0.00     0.049 H 
BRANCH  62  65
ATOM     65  N   UNL A   1      32.531  33.455  27.301  1.00  0.00    -0.352 N 
ATOM     66  C   UNL A   1      33.127  34.258  28.238  1.00  0.00     0.251 C 
ATOM     67  H   UNL A   1      31.876  33.901  26.716  1.00  0.00     0.163 HD
ATOM     68  O   UNL A   1      32.696  35.387  28.455  1.00  0.00    -0.269 OA
BRANCH  66  69
ATOM     69  C   UNL A   1      34.280  33.745  29.003  1.00  0.00     0.039 A 
ATOM     70  C   UNL A   1      34.054  32.806  30.010  1.00  0.00    -0.049 A 
ATOM     71  C   UNL A   1      35.579  34.176  28.714  1.00  0.00    -0.049 A 
ATOM     72  C   UNL A   1      35.139  32.251  30.687  1.00  0.00    -0.053 A 
ATOM     73  H   UNL A   1      33.091  32.523  30.252  1.00  0.00     0.063 H 
ATOM     74  C   UNL A   1      36.662  33.563  29.333  1.00  0.00    -0.053 A 
ATOM     75  H   UNL A   1      35.731  34.945  28.043  1.00  0.00     0.063 H 
ATOM     76  C   UNL A   1      36.452  32.595  30.326  1.00  0.00    -0.014 A 
ATOM     77  H   UNL A   1      34.977  31.582  31.458  1.00  0.00     0.063 H 
ATOM     78  H   UNL A   1      37.623  33.822  29.062  1.00  0.00     0.063 H 
BRANCH  76  79
ATOM     79  C   UNL A   1      37.617  31.932  30.962  1.00  0.00     0.031 A 
ATOM     80  C   UNL A   1      38.083  32.355  32.325  1.00  0.00     0.074 A 
ATOM     81  C   UNL A   1      38.292  30.988  30.279  1.00  0.00     0.049 A 
ATOM     82  N   UNL A   1      39.107  31.926  33.019  1.00  0.00    -0.248 NA
ATOM     83  C   UNL A   1      37.314  33.421  32.983  1.00  0.00    -0.034 C 
ATOM     84  C   UNL A   1      37.968  30.536  28.925  1.00  0.00    -0.036 A 
ATOM     85  N   UNL A   1      39.398  30.252  30.622  1.00  0.00    -0.354 N 
ATOM     86  C   UNL A   1      39.105  32.670  34.190  1.00  0.00     0.074 A 
ATOM     87  C   UNL A   1      38.022  33.624  34.084  1.00  0.00    -0.034 C 
ATOM     88  H   UNL A   1      36.449  33.889  32.669  1.00  0.00     0.065 H 
ATOM     89  C   UNL A   1      38.843  29.586  28.560  1.00  0.00    -0.036 A 
ATOM     90  H   UNL A   1      37.192  30.889  28.345  1.00  0.00     0.065 H 
ATOM     91  C   UNL A   1      39.813  29.394  29.634  1.00  0.00     0.049 A 
ATOM     92  H   UNL A   1      39.849  30.331  31.493  1.00  0.00     0.167 HD
ATOM     93  C   UNL A   1      39.917  32.551  35.269  1.00  0.00     0.037 A 
ATOM     94  H   UNL A   1      37.825  34.364  34.774  1.00  0.00     0.065 H 
ATOM     95  H   UNL A   1      38.832  29.073  27.664  1.00  0.00     0.065 H 
ATOM     96  C   UNL A   1      40.866  28.556  29.591  1.00  0.00     0.037 A 
ATOM     97  C   UNL A   1      40.996  31.601  35.365  1.00  0.00     0.049 A 
ATOM     98  C   UNL A   1      41.771  28.457  30.787  1.00  0.00     0.074 A 
ATOM     99  C   UNL A   1      41.842  31.360  36.433  1.00  0.00    -0.036 A 
ATOM    100  N   UNL A   1      41.385  30.742  34.346  1.00  0.00    -0.354 N 
ATOM    101  N   UNL A   1      41.712  29.108  31.924  1.00  0.00    -0.248 NA
ATOM    102  C   UNL A   1      42.885  27.505  30.697  1.00  0.00    -0.034 C 
ATOM    103  C   UNL A   1      42.783  30.403  36.037  1.00  0.00    -0.036 A 
ATOM    104  H   UNL A   1      41.790  31.810  37.359  1.00  0.00     0.065 H 
ATOM    105  C   UNL A   1      42.484  29.997  34.746  1.00  0.00     0.049 A 
ATOM    106  H   UNL A   1      40.946  30.672  33.468  1.00  0.00     0.167 HD
ATOM    107  C   UNL A   1      42.768  28.634  32.691  1.00  0.00     0.074 A 
ATOM    108  C   UNL A   1      43.438  27.624  31.896  1.00  0.00    -0.034 C 
ATOM    109  H   UNL A   1      43.164  26.901  29.908  1.00  0.00     0.065 H 
ATOM    110  H   UNL A   1      43.568  30.056  36.612  1.00  0.00     0.065 H 
ATOM    111  C   UNL A   1      43.150  29.005  33.938  1.00  0.00     0.037 A 
ATOM    112  H   UNL A   1      44.243  27.068  32.223  1.00  0.00     0.065 H 
BRANCH  93 113
ATOM    113  C   UNL A   1      39.671  33.482  36.423  1.00  0.00     0.064 A 
ATOM    114  C   UNL A   1      38.837  33.125  37.495  1.00  0.00     0.173 A 
ATOM    115  C   UNL A   1      40.277  34.746  36.464  1.00  0.00     0.173 A 
ATOM    116  F   UNL A   1      38.223  31.931  37.505  1.00  0.00    -0.203 F 
ATOM    117  C   UNL A   1      38.583  34.013  38.537  1.00  0.00     0.198 A 
ATOM    118  C   UNL A   1      40.051  35.618  37.526  1.00  0.00     0.198 A 
ATOM    119  F   UNL A   1      41.090  35.140  35.471  1.00  0.00    -0.203 F 
ATOM    120  F   UNL A   1      37.728  33.674  39.511  1.00  0.00    -0.200 F 
ATOM    121  C   UNL A   1      39.194  35.257  38.554  1.00  0.00     0.200 A 
ATOM    122  F   UNL A   1      40.656  36.815  37.549  1.00  0.00    -0.200 F 
ATOM    123  F   UNL A   1      38.949  36.113  39.556  1.00  0.00    -0.200 F 
ENDBRANCH  93 113
BRANCH  96 124
ATOM    124  C   UNL A   1      41.105  27.744  28.370  1.00  0.00     0.064 A 
ATOM    125  C   UNL A   1      40.486  26.499  28.195  1.00  0.00     0.173 A 
ATOM    126  C   UNL A   1      41.933  28.213  27.338  1.00  0.00     0.173 A 
ATOM    127  F   UNL A   1      39.699  26.001  29.161  1.00  0.00    -0.203 F 
ATOM    128  C   UNL A   1      40.693  25.749  27.040  1.00  0.00     0.198 A 
ATOM    129  C   UNL A   1      42.116  27.475  26.170  1.00  0.00     0.198 A 
ATOM    130  F   UNL A   1      42.542  29.401  27.453  1.00  0.00    -0.203 F 
ATOM    131  F   UNL A   1      40.117  24.546  26.912  1.00  0.00    -0.200 F 
ATOM    132  C   UNL A   1      41.500  26.241  26.024  1.00  0.00     0.200 A 
ATOM    133  F   UNL A   1      42.880  27.964  25.185  1.00  0.00    -0.200 F 
ATOM    134  F   UNL A   1      41.686  25.526  24.906  1.00  0.00    -0.200 F 
ENDBRANCH  96 124
BRANCH 111 135
ATOM    135  C   UNL A   1      44.344  28.308  34.527  1.00  0.00     0.064 A 
ATOM    136  C   UNL A   1      45.638  28.839  34.411  1.00  0.00     0.173 A 
ATOM    137  C   UNL A   1      44.189  27.113  35.246  1.00  0.00     0.173 A 
ATOM    138  F   UNL A   1      45.844  29.970  33.719  1.00  0.00    -0.203 F 
ATOM    139  C   UNL A   1      46.733  28.186  34.972  1.00  0.00     0.198 A 
ATOM    140  C   UNL A   1      45.281  26.481  35.834  1.00  0.00     0.198 A 
ATOM    141  F   UNL A   1      42.973  26.564  35.393  1.00  0.00    -0.203 F 
ATOM    142  F   UNL A   1      47.965  28.685  34.803  1.00  0.00    -0.200 F 
ATOM    143  C   UNL A   1      46.553  27.014  35.689  1.00  0.00     0.200 A 
ATOM    144  F   UNL A   1      45.103  25.357  36.541  1.00  0.00    -0.200 F 
ATOM    145  F   UNL A   1      47.607  26.392  36.236  1.00  0.00    -0.200 F 
ENDBRANCH 111 135
ENDBRANCH  76  79
ENDBRANCH  66  69
ENDBRANCH  62  65
ENDBRANCH  59  62
ENDBRANCH  56  59
ENDBRANCH  53  56
ENDBRANCH  50  53
ENDBRANCH   1  50
TORSDOF 25
ENDMDL
MODEL 10
REMARK VINA RESULT:      -9.7      3.465      8.140
REMARK SMILES CC(C)C[C@H](NC(=O)CNC(=O)[C@@H]([NH3+])C(C)C)C(=O)NCCCCCCNC(=O)c1ccc(-c2c3nc(c(-c4c(F)c(F)c(F)c(F)c4F)c4ccc([nH]4)c(-c4c(F)c(F)c(F)c(F)c4F)c4nc(c(-c5c(F)c(F)c(F)c(F)c5F)c5ccc2[nH]5)C=C4)C=C3)cc1
REMARK SMILES IDX 21 1 20 4 18 5 19 6 5 8 4 10 2 13 1 15 3 19 6 23 7 24 8 26
REMARK SMILES IDX 9 27 10 30 11 31 12 33 13 34 14 36 15 40 16 42 17 46 22 50
REMARK SMILES IDX 23 53 24 56 25 59 26 62 27 65 28 66 29 68 30 69 31 70 92 71
REMARK SMILES IDX 32 72 91 74 33 76 34 79 35 80 85 81 36 82 90 83 84 84 86 85
REMARK SMILES IDX 37 86 89 87 83 89 82 91 38 93 70 96 50 97 69 98 51 99 54 100
REMARK SMILES IDX 68 101 87 102 52 103 53 105 67 107 88 108 55 111 39 113
REMARK SMILES IDX 40 114 48 115 41 116 42 117 46 118 49 119 43 120 44 121
REMARK SMILES IDX 47 122 45 123 71 124 72 125 80 126 73 127 74 128 78 129
REMARK SMILES IDX 81 130 75 131 76 132 79 133 77 134 56 135 57 136 65 137
REMARK SMILES IDX 58 138 59 139 63 140 66 141 60 142 61 143 64 144 62 145
REMARK H PARENT 21 2 21 3 20 7 5 9 4 11 4 12 2 14 1 16 1 17 1 18 3 20 3 21
REMARK H PARENT 3 22 6 25 9 28 9 29 10 32 13 35 14 37 14 38 14 39 15 41 16 43
REMARK H PARENT 16 44 16 45 17 47 17 48 17 49 22 51 22 52 23 54 23 55 24 57
REMARK H PARENT 24 58 25 60 25 61 26 63 26 64 27 67 31 73 92 75 32 77 91 78
REMARK H PARENT 90 88 84 90 86 92 89 94 83 95 51 104 54 106 87 109 52 110
REMARK H PARENT 88 112
REMARK Flexibility Score: inf
ROOT
ATOM      1  C   UNL A   1      34.798  22.334  26.958  1.00  0.00     0.017 C 
ATOM      2  H   UNL A   1      35.237  22.146  27.915  1.00  0.00     0.049 H 
ATOM      3  H   UNL A   1      35.317  23.123  26.456  1.00  0.00     0.049 H 
ENDROOT
BRANCH   1   4
ATOM      4  N   UNL A   1      33.419  22.730  27.138  1.00  0.00    -0.354 N 
ATOM      5  C   UNL A   1      32.782  23.880  26.788  1.00  0.00     0.242 C 
ATOM      6  O   UNL A   1      31.555  23.918  26.927  1.00  0.00    -0.273 OA
ATOM      7  H   UNL A   1      32.852  22.062  27.585  1.00  0.00     0.163 HD
BRANCH   5   8
ATOM      8  C   UNL A   1      33.535  25.044  26.121  1.00  0.00     0.108 C 
ATOM      9  H   UNL A   1      34.256  25.385  26.835  1.00  0.00     0.063 H 
BRANCH   8  10
ATOM     10  C   UNL A   1      32.626  26.248  25.836  1.00  0.00    -0.021 C 
ATOM     11  H   UNL A   1      32.619  26.420  24.780  1.00  0.00     0.030 H 
ATOM     12  H   UNL A   1      31.660  26.000  26.225  1.00  0.00     0.030 H 
BRANCH  10  13
ATOM     13  C   UNL A   1      33.059  27.560  26.537  1.00  0.00    -0.045 C 
ATOM     14  H   UNL A   1      33.820  27.293  27.240  1.00  0.00     0.030 H 
BRANCH  13  15
ATOM     15  C   UNL A   1      33.661  28.583  25.576  1.00  0.00    -0.063 C 
ATOM     16  H   UNL A   1      33.988  29.440  26.128  1.00  0.00     0.023 H 
ATOM     17  H   UNL A   1      32.922  28.881  24.863  1.00  0.00     0.023 H 
ATOM     18  H   UNL A   1      34.494  28.147  25.066  1.00  0.00     0.023 H 
ENDBRANCH  13  15
BRANCH  13  19
ATOM     19  C   UNL A   1      31.858  28.190  27.242  1.00  0.00    -0.063 C 
ATOM     20  H   UNL A   1      32.134  29.148  27.629  1.00  0.00     0.023 H 
ATOM     21  H   UNL A   1      31.545  27.557  28.046  1.00  0.00     0.023 H 
ATOM     22  H   UNL A   1      31.054  28.305  26.545  1.00  0.00     0.023 H 
ENDBRANCH  13  19
ENDBRANCH  10  13
ENDBRANCH   8  10
BRANCH   8  23
ATOM     23  N   UNL A   1      34.301  24.618  24.949  1.00  0.00    -0.343 N 
ATOM     24  C   UNL A   1      33.878  24.296  23.695  1.00  0.00     0.240 C 
ATOM     25  H   UNL A   1      35.273  24.555  25.088  1.00  0.00     0.164 HD
ATOM     26  O   UNL A   1      34.755  24.202  22.828  1.00  0.00    -0.273 OA
BRANCH  24  27
ATOM     27  C   UNL A   1      32.395  24.196  23.312  1.00  0.00     0.097 C 
ATOM     28  H   UNL A   1      31.824  24.695  24.066  1.00  0.00     0.059 H 
ATOM     29  H   UNL A   1      32.183  23.149  23.231  1.00  0.00     0.059 H 
BRANCH  27  30
ATOM     30  N   UNL A   1      32.039  24.772  22.027  1.00  0.00    -0.342 N 
ATOM     31  C   UNL A   1      31.577  26.015  21.715  1.00  0.00     0.278 C 
ATOM     32  H   UNL A   1      32.150  24.168  21.259  1.00  0.00     0.164 HD
ATOM     33  O   UNL A   1      31.418  26.256  20.514  1.00  0.00    -0.268 OA
BRANCH  31  34
ATOM     34  C   UNL A   1      31.310  27.118  22.775  1.00  0.00     0.166 C 
ATOM     35  H   UNL A   1      31.830  26.843  23.668  1.00  0.00     0.107 H 
BRANCH  34  36
ATOM     36  N   UNL A   1      31.863  28.428  22.373  1.00  0.00    -0.347 N 
ATOM     37  H   UNL A   1      32.840  28.487  22.658  1.00  0.00     0.345 HD
ATOM     38  H   UNL A   1      31.332  29.174  22.823  1.00  0.00     0.345 HD
ATOM     39  H   UNL A   1      31.797  28.529  21.360  1.00  0.00     0.345 HD
ENDBRANCH  34  36
BRANCH  34  40
ATOM     40  C   UNL A   1      29.806  27.195  23.115  1.00  0.00     0.015 C 
ATOM     41  H   UNL A   1      29.289  26.638  22.361  1.00  0.00     0.036 H 
BRANCH  40  42
ATOM     42  C   UNL A   1      29.538  26.591  24.501  1.00  0.00    -0.057 C 
ATOM     43  H   UNL A   1      28.529  26.238  24.547  1.00  0.00     0.024 H 
ATOM     44  H   UNL A   1      29.690  27.338  25.251  1.00  0.00     0.024 H 
ATOM     45  H   UNL A   1      30.209  25.775  24.670  1.00  0.00     0.024 H 
ENDBRANCH  40  42
BRANCH  40  46
ATOM     46  C   UNL A   1      29.288  28.639  23.102  1.00  0.00    -0.057 C 
ATOM     47  H   UNL A   1      29.112  28.964  24.106  1.00  0.00     0.024 H 
ATOM     48  H   UNL A   1      28.374  28.685  22.546  1.00  0.00     0.024 H 
ATOM     49  H   UNL A   1      30.016  29.276  22.644  1.00  0.00     0.024 H 
ENDBRANCH  40  46
ENDBRANCH  34  40
ENDBRANCH  31  34
ENDBRANCH  27  30
ENDBRANCH  24  27
ENDBRANCH   8  23
ENDBRANCH   5   8
ENDBRANCH   1   4
BRANCH   1  50
ATOM     50  C   UNL A   1      34.896  21.072  26.110  1.00  0.00    -0.036 C 
ATOM     51  H   UNL A   1      33.977  20.954  25.572  1.00  0.00     0.028 H 
ATOM     52  H   UNL A   1      35.085  20.260  26.780  1.00  0.00     0.028 H 
BRANCH  50  53
ATOM     53  C   UNL A   1      36.048  21.096  25.099  1.00  0.00    -0.052 C 
ATOM     54  H   UNL A   1      36.723  21.876  25.383  1.00  0.00     0.027 H 
ATOM     55  H   UNL A   1      35.602  21.251  24.139  1.00  0.00     0.027 H 
BRANCH  53  56
ATOM     56  C   UNL A   1      36.843  19.789  25.002  1.00  0.00    -0.052 C 
ATOM     57  H   UNL A   1      36.377  19.170  24.265  1.00  0.00     0.027 H 
ATOM     58  H   UNL A   1      36.836  19.360  25.982  1.00  0.00     0.027 H 
BRANCH  56  59
ATOM     59  C   UNL A   1      38.316  19.958  24.619  1.00  0.00    -0.036 C 
ATOM     60  H   UNL A   1      38.394  20.793  23.954  1.00  0.00     0.028 H 
ATOM     61  H   UNL A   1      38.623  19.038  24.169  1.00  0.00     0.028 H 
BRANCH  59  62
ATOM     62  C   UNL A   1      39.246  20.201  25.799  1.00  0.00     0.018 C 
ATOM     63  H   UNL A   1      38.662  20.275  26.692  1.00  0.00     0.049 H 
ATOM     64  H   UNL A   1      39.786  21.107  25.614  1.00  0.00     0.049 H 
BRANCH  62  65
ATOM     65  N   UNL A   1      40.212  19.127  25.958  1.00  0.00    -0.352 N 
ATOM     66  C   UNL A   1      41.567  19.206  26.139  1.00  0.00     0.251 C 
ATOM     67  H   UNL A   1      39.840  18.215  25.930  1.00  0.00     0.163 HD
ATOM     68  O   UNL A   1      42.268  18.201  26.047  1.00  0.00    -0.269 OA
BRANCH  66  69
ATOM     69  C   UNL A   1      42.186  20.515  26.423  1.00  0.00     0.039 A 
ATOM     70  C   UNL A   1      42.658  21.282  25.357  1.00  0.00    -0.049 A 
ATOM     71  C   UNL A   1      42.280  20.992  27.735  1.00  0.00    -0.049 A 
ATOM     72  C   UNL A   1      43.170  22.555  25.599  1.00  0.00    -0.053 A 
ATOM     73  H   UNL A   1      42.629  20.908  24.394  1.00  0.00     0.063 H 
ATOM     74  C   UNL A   1      42.716  22.292  27.966  1.00  0.00    -0.053 A 
ATOM     75  H   UNL A   1      42.027  20.381  28.527  1.00  0.00     0.063 H 
ATOM     76  C   UNL A   1      43.165  23.085  26.901  1.00  0.00    -0.014 A 
ATOM     77  H   UNL A   1      43.555  23.112  24.819  1.00  0.00     0.063 H 
ATOM     78  H   UNL A   1      42.709  22.673  28.925  1.00  0.00     0.063 H 
BRANCH  76  79
ATOM     79  C   UNL A   1      43.606  24.479  27.157  1.00  0.00     0.031 A 
ATOM     80  C   UNL A   1      42.629  25.508  27.645  1.00  0.00     0.074 A 
ATOM     81  C   UNL A   1      44.878  24.827  26.888  1.00  0.00     0.049 A 
ATOM     82  N   UNL A   1      42.818  26.783  27.878  1.00  0.00    -0.248 NA
ATOM     83  C   UNL A   1      41.250  25.052  27.874  1.00  0.00    -0.034 C 
ATOM     84  C   UNL A   1      45.903  23.927  26.355  1.00  0.00    -0.036 A 
ATOM     85  N   UNL A   1      45.523  26.032  27.009  1.00  0.00    -0.354 N 
ATOM     86  C   UNL A   1      41.585  27.279  28.278  1.00  0.00     0.074 A 
ATOM     87  C   UNL A   1      40.641  26.185  28.189  1.00  0.00    -0.034 C 
ATOM     88  H   UNL A   1      40.860  24.099  27.807  1.00  0.00     0.065 H 
ATOM     89  C   UNL A   1      47.051  24.606  26.214  1.00  0.00    -0.036 A 
ATOM     90  H   UNL A   1      45.765  22.931  26.125  1.00  0.00     0.065 H 
ATOM     91  C   UNL A   1      46.834  25.996  26.605  1.00  0.00     0.049 A 
ATOM     92  H   UNL A   1      45.087  26.845  27.355  1.00  0.00     0.167 HD
ATOM     93  C   UNL A   1      41.274  28.526  28.705  1.00  0.00     0.037 A 
ATOM     94  H   UNL A   1      39.626  26.275  28.351  1.00  0.00     0.065 H 
ATOM     95  H   UNL A   1      47.946  24.210  25.884  1.00  0.00     0.065 H 
ATOM     96  C   UNL A   1      47.755  26.976  26.541  1.00  0.00     0.037 A 
ATOM     97  C   UNL A   1      42.219  29.610  28.787  1.00  0.00     0.049 A 
ATOM     98  C   UNL A   1      47.383  28.360  26.994  1.00  0.00     0.074 A 
ATOM     99  C   UNL A   1      42.021  30.896  29.258  1.00  0.00    -0.036 A 
ATOM    100  N   UNL A   1      43.542  29.537  28.374  1.00  0.00    -0.354 N 
ATOM    101  N   UNL A   1      46.235  28.800  27.448  1.00  0.00    -0.248 NA
ATOM    102  C   UNL A   1      48.436  29.382  26.932  1.00  0.00    -0.034 C 
ATOM    103  C   UNL A   1      43.205  31.618  29.069  1.00  0.00    -0.036 A 
ATOM    104  H   UNL A   1      41.150  31.260  29.674  1.00  0.00     0.065 H 
ATOM    105  C   UNL A   1      44.163  30.765  28.543  1.00  0.00     0.049 A 
ATOM    106  H   UNL A   1      43.978  28.730  28.013  1.00  0.00     0.167 HD
ATOM    107  C   UNL A   1      46.428  30.144  27.741  1.00  0.00     0.074 A 
ATOM    108  C   UNL A   1      47.814  30.440  27.434  1.00  0.00    -0.034 C 
ATOM    109  H   UNL A   1      49.406  29.299  26.589  1.00  0.00     0.065 H 
ATOM    110  H   UNL A   1      43.342  32.617  29.288  1.00  0.00     0.065 H 
ATOM    111  C   UNL A   1      45.539  31.049  28.218  1.00  0.00     0.037 A 
ATOM    112  H   UNL A   1      48.259  31.358  27.587  1.00  0.00     0.065 H 
BRANCH  93 113
ATOM    113  C   UNL A   1      39.847  28.782  29.105  1.00  0.00     0.064 A 
ATOM    114  C   UNL A   1      39.409  28.611  30.429  1.00  0.00     0.173 A 
ATOM    115  C   UNL A   1      38.905  29.207  28.157  1.00  0.00     0.173 A 
ATOM    116  F   UNL A   1      40.266  28.197  31.375  1.00  0.00    -0.203 F 
ATOM    117  C   UNL A   1      38.075  28.810  30.777  1.00  0.00     0.198 A 
ATOM    118  C   UNL A   1      37.579  29.442  28.517  1.00  0.00     0.198 A 
ATOM    119  F   UNL A   1      39.266  29.395  26.879  1.00  0.00    -0.203 F 
ATOM    120  F   UNL A   1      37.670  28.572  32.031  1.00  0.00    -0.200 F 
ATOM    121  C   UNL A   1      37.163  29.229  29.822  1.00  0.00     0.200 A 
ATOM    122  F   UNL A   1      36.701  29.863  27.595  1.00  0.00    -0.200 F 
ATOM    123  F   UNL A   1      35.879  29.420  30.157  1.00  0.00    -0.200 F 
ENDBRANCH  93 113
BRANCH  96 124
ATOM    124  C   UNL A   1      49.116  26.668  26.033  1.00  0.00     0.064 A 
ATOM    125  C   UNL A   1      49.465  26.916  24.698  1.00  0.00     0.173 A 
ATOM    126  C   UNL A   1      50.107  26.149  26.880  1.00  0.00     0.173 A 
ATOM    127  F   UNL A   1      48.547  27.395  23.845  1.00  0.00    -0.203 F 
ATOM    128  C   UNL A   1      50.748  26.647  24.227  1.00  0.00     0.198 A 
ATOM    129  C   UNL A   1      51.399  25.909  26.416  1.00  0.00     0.198 A 
ATOM    130  F   UNL A   1      49.828  25.902  28.168  1.00  0.00    -0.203 F 
ATOM    131  F   UNL A   1      51.045  26.860  22.939  1.00  0.00    -0.200 F 
ATOM    132  C   UNL A   1      51.717  26.153  25.089  1.00  0.00     0.200 A 
ATOM    133  F   UNL A   1      52.335  25.450  27.257  1.00  0.00    -0.200 F 
ATOM    134  F   UNL A   1      52.956  25.909  24.640  1.00  0.00    -0.200 F 
ENDBRANCH  96 124
BRANCH 111 135
ATOM    135  C   UNL A   1      46.039  32.448  28.446  1.00  0.00     0.064 A 
ATOM    136  C   UNL A   1      45.941  33.436  27.454  1.00  0.00     0.173 A 
ATOM    137  C   UNL A   1      46.589  32.816  29.684  1.00  0.00     0.173 A 
ATOM    138  F   UNL A   1      45.438  33.133  26.248  1.00  0.00    -0.203 F 
ATOM    139  C   UNL A   1      46.399  34.731  27.684  1.00  0.00     0.198 A 
ATOM    140  C   UNL A   1      47.014  34.120  29.922  1.00  0.00     0.198 A 
ATOM    141  F   UNL A   1      46.701  31.912  30.670  1.00  0.00    -0.203 F 
ATOM    142  F   UNL A   1      46.342  35.643  26.704  1.00  0.00    -0.200 F 
ATOM    143  C   UNL A   1      46.926  35.073  28.920  1.00  0.00     0.200 A 
ATOM    144  F   UNL A   1      47.509  34.453  31.122  1.00  0.00    -0.200 F 
ATOM    145  F   UNL A   1      47.358  36.322  29.143  1.00  0.00    -0.200 F 
ENDBRANCH 111 135
ENDBRANCH  76  79
ENDBRANCH  66  69
ENDBRANCH  62  65
ENDBRANCH  59  62
ENDBRANCH  56  59
ENDBRANCH  53  56
ENDBRANCH  50  53
ENDBRANCH   1  50
TORSDOF 25
ENDMDL
