MODEL 1
REMARK VINA RESULT:     -12.0      0.000      0.000
REMARK SMILES O=C(Cc1cccn1-c1ccccc1F)NCCCCCCNC(=O)c1ccc(-c2c3nc(c(-c4c(F)c(F)c(F)c(F)c4F)c4ccc([nH]4)c(-c4c(F)c(F)c(F)c(F)c4F)c4nc(c(-c5c(F)c(F)c(F)c(F)c5F)c5ccc2[nH]5)C=C4)C=C3)cc1
REMARK SMILES IDX 19 1 18 4 17 7 16 10 1 11 2 12 3 14 4 17 5 18 8 19 6 20 7 22
REMARK SMILES IDX 9 25 10 26 14 27 11 28 13 30 15 31 12 32 20 36 21 39 22 42
REMARK SMILES IDX 23 45 24 46 25 48 26 49 27 50 88 51 28 52 87 54 29 56 30 59
REMARK SMILES IDX 31 60 81 61 32 62 86 63 80 64 82 65 33 66 85 67 79 69 78 71
REMARK SMILES IDX 34 73 66 76 46 77 65 78 47 79 50 80 64 81 83 82 48 83 49 85
REMARK SMILES IDX 63 87 84 88 51 91 35 93 36 94 44 95 37 96 38 97 42 98 45 99
REMARK SMILES IDX 39 100 40 101 43 102 41 103 67 104 68 105 76 106 69 107
REMARK SMILES IDX 70 108 74 109 77 110 71 111 72 112 75 113 73 114 52 115
REMARK SMILES IDX 53 116 61 117 54 118 55 119 59 120 62 121 56 122 57 123
REMARK SMILES IDX 60 124 58 125
REMARK H PARENT 19 2 19 3 18 5 18 6 17 8 17 9 16 13 3 15 3 16 5 21 6 23 7 24
REMARK H PARENT 10 29 11 33 13 34 12 35 20 37 20 38 21 40 21 41 22 43 22 44
REMARK H PARENT 23 47 27 53 88 55 28 57 87 58 86 68 80 70 82 72 85 74 79 75
REMARK H PARENT 47 84 50 86 83 89 48 90 84 92
REMARK Flexibility Score: inf
ROOT
ATOM      1  C   UNL A   1      33.580  26.923  25.151  1.00  0.00    -0.052 C 
ATOM      2  H   UNL A   1      34.605  27.044  25.435  1.00  0.00     0.027 H 
ATOM      3  H   UNL A   1      33.235  25.911  25.101  1.00  0.00     0.027 H 
ENDROOT
BRANCH   1   4
ATOM      4  C   UNL A   1      33.434  27.455  23.719  1.00  0.00    -0.036 C 
ATOM      5  H   UNL A   1      32.616  28.144  23.714  1.00  0.00     0.028 H 
ATOM      6  H   UNL A   1      34.387  27.881  23.485  1.00  0.00     0.028 H 
BRANCH   4   7
ATOM      7  C   UNL A   1      33.178  26.427  22.611  1.00  0.00     0.017 C 
ATOM      8  H   UNL A   1      32.449  26.831  21.941  1.00  0.00     0.049 H 
ATOM      9  H   UNL A   1      34.119  26.243  22.138  1.00  0.00     0.049 H 
BRANCH   7  10
ATOM     10  N   UNL A   1      32.693  25.147  23.093  1.00  0.00    -0.356 N 
ATOM     11  O   UNL A   1      34.543  23.962  22.407  1.00  0.00    -0.275 OA
ATOM     12  C   UNL A   1      33.455  23.993  22.977  1.00  0.00     0.225 C 
ATOM     13  H   UNL A   1      31.804  25.095  23.512  1.00  0.00     0.163 HD
BRANCH  12  14
ATOM     14  C   UNL A   1      32.826  22.761  23.616  1.00  0.00     0.067 C 
ATOM     15  H   UNL A   1      33.351  21.901  23.257  1.00  0.00     0.043 H 
ATOM     16  H   UNL A   1      31.793  22.786  23.339  1.00  0.00     0.043 H 
BRANCH  14  17
ATOM     17  C   UNL A   1      32.847  22.721  25.122  1.00  0.00     0.032 A 
ATOM     18  C   UNL A   1      31.806  23.079  25.973  1.00  0.00    -0.040 A 
ATOM     19  N   UNL A   1      33.912  22.351  25.928  1.00  0.00    -0.318 N 
ATOM     20  C   UNL A   1      32.241  22.916  27.306  1.00  0.00    -0.044 A 
ATOM     21  H   UNL A   1      30.874  23.408  25.679  1.00  0.00     0.064 H 
ATOM     22  C   UNL A   1      33.522  22.428  27.249  1.00  0.00     0.009 A 
ATOM     23  H   UNL A   1      31.698  23.124  28.159  1.00  0.00     0.064 H 
ATOM     24  H   UNL A   1      34.100  22.162  28.062  1.00  0.00     0.082 H 
BRANCH  19  25
ATOM     25  C   UNL A   1      35.257  22.177  25.575  1.00  0.00     0.081 A 
ATOM     26  C   UNL A   1      35.765  20.893  25.362  1.00  0.00    -0.035 A 
ATOM     27  C   UNL A   1      36.093  23.286  25.598  1.00  0.00     0.147 A 
ATOM     28  C   UNL A   1      37.131  20.740  25.118  1.00  0.00    -0.060 A 
ATOM     29  H   UNL A   1      35.142  20.071  25.385  1.00  0.00     0.065 H 
ATOM     30  C   UNL A   1      37.460  23.118  25.440  1.00  0.00    -0.024 A 
ATOM     31  F   UNL A   1      35.607  24.521  25.786  1.00  0.00    -0.205 F 
ATOM     32  C   UNL A   1      37.978  21.849  25.167  1.00  0.00    -0.059 A 
ATOM     33  H   UNL A   1      37.514  19.807  24.900  1.00  0.00     0.062 H 
ATOM     34  H   UNL A   1      38.093  23.928  25.525  1.00  0.00     0.065 H 
ATOM     35  H   UNL A   1      38.991  21.732  25.003  1.00  0.00     0.062 H 
ENDBRANCH  19  25
ENDBRANCH  14  17
ENDBRANCH  12  14
ENDBRANCH   7  10
ENDBRANCH   4   7
ENDBRANCH   1   4
BRANCH   1  36
ATOM     36  C   UNL A   1      32.724  27.572  26.240  1.00  0.00    -0.052 C 
ATOM     37  H   UNL A   1      32.308  26.778  26.825  1.00  0.00     0.027 H 
ATOM     38  H   UNL A   1      32.032  28.178  25.694  1.00  0.00     0.027 H 
BRANCH  36  39
ATOM     39  C   UNL A   1      33.379  28.553  27.217  1.00  0.00    -0.036 C 
ATOM     40  H   UNL A   1      33.366  28.117  28.193  1.00  0.00     0.028 H 
ATOM     41  H   UNL A   1      32.819  29.464  27.166  1.00  0.00     0.028 H 
BRANCH  39  42
ATOM     42  C   UNL A   1      34.821  28.901  26.866  1.00  0.00     0.018 C 
ATOM     43  H   UNL A   1      34.938  28.867  25.804  1.00  0.00     0.049 H 
ATOM     44  H   UNL A   1      35.462  28.189  27.343  1.00  0.00     0.049 H 
BRANCH  42  45
ATOM     45  N   UNL A   1      35.181  30.233  27.342  1.00  0.00    -0.352 N 
ATOM     46  C   UNL A   1      36.279  30.640  28.065  1.00  0.00     0.251 C 
ATOM     47  H   UNL A   1      34.544  30.947  27.112  1.00  0.00     0.163 HD
ATOM     48  O   UNL A   1      36.301  31.727  28.612  1.00  0.00    -0.269 OA
BRANCH  46  49
ATOM     49  C   UNL A   1      37.418  29.717  28.211  1.00  0.00     0.039 A 
ATOM     50  C   UNL A   1      38.400  29.712  27.217  1.00  0.00    -0.049 A 
ATOM     51  C   UNL A   1      37.516  28.890  29.333  1.00  0.00    -0.049 A 
ATOM     52  C   UNL A   1      39.543  28.949  27.403  1.00  0.00    -0.053 A 
ATOM     53  H   UNL A   1      38.276  30.268  26.356  1.00  0.00     0.063 H 
ATOM     54  C   UNL A   1      38.679  28.172  29.550  1.00  0.00    -0.053 A 
ATOM     55  H   UNL A   1      36.728  28.816  29.996  1.00  0.00     0.063 H 
ATOM     56  C   UNL A   1      39.697  28.221  28.592  1.00  0.00    -0.014 A 
ATOM     57  H   UNL A   1      40.273  28.917  26.674  1.00  0.00     0.063 H 
ATOM     58  H   UNL A   1      38.793  27.606  30.406  1.00  0.00     0.063 H 
BRANCH  56  59
ATOM     59  C   UNL A   1      41.007  27.603  28.873  1.00  0.00     0.031 A 
ATOM     60  C   UNL A   1      41.124  26.195  28.268  1.00  0.00     0.074 A 
ATOM     61  C   UNL A   1      41.864  28.354  29.626  1.00  0.00     0.049 A 
ATOM     62  N   UNL A   1      41.819  25.172  28.659  1.00  0.00    -0.248 NA
ATOM     63  C   UNL A   1      40.289  25.848  27.083  1.00  0.00    -0.034 C 
ATOM     64  C   UNL A   1      41.576  29.730  30.079  1.00  0.00    -0.036 A 
ATOM     65  N   UNL A   1      43.115  28.144  30.168  1.00  0.00    -0.354 N 
ATOM     66  C   UNL A   1      41.647  24.141  27.707  1.00  0.00     0.074 A 
ATOM     67  C   UNL A   1      40.609  24.578  26.824  1.00  0.00    -0.034 C 
ATOM     68  H   UNL A   1      39.619  26.451  26.580  1.00  0.00     0.065 H 
ATOM     69  C   UNL A   1      42.560  30.191  30.874  1.00  0.00    -0.036 A 
ATOM     70  H   UNL A   1      40.733  30.266  29.821  1.00  0.00     0.065 H 
ATOM     71  C   UNL A   1      43.579  29.176  31.027  1.00  0.00     0.049 A 
ATOM     72  H   UNL A   1      43.647  27.339  29.973  1.00  0.00     0.167 HD
ATOM     73  C   UNL A   1      42.465  23.045  27.641  1.00  0.00     0.037 A 
ATOM     74  H   UNL A   1      40.172  23.995  26.093  1.00  0.00     0.065 H 
ATOM     75  H   UNL A   1      42.583  31.127  31.309  1.00  0.00     0.065 H 
ATOM     76  C   UNL A   1      44.670  29.187  31.854  1.00  0.00     0.037 A 
ATOM     77  C   UNL A   1      43.441  23.110  28.675  1.00  0.00     0.049 A 
ATOM     78  C   UNL A   1      45.391  27.937  31.563  1.00  0.00     0.074 A 
ATOM     79  C   UNL A   1      43.359  22.922  30.029  1.00  0.00    -0.036 A 
ATOM     80  N   UNL A   1      44.612  23.764  28.382  1.00  0.00    -0.354 N 
ATOM     81  N   UNL A   1      46.056  27.699  30.471  1.00  0.00    -0.248 NA
ATOM     82  C   UNL A   1      45.258  26.817  32.503  1.00  0.00    -0.034 C 
ATOM     83  C   UNL A   1      44.246  23.888  30.547  1.00  0.00    -0.036 A 
ATOM     84  H   UNL A   1      42.786  22.237  30.546  1.00  0.00     0.065 H 
ATOM     85  C   UNL A   1      44.979  24.464  29.504  1.00  0.00     0.049 A 
ATOM     86  H   UNL A   1      45.098  23.737  27.526  1.00  0.00     0.167 HD
ATOM     87  C   UNL A   1      46.122  26.325  30.464  1.00  0.00     0.074 A 
ATOM     88  C   UNL A   1      45.922  25.887  31.825  1.00  0.00    -0.034 C 
ATOM     89  H   UNL A   1      44.788  26.767  33.421  1.00  0.00     0.065 H 
ATOM     90  H   UNL A   1      44.341  24.131  31.545  1.00  0.00     0.065 H 
ATOM     91  C   UNL A   1      45.792  25.645  29.337  1.00  0.00     0.037 A 
ATOM     92  H   UNL A   1      46.245  24.986  32.213  1.00  0.00     0.065 H 
BRANCH  73  93
ATOM     93  C   UNL A   1      42.658  21.972  26.602  1.00  0.00     0.064 A 
ATOM     94  C   UNL A   1      43.687  21.988  25.654  1.00  0.00     0.173 A 
ATOM     95  C   UNL A   1      42.008  20.725  26.794  1.00  0.00     0.173 A 
ATOM     96  F   UNL A   1      44.381  23.106  25.405  1.00  0.00    -0.203 F 
ATOM     97  C   UNL A   1      44.098  20.816  25.006  1.00  0.00     0.198 A 
ATOM     98  C   UNL A   1      42.452  19.553  26.185  1.00  0.00     0.198 A 
ATOM     99  F   UNL A   1      40.976  20.611  27.645  1.00  0.00    -0.203 F 
ATOM    100  F   UNL A   1      45.124  20.863  24.143  1.00  0.00    -0.200 F 
ATOM    101  C   UNL A   1      43.511  19.597  25.302  1.00  0.00     0.200 A 
ATOM    102  F   UNL A   1      41.893  18.377  26.507  1.00  0.00    -0.200 F 
ATOM    103  F   UNL A   1      43.989  18.466  24.765  1.00  0.00    -0.200 F 
ENDBRANCH  73  93
BRANCH  76 104
ATOM    104  C   UNL A   1      45.168  30.031  33.010  1.00  0.00     0.064 A 
ATOM    105  C   UNL A   1      44.384  30.143  34.194  1.00  0.00     0.173 A 
ATOM    106  C   UNL A   1      46.318  30.832  33.019  1.00  0.00     0.173 A 
ATOM    107  F   UNL A   1      43.357  29.319  34.438  1.00  0.00    -0.203 F 
ATOM    108  C   UNL A   1      44.607  31.106  35.180  1.00  0.00     0.198 A 
ATOM    109  C   UNL A   1      46.571  31.772  34.035  1.00  0.00     0.198 A 
ATOM    110  F   UNL A   1      47.252  30.721  32.071  1.00  0.00    -0.203 F 
ATOM    111  F   UNL A   1      43.743  31.224  36.199  1.00  0.00    -0.200 F 
ATOM    112  C   UNL A   1      45.691  31.942  35.088  1.00  0.00     0.200 A 
ATOM    113  F   UNL A   1      47.676  32.530  33.976  1.00  0.00    -0.200 F 
ATOM    114  F   UNL A   1      45.897  32.888  36.013  1.00  0.00    -0.200 F 
ENDBRANCH  76 104
BRANCH  91 115
ATOM    115  C   UNL A   1      45.980  26.435  28.058  1.00  0.00     0.064 A 
ATOM    116  C   UNL A   1      44.926  26.934  27.277  1.00  0.00     0.173 A 
ATOM    117  C   UNL A   1      47.272  26.799  27.651  1.00  0.00     0.173 A 
ATOM    118  F   UNL A   1      43.662  26.644  27.577  1.00  0.00    -0.203 F 
ATOM    119  C   UNL A   1      45.137  27.745  26.160  1.00  0.00     0.198 A 
ATOM    120  C   UNL A   1      47.490  27.617  26.538  1.00  0.00     0.198 A 
ATOM    121  F   UNL A   1      48.338  26.352  28.334  1.00  0.00    -0.203 F 
ATOM    122  F   UNL A   1      44.093  28.182  25.439  1.00  0.00    -0.200 F 
ATOM    123  C   UNL A   1      46.422  28.090  25.793  1.00  0.00     0.200 A 
ATOM    124  F   UNL A   1      48.741  27.939  26.183  1.00  0.00    -0.200 F 
ATOM    125  F   UNL A   1      46.633  28.861  24.716  1.00  0.00    -0.200 F 
ENDBRANCH  91 115
ENDBRANCH  56  59
ENDBRANCH  46  49
ENDBRANCH  42  45
ENDBRANCH  39  42
ENDBRANCH  36  39
ENDBRANCH   1  36
TORSDOF 15
ENDMDL
MODEL 2
REMARK VINA RESULT:     -11.9      4.325      9.495
REMARK SMILES O=C(Cc1cccn1-c1ccccc1F)NCCCCCCNC(=O)c1ccc(-c2c3nc(c(-c4c(F)c(F)c(F)c(F)c4F)c4ccc([nH]4)c(-c4c(F)c(F)c(F)c(F)c4F)c4nc(c(-c5c(F)c(F)c(F)c(F)c5F)c5ccc2[nH]5)C=C4)C=C3)cc1
REMARK SMILES IDX 19 1 18 4 17 7 16 10 1 11 2 12 3 14 4 17 5 18 8 19 6 20 7 22
REMARK SMILES IDX 9 25 10 26 14 27 11 28 13 30 15 31 12 32 20 36 21 39 22 42
REMARK SMILES IDX 23 45 24 46 25 48 26 49 27 50 88 51 28 52 87 54 29 56 30 59
REMARK SMILES IDX 31 60 81 61 32 62 86 63 80 64 82 65 33 66 85 67 79 69 78 71
REMARK SMILES IDX 34 73 66 76 46 77 65 78 47 79 50 80 64 81 83 82 48 83 49 85
REMARK SMILES IDX 63 87 84 88 51 91 35 93 36 94 44 95 37 96 38 97 42 98 45 99
REMARK SMILES IDX 39 100 40 101 43 102 41 103 67 104 68 105 76 106 69 107
REMARK SMILES IDX 70 108 74 109 77 110 71 111 72 112 75 113 73 114 52 115
REMARK SMILES IDX 53 116 61 117 54 118 55 119 59 120 62 121 56 122 57 123
REMARK SMILES IDX 60 124 58 125
REMARK H PARENT 19 2 19 3 18 5 18 6 17 8 17 9 16 13 3 15 3 16 5 21 6 23 7 24
REMARK H PARENT 10 29 11 33 13 34 12 35 20 37 20 38 21 40 21 41 22 43 22 44
REMARK H PARENT 23 47 27 53 88 55 28 57 87 58 86 68 80 70 82 72 85 74 79 75
REMARK H PARENT 47 84 50 86 83 89 48 90 84 92
REMARK Flexibility Score: inf
ROOT
ATOM      1  C   UNL A   1      33.681  23.368  26.025  1.00  0.00    -0.052 C 
ATOM      2  H   UNL A   1      33.756  24.389  25.713  1.00  0.00     0.027 H 
ATOM      3  H   UNL A   1      33.498  22.661  25.243  1.00  0.00     0.027 H 
ENDROOT
BRANCH   1   4
ATOM      4  C   UNL A   1      32.458  23.257  26.945  1.00  0.00    -0.036 C 
ATOM      5  H   UNL A   1      32.619  22.422  27.595  1.00  0.00     0.028 H 
ATOM      6  H   UNL A   1      32.393  24.207  27.433  1.00  0.00     0.028 H 
BRANCH   4   7
ATOM      7  C   UNL A   1      31.092  23.063  26.277  1.00  0.00     0.017 C 
ATOM      8  H   UNL A   1      31.045  22.066  25.892  1.00  0.00     0.049 H 
ATOM      9  H   UNL A   1      30.353  23.253  27.025  1.00  0.00     0.049 H 
BRANCH   7  10
ATOM     10  N   UNL A   1      30.832  23.985  25.186  1.00  0.00    -0.356 N 
ATOM     11  O   UNL A   1      29.999  25.656  26.533  1.00  0.00    -0.275 OA
ATOM     12  C   UNL A   1      30.323  25.256  25.417  1.00  0.00     0.225 C 
ATOM     13  H   UNL A   1      31.019  23.704  24.263  1.00  0.00     0.163 HD
BRANCH  12  14
ATOM     14  C   UNL A   1      30.196  26.115  24.165  1.00  0.00     0.067 C 
ATOM     15  H   UNL A   1      29.694  27.020  24.439  1.00  0.00     0.043 H 
ATOM     16  H   UNL A   1      29.661  25.519  23.456  1.00  0.00     0.043 H 
BRANCH  14  17
ATOM     17  C   UNL A   1      31.492  26.489  23.494  1.00  0.00     0.032 A 
ATOM     18  C   UNL A   1      32.083  25.837  22.417  1.00  0.00    -0.040 A 
ATOM     19  N   UNL A   1      32.339  27.528  23.845  1.00  0.00    -0.318 N 
ATOM     20  C   UNL A   1      33.295  26.491  22.107  1.00  0.00    -0.044 A 
ATOM     21  H   UNL A   1      31.700  25.014  21.928  1.00  0.00     0.064 H 
ATOM     22  C   UNL A   1      33.407  27.551  22.972  1.00  0.00     0.009 A 
ATOM     23  H   UNL A   1      33.967  26.223  21.371  1.00  0.00     0.064 H 
ATOM     24  H   UNL A   1      34.166  28.250  22.969  1.00  0.00     0.082 H 
BRANCH  19  25
ATOM     25  C   UNL A   1      32.342  28.297  25.016  1.00  0.00     0.081 A 
ATOM     26  C   UNL A   1      31.769  29.572  25.019  1.00  0.00    -0.035 A 
ATOM     27  C   UNL A   1      33.056  27.830  26.111  1.00  0.00     0.147 A 
ATOM     28  C   UNL A   1      31.879  30.359  26.166  1.00  0.00    -0.060 A 
ATOM     29  H   UNL A   1      31.272  29.926  24.186  1.00  0.00     0.065 H 
ATOM     30  C   UNL A   1      33.236  28.649  27.215  1.00  0.00    -0.024 A 
ATOM     31  F   UNL A   1      33.593  26.601  26.119  1.00  0.00    -0.205 F 
ATOM     32  C   UNL A   1      32.620  29.902  27.258  1.00  0.00    -0.059 A 
ATOM     33  H   UNL A   1      31.412  31.278  26.208  1.00  0.00     0.062 H 
ATOM     34  H   UNL A   1      33.823  28.333  28.002  1.00  0.00     0.065 H 
ATOM     35  H   UNL A   1      32.715  30.493  28.100  1.00  0.00     0.062 H 
ENDBRANCH  19  25
ENDBRANCH  14  17
ENDBRANCH  12  14
ENDBRANCH   7  10
ENDBRANCH   4   7
ENDBRANCH   1   4
BRANCH   1  36
ATOM     36  C   UNL A   1      35.040  22.965  26.600  1.00  0.00    -0.052 C 
ATOM     37  H   UNL A   1      34.972  21.932  26.869  1.00  0.00     0.027 H 
ATOM     38  H   UNL A   1      35.196  23.659  27.400  1.00  0.00     0.027 H 
BRANCH  36  39
ATOM     39  C   UNL A   1      36.292  23.122  25.731  1.00  0.00    -0.036 C 
ATOM     40  H   UNL A   1      35.986  23.410  24.748  1.00  0.00     0.028 H 
ATOM     41  H   UNL A   1      36.799  22.179  25.744  1.00  0.00     0.028 H 
BRANCH  39  42
ATOM     42  C   UNL A   1      37.278  24.161  26.251  1.00  0.00     0.018 C 
ATOM     43  H   UNL A   1      36.814  24.716  27.040  1.00  0.00     0.049 H 
ATOM     44  H   UNL A   1      37.545  24.804  25.439  1.00  0.00     0.049 H 
BRANCH  42  45
ATOM     45  N   UNL A   1      38.494  23.537  26.762  1.00  0.00    -0.352 N 
ATOM     46  C   UNL A   1      39.572  24.108  27.399  1.00  0.00     0.251 C 
ATOM     47  H   UNL A   1      38.553  22.564  26.631  1.00  0.00     0.163 HD
ATOM     48  O   UNL A   1      40.620  23.501  27.522  1.00  0.00    -0.269 OA
BRANCH  46  49
ATOM     49  C   UNL A   1      39.459  25.491  27.892  1.00  0.00     0.039 A 
ATOM     50  C   UNL A   1      38.942  25.698  29.174  1.00  0.00    -0.049 A 
ATOM     51  C   UNL A   1      39.885  26.560  27.099  1.00  0.00    -0.049 A 
ATOM     52  C   UNL A   1      38.951  26.979  29.705  1.00  0.00    -0.053 A 
ATOM     53  H   UNL A   1      38.557  24.910  29.717  1.00  0.00     0.063 H 
ATOM     54  C   UNL A   1      39.948  27.830  27.645  1.00  0.00    -0.053 A 
ATOM     55  H   UNL A   1      40.149  26.404  26.114  1.00  0.00     0.063 H 
ATOM     56  C   UNL A   1      39.500  28.030  28.955  1.00  0.00    -0.014 A 
ATOM     57  H   UNL A   1      38.559  27.158  30.642  1.00  0.00     0.063 H 
ATOM     58  H   UNL A   1      40.321  28.619  27.093  1.00  0.00     0.063 H 
BRANCH  56  59
ATOM     59  C   UNL A   1      39.711  29.331  29.617  1.00  0.00     0.031 A 
ATOM     60  C   UNL A   1      38.490  30.256  29.477  1.00  0.00     0.074 A 
ATOM     61  C   UNL A   1      40.931  29.503  30.206  1.00  0.00     0.049 A 
ATOM     62  N   UNL A   1      38.421  31.551  29.448  1.00  0.00    -0.248 NA
ATOM     63  C   UNL A   1      37.146  29.647  29.269  1.00  0.00    -0.034 C 
ATOM     64  C   UNL A   1      41.969  28.455  30.274  1.00  0.00    -0.036 A 
ATOM     65  N   UNL A   1      41.557  30.551  30.848  1.00  0.00    -0.354 N 
ATOM     66  C   UNL A   1      37.055  31.911  29.392  1.00  0.00     0.074 A 
ATOM     67  C   UNL A   1      36.329  30.699  29.170  1.00  0.00    -0.034 C 
ATOM     68  H   UNL A   1      36.904  28.646  29.212  1.00  0.00     0.065 H 
ATOM     69  C   UNL A   1      43.098  28.931  30.833  1.00  0.00    -0.036 A 
ATOM     70  H   UNL A   1      41.847  27.488  29.938  1.00  0.00     0.065 H 
ATOM     71  C   UNL A   1      42.920  30.324  31.181  1.00  0.00     0.049 A 
ATOM     72  H   UNL A   1      41.095  31.394  31.060  1.00  0.00     0.167 HD
ATOM     73  C   UNL A   1      36.609  33.178  29.657  1.00  0.00     0.037 A 
ATOM     74  H   UNL A   1      35.319  30.645  28.964  1.00  0.00     0.065 H 
ATOM     75  H   UNL A   1      43.960  28.384  30.990  1.00  0.00     0.065 H 
ATOM     76  C   UNL A   1      43.857  31.210  31.639  1.00  0.00     0.037 A 
ATOM     77  C   UNL A   1      37.714  34.027  29.945  1.00  0.00     0.049 A 
ATOM     78  C   UNL A   1      43.122  32.463  31.881  1.00  0.00     0.074 A 
ATOM     79  C   UNL A   1      38.683  34.576  29.148  1.00  0.00    -0.036 A 
ATOM     80  N   UNL A   1      38.115  34.100  31.256  1.00  0.00    -0.354 N 
ATOM     81  N   UNL A   1      42.274  32.654  32.849  1.00  0.00    -0.248 NA
ATOM     82  C   UNL A   1      43.242  33.546  30.896  1.00  0.00    -0.034 C 
ATOM     83  C   UNL A   1      39.837  34.524  29.956  1.00  0.00    -0.036 A 
ATOM     84  H   UNL A   1      38.591  34.940  28.187  1.00  0.00     0.065 H 
ATOM     85  C   UNL A   1      39.486  34.156  31.259  1.00  0.00     0.049 A 
ATOM     86  H   UNL A   1      37.528  34.110  32.047  1.00  0.00     0.167 HD
ATOM     87  C   UNL A   1      41.543  33.724  32.389  1.00  0.00     0.074 A 
ATOM     88  C   UNL A   1      42.354  34.395  31.401  1.00  0.00    -0.034 C 
ATOM     89  H   UNL A   1      43.840  33.624  30.059  1.00  0.00     0.065 H 
ATOM     90  H   UNL A   1      40.796  34.729  29.634  1.00  0.00     0.065 H 
ATOM     91  C   UNL A   1      40.187  33.671  32.424  1.00  0.00     0.037 A 
ATOM     92  H   UNL A   1      42.258  35.386  31.128  1.00  0.00     0.065 H 
BRANCH  73  93
ATOM     93  C   UNL A   1      35.239  33.748  29.914  1.00  0.00     0.064 A 
ATOM     94  C   UNL A   1      34.657  33.823  31.185  1.00  0.00     0.173 A 
ATOM     95  C   UNL A   1      34.649  34.559  28.911  1.00  0.00     0.173 A 
ATOM     96  F   UNL A   1      35.144  33.115  32.212  1.00  0.00    -0.203 F 
ATOM     97  C   UNL A   1      33.612  34.716  31.456  1.00  0.00     0.198 A 
ATOM     98  C   UNL A   1      33.643  35.481  29.195  1.00  0.00     0.198 A 
ATOM     99  F   UNL A   1      35.099  34.526  27.646  1.00  0.00    -0.203 F 
ATOM    100  F   UNL A   1      33.117  34.797  32.699  1.00  0.00    -0.200 F 
ATOM    101  C   UNL A   1      33.136  35.571  30.475  1.00  0.00     0.200 A 
ATOM    102  F   UNL A   1      33.216  36.323  28.242  1.00  0.00    -0.200 F 
ATOM    103  F   UNL A   1      32.219  36.501  30.773  1.00  0.00    -0.200 F 
ENDBRANCH  73  93
BRANCH  76 104
ATOM    104  C   UNL A   1      45.366  31.244  31.784  1.00  0.00     0.064 A 
ATOM    105  C   UNL A   1      45.950  31.365  33.077  1.00  0.00     0.173 A 
ATOM    106  C   UNL A   1      46.299  31.269  30.740  1.00  0.00     0.173 A 
ATOM    107  F   UNL A   1      45.233  31.176  34.193  1.00  0.00    -0.203 F 
ATOM    108  C   UNL A   1      47.289  31.692  33.292  1.00  0.00     0.198 A 
ATOM    109  C   UNL A   1      47.661  31.553  30.957  1.00  0.00     0.198 A 
ATOM    110  F   UNL A   1      45.947  30.995  29.482  1.00  0.00    -0.203 F 
ATOM    111  F   UNL A   1      47.726  31.913  34.541  1.00  0.00    -0.200 F 
ATOM    112  C   UNL A   1      48.144  31.813  32.226  1.00  0.00     0.200 A 
ATOM    113  F   UNL A   1      48.504  31.590  29.915  1.00  0.00    -0.200 F 
ATOM    114  F   UNL A   1      49.424  32.155  32.419  1.00  0.00    -0.200 F 
ENDBRANCH  76 104
BRANCH  91 115
ATOM    115  C   UNL A   1      39.629  32.756  33.494  1.00  0.00     0.064 A 
ATOM    116  C   UNL A   1      39.009  31.523  33.232  1.00  0.00     0.173 A 
ATOM    117  C   UNL A   1      39.815  33.075  34.847  1.00  0.00     0.173 A 
ATOM    118  F   UNL A   1      38.785  31.128  31.981  1.00  0.00    -0.203 F 
ATOM    119  C   UNL A   1      38.599  30.658  34.249  1.00  0.00     0.198 A 
ATOM    120  C   UNL A   1      39.413  32.209  35.869  1.00  0.00     0.198 A 
ATOM    121  F   UNL A   1      40.387  34.241  35.185  1.00  0.00    -0.203 F 
ATOM    122  F   UNL A   1      37.997  29.498  33.942  1.00  0.00    -0.200 F 
ATOM    123  C   UNL A   1      38.806  31.001  35.570  1.00  0.00     0.200 A 
ATOM    124  F   UNL A   1      39.608  32.554  37.149  1.00  0.00    -0.200 F 
ATOM    125  F   UNL A   1      38.405  30.179  36.551  1.00  0.00    -0.200 F 
ENDBRANCH  91 115
ENDBRANCH  56  59
ENDBRANCH  46  49
ENDBRANCH  42  45
ENDBRANCH  39  42
ENDBRANCH  36  39
ENDBRANCH   1  36
TORSDOF 15
ENDMDL
MODEL 3
REMARK VINA RESULT:     -11.9      0.862      2.118
REMARK SMILES O=C(Cc1cccn1-c1ccccc1F)NCCCCCCNC(=O)c1ccc(-c2c3nc(c(-c4c(F)c(F)c(F)c(F)c4F)c4ccc([nH]4)c(-c4c(F)c(F)c(F)c(F)c4F)c4nc(c(-c5c(F)c(F)c(F)c(F)c5F)c5ccc2[nH]5)C=C4)C=C3)cc1
REMARK SMILES IDX 19 1 18 4 17 7 16 10 1 11 2 12 3 14 4 17 5 18 8 19 6 20 7 22
REMARK SMILES IDX 9 25 10 26 14 27 11 28 13 30 15 31 12 32 20 36 21 39 22 42
REMARK SMILES IDX 23 45 24 46 25 48 26 49 27 50 88 51 28 52 87 54 29 56 30 59
REMARK SMILES IDX 31 60 81 61 32 62 86 63 80 64 82 65 33 66 85 67 79 69 78 71
REMARK SMILES IDX 34 73 66 76 46 77 65 78 47 79 50 80 64 81 83 82 48 83 49 85
REMARK SMILES IDX 63 87 84 88 51 91 35 93 36 94 44 95 37 96 38 97 42 98 45 99
REMARK SMILES IDX 39 100 40 101 43 102 41 103 67 104 68 105 76 106 69 107
REMARK SMILES IDX 70 108 74 109 77 110 71 111 72 112 75 113 73 114 52 115
REMARK SMILES IDX 53 116 61 117 54 118 55 119 59 120 62 121 56 122 57 123
REMARK SMILES IDX 60 124 58 125
REMARK H PARENT 19 2 19 3 18 5 18 6 17 8 17 9 16 13 3 15 3 16 5 21 6 23 7 24
REMARK H PARENT 10 29 11 33 13 34 12 35 20 37 20 38 21 40 21 41 22 43 22 44
REMARK H PARENT 23 47 27 53 88 55 28 57 87 58 86 68 80 70 82 72 85 74 79 75
REMARK H PARENT 47 84 50 86 83 89 48 90 84 92
REMARK Flexibility Score: inf
ROOT
ATOM      1  C   UNL A   1      32.711  28.037  24.355  1.00  0.00    -0.052 C 
ATOM      2  H   UNL A   1      33.063  28.514  23.464  1.00  0.00     0.027 H 
ATOM      3  H   UNL A   1      33.328  27.243  24.724  1.00  0.00     0.027 H 
ENDROOT
BRANCH   1   4
ATOM      4  C   UNL A   1      31.374  27.365  24.017  1.00  0.00    -0.036 C 
ATOM      5  H   UNL A   1      31.181  26.633  24.775  1.00  0.00     0.028 H 
ATOM      6  H   UNL A   1      30.666  28.166  23.971  1.00  0.00     0.028 H 
BRANCH   4   7
ATOM      7  C   UNL A   1      31.263  26.662  22.660  1.00  0.00     0.017 C 
ATOM      8  H   UNL A   1      30.229  26.610  22.391  1.00  0.00     0.049 H 
ATOM      9  H   UNL A   1      31.842  27.236  21.967  1.00  0.00     0.049 H 
BRANCH   7  10
ATOM     10  N   UNL A   1      31.806  25.316  22.645  1.00  0.00    -0.356 N 
ATOM     11  O   UNL A   1      33.779  25.908  21.618  1.00  0.00    -0.275 OA
ATOM     12  C   UNL A   1      33.071  25.050  22.141  1.00  0.00     0.225 C 
ATOM     13  H   UNL A   1      31.265  24.575  23.001  1.00  0.00     0.163 HD
BRANCH  12  14
ATOM     14  C   UNL A   1      33.510  23.598  22.286  1.00  0.00     0.067 C 
ATOM     15  H   UNL A   1      33.928  23.287  21.352  1.00  0.00     0.043 H 
ATOM     16  H   UNL A   1      32.632  23.057  22.572  1.00  0.00     0.043 H 
BRANCH  14  17
ATOM     17  C   UNL A   1      34.528  23.327  23.362  1.00  0.00     0.032 A 
ATOM     18  C   UNL A   1      35.864  22.989  23.171  1.00  0.00    -0.040 A 
ATOM     19  N   UNL A   1      34.313  23.338  24.732  1.00  0.00    -0.318 N 
ATOM     20  C   UNL A   1      36.465  22.802  24.434  1.00  0.00    -0.044 A 
ATOM     21  H   UNL A   1      36.335  22.891  22.259  1.00  0.00     0.064 H 
ATOM     22  C   UNL A   1      35.502  23.063  25.376  1.00  0.00     0.009 A 
ATOM     23  H   UNL A   1      37.442  22.521  24.614  1.00  0.00     0.064 H 
ATOM     24  H   UNL A   1      35.643  23.056  26.398  1.00  0.00     0.082 H 
BRANCH  19  25
ATOM     25  C   UNL A   1      33.095  23.346  25.426  1.00  0.00     0.081 A 
ATOM     26  C   UNL A   1      32.207  22.275  25.295  1.00  0.00    -0.035 A 
ATOM     27  C   UNL A   1      32.733  24.499  26.110  1.00  0.00     0.147 A 
ATOM     28  C   UNL A   1      30.958  22.356  25.911  1.00  0.00    -0.060 A 
ATOM     29  H   UNL A   1      32.471  21.438  24.752  1.00  0.00     0.065 H 
ATOM     30  C   UNL A   1      31.460  24.609  26.646  1.00  0.00    -0.024 A 
ATOM     31  F   UNL A   1      33.589  25.522  26.252  1.00  0.00    -0.205 F 
ATOM     32  C   UNL A   1      30.580  23.525  26.576  1.00  0.00    -0.059 A 
ATOM     33  H   UNL A   1      30.312  21.552  25.875  1.00  0.00     0.062 H 
ATOM     34  H   UNL A   1      31.162  25.488  27.095  1.00  0.00     0.065 H 
ATOM     35  H   UNL A   1      29.649  23.589  27.017  1.00  0.00     0.062 H 
ENDBRANCH  19  25
ENDBRANCH  14  17
ENDBRANCH  12  14
ENDBRANCH   7  10
ENDBRANCH   4   7
ENDBRANCH   1   4
BRANCH   1  36
ATOM     36  C   UNL A   1      32.718  29.085  25.469  1.00  0.00    -0.052 C 
ATOM     37  H   UNL A   1      31.698  29.351  25.654  1.00  0.00     0.027 H 
ATOM     38  H   UNL A   1      33.354  29.857  25.091  1.00  0.00     0.027 H 
BRANCH  36  39
ATOM     39  C   UNL A   1      33.341  28.728  26.823  1.00  0.00    -0.036 C 
ATOM     40  H   UNL A   1      33.103  27.709  27.045  1.00  0.00     0.028 H 
ATOM     41  H   UNL A   1      32.937  29.410  27.541  1.00  0.00     0.028 H 
BRANCH  39  42
ATOM     42  C   UNL A   1      34.856  28.886  26.864  1.00  0.00     0.018 C 
ATOM     43  H   UNL A   1      35.253  28.696  25.889  1.00  0.00     0.049 H 
ATOM     44  H   UNL A   1      35.246  28.190  27.577  1.00  0.00     0.049 H 
BRANCH  42  45
ATOM     45  N   UNL A   1      35.242  30.231  27.280  1.00  0.00    -0.352 N 
ATOM     46  C   UNL A   1      36.366  30.653  27.953  1.00  0.00     0.251 C 
ATOM     47  H   UNL A   1      34.604  30.942  27.044  1.00  0.00     0.163 HD
ATOM     48  O   UNL A   1      36.414  31.759  28.458  1.00  0.00    -0.269 OA
BRANCH  46  49
ATOM     49  C   UNL A   1      37.501  29.726  28.097  1.00  0.00     0.039 A 
ATOM     50  C   UNL A   1      38.476  29.710  27.096  1.00  0.00    -0.049 A 
ATOM     51  C   UNL A   1      37.602  28.905  29.223  1.00  0.00    -0.049 A 
ATOM     52  C   UNL A   1      39.617  28.942  27.279  1.00  0.00    -0.053 A 
ATOM     53  H   UNL A   1      38.350  30.261  26.232  1.00  0.00     0.063 H 
ATOM     54  C   UNL A   1      38.763  28.181  29.436  1.00  0.00    -0.053 A 
ATOM     55  H   UNL A   1      36.818  28.838  29.891  1.00  0.00     0.063 H 
ATOM     56  C   UNL A   1      39.775  28.220  28.471  1.00  0.00    -0.014 A 
ATOM     57  H   UNL A   1      40.341  28.902  26.546  1.00  0.00     0.063 H 
ATOM     58  H   UNL A   1      38.880  27.620  30.295  1.00  0.00     0.063 H 
BRANCH  56  59
ATOM     59  C   UNL A   1      41.083  27.597  28.747  1.00  0.00     0.031 A 
ATOM     60  C   UNL A   1      41.177  26.172  28.179  1.00  0.00     0.074 A 
ATOM     61  C   UNL A   1      41.960  28.359  29.465  1.00  0.00     0.049 A 
ATOM     62  N   UNL A   1      41.868  25.152  28.587  1.00  0.00    -0.248 NA
ATOM     63  C   UNL A   1      40.319  25.801  27.018  1.00  0.00    -0.034 C 
ATOM     64  C   UNL A   1      41.693  29.750  29.885  1.00  0.00    -0.036 A 
ATOM     65  N   UNL A   1      43.218  28.152  29.991  1.00  0.00    -0.354 N 
ATOM     66  C   UNL A   1      41.671  24.098  27.667  1.00  0.00     0.074 A 
ATOM     67  C   UNL A   1      40.622  24.521  26.790  1.00  0.00    -0.034 C 
ATOM     68  H   UNL A   1      39.646  26.396  26.511  1.00  0.00     0.065 H 
ATOM     69  C   UNL A   1      42.694  30.223  30.650  1.00  0.00    -0.036 A 
ATOM     70  H   UNL A   1      40.851  30.287  29.626  1.00  0.00     0.065 H 
ATOM     71  C   UNL A   1      43.707  29.202  30.814  1.00  0.00     0.049 A 
ATOM     72  H   UNL A   1      43.739  27.336  29.811  1.00  0.00     0.167 HD
ATOM     73  C   UNL A   1      42.477  22.993  27.617  1.00  0.00     0.037 A 
ATOM     74  H   UNL A   1      40.167  23.923  26.082  1.00  0.00     0.065 H 
ATOM     75  H   UNL A   1      42.734  31.171  31.059  1.00  0.00     0.065 H 
ATOM     76  C   UNL A   1      44.811  29.226  31.622  1.00  0.00     0.037 A 
ATOM     77  C   UNL A   1      43.471  23.076  28.633  1.00  0.00     0.049 A 
ATOM     78  C   UNL A   1      45.516  27.961  31.354  1.00  0.00     0.074 A 
ATOM     79  C   UNL A   1      43.410  22.926  29.993  1.00  0.00    -0.036 A 
ATOM     80  N   UNL A   1      44.643  23.710  28.302  1.00  0.00    -0.354 N 
ATOM     81  N   UNL A   1      46.160  27.686  30.257  1.00  0.00    -0.248 NA
ATOM     82  C   UNL A   1      45.388  26.868  32.327  1.00  0.00    -0.034 C 
ATOM     83  C   UNL A   1      44.315  23.897  30.469  1.00  0.00    -0.036 A 
ATOM     84  H   UNL A   1      42.839  22.261  30.538  1.00  0.00     0.065 H 
ATOM     85  C   UNL A   1      45.035  24.437  29.398  1.00  0.00     0.049 A 
ATOM     86  H   UNL A   1      45.114  23.654  27.439  1.00  0.00     0.167 HD
ATOM     87  C   UNL A   1      46.213  26.312  30.287  1.00  0.00     0.074 A 
ATOM     88  C   UNL A   1      46.031  25.913  31.664  1.00  0.00    -0.034 C 
ATOM     89  H   UNL A   1      44.933  26.848  33.253  1.00  0.00     0.065 H 
ATOM     90  H   UNL A   1      44.429  24.166  31.459  1.00  0.00     0.065 H 
ATOM     91  C   UNL A   1      45.856  25.605  29.185  1.00  0.00     0.037 A 
ATOM     92  H   UNL A   1      46.352  25.020  32.070  1.00  0.00     0.065 H 
BRANCH  73  93
ATOM     93  C   UNL A   1      42.642  21.890  26.605  1.00  0.00     0.064 A 
ATOM     94  C   UNL A   1      43.559  21.938  25.549  1.00  0.00     0.173 A 
ATOM     95  C   UNL A   1      42.118  20.608  26.916  1.00  0.00     0.173 A 
ATOM     96  F   UNL A   1      44.131  23.092  25.183  1.00  0.00    -0.203 F 
ATOM     97  C   UNL A   1      43.990  20.771  24.906  1.00  0.00     0.198 A 
ATOM     98  C   UNL A   1      42.585  19.445  26.307  1.00  0.00     0.198 A 
ATOM     99  F   UNL A   1      41.195  20.457  27.879  1.00  0.00    -0.203 F 
ATOM    100  F   UNL A   1      44.910  20.854  23.933  1.00  0.00    -0.200 F 
ATOM    101  C   UNL A   1      43.537  19.527  25.311  1.00  0.00     0.200 A 
ATOM    102  F   UNL A   1      42.159  18.247  26.733  1.00  0.00    -0.200 F 
ATOM    103  F   UNL A   1      44.042  18.411  24.768  1.00  0.00    -0.200 F 
ENDBRANCH  73  93
BRANCH  76 104
ATOM    104  C   UNL A   1      45.337  30.096  32.746  1.00  0.00     0.064 A 
ATOM    105  C   UNL A   1      46.533  30.848  32.558  1.00  0.00     0.173 A 
ATOM    106  C   UNL A   1      44.819  30.179  34.045  1.00  0.00     0.173 A 
ATOM    107  F   UNL A   1      47.062  31.034  31.342  1.00  0.00    -0.203 F 
ATOM    108  C   UNL A   1      47.246  31.438  33.602  1.00  0.00     0.198 A 
ATOM    109  C   UNL A   1      45.513  30.814  35.092  1.00  0.00     0.198 A 
ATOM    110  F   UNL A   1      43.618  29.681  34.350  1.00  0.00    -0.203 F 
ATOM    111  F   UNL A   1      48.429  32.018  33.353  1.00  0.00    -0.200 F 
ATOM    112  C   UNL A   1      46.747  31.399  34.880  1.00  0.00     0.200 A 
ATOM    113  F   UNL A   1      44.979  30.838  36.322  1.00  0.00    -0.200 F 
ATOM    114  F   UNL A   1      47.438  31.937  35.893  1.00  0.00    -0.200 F 
ENDBRANCH  76 104
BRANCH  91 115
ATOM    115  C   UNL A   1      46.031  26.357  27.882  1.00  0.00     0.064 A 
ATOM    116  C   UNL A   1      44.968  26.844  27.105  1.00  0.00     0.173 A 
ATOM    117  C   UNL A   1      47.319  26.698  27.444  1.00  0.00     0.173 A 
ATOM    118  F   UNL A   1      43.707  26.576  27.434  1.00  0.00    -0.203 F 
ATOM    119  C   UNL A   1      45.168  27.622  25.963  1.00  0.00     0.198 A 
ATOM    120  C   UNL A   1      47.526  27.483  26.306  1.00  0.00     0.198 A 
ATOM    121  F   UNL A   1      48.392  26.260  28.122  1.00  0.00    -0.203 F 
ATOM    122  F   UNL A   1      44.116  28.049  25.247  1.00  0.00    -0.200 F 
ATOM    123  C   UNL A   1      46.450  27.945  25.565  1.00  0.00     0.200 A 
ATOM    124  F   UNL A   1      48.773  27.783  25.921  1.00  0.00    -0.200 F 
ATOM    125  F   UNL A   1      46.649  28.684  24.464  1.00  0.00    -0.200 F 
ENDBRANCH  91 115
ENDBRANCH  56  59
ENDBRANCH  46  49
ENDBRANCH  42  45
ENDBRANCH  39  42
ENDBRANCH  36  39
ENDBRANCH   1  36
TORSDOF 15
ENDMDL
MODEL 4
REMARK VINA RESULT:     -11.8      4.270      9.463
REMARK SMILES O=C(Cc1cccn1-c1ccccc1F)NCCCCCCNC(=O)c1ccc(-c2c3nc(c(-c4c(F)c(F)c(F)c(F)c4F)c4ccc([nH]4)c(-c4c(F)c(F)c(F)c(F)c4F)c4nc(c(-c5c(F)c(F)c(F)c(F)c5F)c5ccc2[nH]5)C=C4)C=C3)cc1
REMARK SMILES IDX 19 1 18 4 17 7 16 10 1 11 2 12 3 14 4 17 5 18 8 19 6 20 7 22
REMARK SMILES IDX 9 25 10 26 14 27 11 28 13 30 15 31 12 32 20 36 21 39 22 42
REMARK SMILES IDX 23 45 24 46 25 48 26 49 27 50 88 51 28 52 87 54 29 56 30 59
REMARK SMILES IDX 31 60 81 61 32 62 86 63 80 64 82 65 33 66 85 67 79 69 78 71
REMARK SMILES IDX 34 73 66 76 46 77 65 78 47 79 50 80 64 81 83 82 48 83 49 85
REMARK SMILES IDX 63 87 84 88 51 91 35 93 36 94 44 95 37 96 38 97 42 98 45 99
REMARK SMILES IDX 39 100 40 101 43 102 41 103 67 104 68 105 76 106 69 107
REMARK SMILES IDX 70 108 74 109 77 110 71 111 72 112 75 113 73 114 52 115
REMARK SMILES IDX 53 116 61 117 54 118 55 119 59 120 62 121 56 122 57 123
REMARK SMILES IDX 60 124 58 125
REMARK H PARENT 19 2 19 3 18 5 18 6 17 8 17 9 16 13 3 15 3 16 5 21 6 23 7 24
REMARK H PARENT 10 29 11 33 13 34 12 35 20 37 20 38 21 40 21 41 22 43 22 44
REMARK H PARENT 23 47 27 53 88 55 28 57 87 58 86 68 80 70 82 72 85 74 79 75
REMARK H PARENT 47 84 50 86 83 89 48 90 84 92
REMARK Flexibility Score: inf
ROOT
ATOM      1  C   UNL A   1      35.227  21.839  24.255  1.00  0.00    -0.052 C 
ATOM      2  H   UNL A   1      34.566  22.666  24.410  1.00  0.00     0.027 H 
ATOM      3  H   UNL A   1      35.445  21.611  23.232  1.00  0.00     0.027 H 
ENDROOT
BRANCH   1   4
ATOM      4  C   UNL A   1      34.525  20.584  24.792  1.00  0.00    -0.036 C 
ATOM      5  H   UNL A   1      33.713  20.362  24.132  1.00  0.00     0.028 H 
ATOM      6  H   UNL A   1      35.291  19.838  24.836  1.00  0.00     0.028 H 
BRANCH   4   7
ATOM      7  C   UNL A   1      33.958  20.651  26.214  1.00  0.00     0.017 C 
ATOM      8  H   UNL A   1      33.673  19.663  26.509  1.00  0.00     0.049 H 
ATOM      9  H   UNL A   1      34.726  21.063  26.834  1.00  0.00     0.049 H 
BRANCH   7  10
ATOM     10  N   UNL A   1      32.802  21.518  26.349  1.00  0.00    -0.356 N 
ATOM     11  O   UNL A   1      33.974  23.273  27.265  1.00  0.00    -0.275 OA
ATOM     12  C   UNL A   1      32.916  22.808  26.847  1.00  0.00     0.225 C 
ATOM     13  H   UNL A   1      31.916  21.184  26.081  1.00  0.00     0.163 HD
BRANCH  12  14
ATOM     14  C   UNL A   1      31.616  23.601  26.835  1.00  0.00     0.067 C 
ATOM     15  H   UNL A   1      31.679  24.346  27.601  1.00  0.00     0.043 H 
ATOM     16  H   UNL A   1      30.837  22.884  26.989  1.00  0.00     0.043 H 
BRANCH  14  17
ATOM     17  C   UNL A   1      31.285  24.296  25.540  1.00  0.00     0.032 A 
ATOM     18  C   UNL A   1      30.836  23.693  24.370  1.00  0.00    -0.040 A 
ATOM     19  N   UNL A   1      31.395  25.651  25.273  1.00  0.00    -0.318 N 
ATOM     20  C   UNL A   1      30.665  24.692  23.387  1.00  0.00    -0.044 A 
ATOM     21  H   UNL A   1      30.659  22.685  24.241  1.00  0.00     0.064 H 
ATOM     22  C   UNL A   1      30.974  25.890  23.981  1.00  0.00     0.009 A 
ATOM     23  H   UNL A   1      30.364  24.548  22.410  1.00  0.00     0.064 H 
ATOM     24  H   UNL A   1      30.904  26.818  23.534  1.00  0.00     0.082 H 
BRANCH  19  25
ATOM     25  C   UNL A   1      32.056  26.639  26.016  1.00  0.00     0.081 A 
ATOM     26  C   UNL A   1      31.322  27.554  26.776  1.00  0.00    -0.035 A 
ATOM     27  C   UNL A   1      33.428  26.778  25.854  1.00  0.00     0.147 A 
ATOM     28  C   UNL A   1      31.997  28.591  27.420  1.00  0.00    -0.060 A 
ATOM     29  H   UNL A   1      30.297  27.463  26.859  1.00  0.00     0.065 H 
ATOM     30  C   UNL A   1      34.081  27.860  26.425  1.00  0.00    -0.024 A 
ATOM     31  F   UNL A   1      34.139  25.893  25.139  1.00  0.00    -0.205 F 
ATOM     32  C   UNL A   1      33.373  28.750  27.237  1.00  0.00    -0.059 A 
ATOM     33  H   UNL A   1      31.480  29.241  28.033  1.00  0.00     0.062 H 
ATOM     34  H   UNL A   1      35.087  28.006  26.251  1.00  0.00     0.065 H 
ATOM     35  H   UNL A   1      33.868  29.528  27.701  1.00  0.00     0.062 H 
ENDBRANCH  19  25
ENDBRANCH  14  17
ENDBRANCH  12  14
ENDBRANCH   7  10
ENDBRANCH   4   7
ENDBRANCH   1   4
BRANCH   1  36
ATOM     36  C   UNL A   1      36.579  22.212  24.867  1.00  0.00    -0.052 C 
ATOM     37  H   UNL A   1      37.333  21.776  24.247  1.00  0.00     0.027 H 
ATOM     38  H   UNL A   1      36.514  21.849  25.871  1.00  0.00     0.027 H 
BRANCH  36  39
ATOM     39  C   UNL A   1      36.936  23.693  25.035  1.00  0.00    -0.036 C 
ATOM     40  H   UNL A   1      36.078  24.278  24.777  1.00  0.00     0.028 H 
ATOM     41  H   UNL A   1      37.772  23.885  24.395  1.00  0.00     0.028 H 
BRANCH  39  42
ATOM     42  C   UNL A   1      37.365  24.067  26.448  1.00  0.00     0.018 C 
ATOM     43  H   UNL A   1      36.652  23.675  27.143  1.00  0.00     0.049 H 
ATOM     44  H   UNL A   1      37.414  25.133  26.512  1.00  0.00     0.049 H 
BRANCH  42  45
ATOM     45  N   UNL A   1      38.684  23.528  26.767  1.00  0.00    -0.352 N 
ATOM     46  C   UNL A   1      39.801  24.171  27.249  1.00  0.00     0.251 C 
ATOM     47  H   UNL A   1      38.791  22.562  26.614  1.00  0.00     0.163 HD
ATOM     48  O   UNL A   1      40.896  23.640  27.209  1.00  0.00    -0.269 OA
BRANCH  46  49
ATOM     49  C   UNL A   1      39.665  25.540  27.775  1.00  0.00     0.039 A 
ATOM     50  C   UNL A   1      39.194  25.705  29.081  1.00  0.00    -0.049 A 
ATOM     51  C   UNL A   1      40.024  26.637  26.988  1.00  0.00    -0.049 A 
ATOM     52  C   UNL A   1      39.185  26.975  29.637  1.00  0.00    -0.053 A 
ATOM     53  H   UNL A   1      38.856  24.894  29.622  1.00  0.00     0.063 H 
ATOM     54  C   UNL A   1      40.071  27.898  27.558  1.00  0.00    -0.053 A 
ATOM     55  H   UNL A   1      40.254  26.509  25.990  1.00  0.00     0.063 H 
ATOM     56  C   UNL A   1      39.670  28.058  28.888  1.00  0.00    -0.014 A 
ATOM     57  H   UNL A   1      38.825  27.123  30.593  1.00  0.00     0.063 H 
ATOM     58  H   UNL A   1      40.395  28.709  27.008  1.00  0.00     0.063 H 
BRANCH  56  59
ATOM     59  C   UNL A   1      39.866  29.352  29.569  1.00  0.00     0.031 A 
ATOM     60  C   UNL A   1      38.625  30.253  29.466  1.00  0.00     0.074 A 
ATOM     61  C   UNL A   1      41.094  29.539  30.137  1.00  0.00     0.049 A 
ATOM     62  N   UNL A   1      38.529  31.547  29.461  1.00  0.00    -0.248 NA
ATOM     63  C   UNL A   1      37.289  29.621  29.272  1.00  0.00    -0.034 C 
ATOM     64  C   UNL A   1      42.154  28.511  30.169  1.00  0.00    -0.036 A 
ATOM     65  N   UNL A   1      41.711  30.589  30.785  1.00  0.00    -0.354 N 
ATOM     66  C   UNL A   1      37.155  31.880  29.436  1.00  0.00     0.074 A 
ATOM     67  C   UNL A   1      36.449  30.657  29.207  1.00  0.00    -0.034 C 
ATOM     68  H   UNL A   1      37.067  28.616  29.204  1.00  0.00     0.065 H 
ATOM     69  C   UNL A   1      43.283  29.002  30.715  1.00  0.00    -0.036 A 
ATOM     70  H   UNL A   1      42.045  27.548  29.818  1.00  0.00     0.065 H 
ATOM     71  C   UNL A   1      43.083  30.385  31.089  1.00  0.00     0.049 A 
ATOM     72  H   UNL A   1      41.235  31.419  31.020  1.00  0.00     0.167 HD
ATOM     73  C   UNL A   1      36.688  33.132  29.731  1.00  0.00     0.037 A 
ATOM     74  H   UNL A   1      35.437  30.586  29.019  1.00  0.00     0.065 H 
ATOM     75  H   UNL A   1      44.159  28.470  30.846  1.00  0.00     0.065 H 
ATOM     76  C   UNL A   1      44.011  31.282  31.545  1.00  0.00     0.037 A 
ATOM     77  C   UNL A   1      37.781  34.000  30.012  1.00  0.00     0.049 A 
ATOM     78  C   UNL A   1      43.255  32.515  31.821  1.00  0.00     0.074 A 
ATOM     79  C   UNL A   1      38.724  34.581  29.207  1.00  0.00    -0.036 A 
ATOM     80  N   UNL A   1      38.205  34.059  31.317  1.00  0.00    -0.354 N 
ATOM     81  N   UNL A   1      42.422  32.672  32.808  1.00  0.00    -0.248 NA
ATOM     82  C   UNL A   1      43.335  33.616  30.853  1.00  0.00    -0.034 C 
ATOM     83  C   UNL A   1      39.894  34.540  29.993  1.00  0.00    -0.036 A 
ATOM     84  H   UNL A   1      38.606  34.959  28.254  1.00  0.00     0.065 H 
ATOM     85  C   UNL A   1      39.575  34.143  31.296  1.00  0.00     0.049 A 
ATOM     86  H   UNL A   1      37.633  34.043  32.118  1.00  0.00     0.167 HD
ATOM     87  C   UNL A   1      41.660  33.735  32.380  1.00  0.00     0.074 A 
ATOM     88  C   UNL A   1      42.440  34.439  31.389  1.00  0.00    -0.034 C 
ATOM     89  H   UNL A   1      43.915  33.721  30.007  1.00  0.00     0.065 H 
ATOM     90  H   UNL A   1      40.842  34.769  29.657  1.00  0.00     0.065 H 
ATOM     91  C   UNL A   1      40.307  33.654  32.439  1.00  0.00     0.037 A 
ATOM     92  H   UNL A   1      42.318  35.432  31.135  1.00  0.00     0.065 H 
BRANCH  73  93
ATOM     93  C   UNL A   1      35.312  33.670  30.023  1.00  0.00     0.064 A 
ATOM     94  C   UNL A   1      34.772  33.757  31.311  1.00  0.00     0.173 A 
ATOM     95  C   UNL A   1      34.666  34.442  29.023  1.00  0.00     0.173 A 
ATOM     96  F   UNL A   1      35.313  33.086  32.335  1.00  0.00    -0.203 F 
ATOM     97  C   UNL A   1      33.712  34.626  31.598  1.00  0.00     0.198 A 
ATOM     98  C   UNL A   1      33.644  35.342  29.322  1.00  0.00     0.198 A 
ATOM     99  F   UNL A   1      35.074  34.393  27.745  1.00  0.00    -0.203 F 
ATOM    100  F   UNL A   1      33.256  34.721  32.856  1.00  0.00    -0.200 F 
ATOM    101  C   UNL A   1      33.179  35.446  30.617  1.00  0.00     0.200 A 
ATOM    102  F   UNL A   1      33.161  36.150  28.367  1.00  0.00    -0.200 F 
ATOM    103  F   UNL A   1      32.245  36.357  30.927  1.00  0.00    -0.200 F 
ENDBRANCH  73  93
BRANCH  76 104
ATOM    104  C   UNL A   1      45.521  31.344  31.662  1.00  0.00     0.064 A 
ATOM    105  C   UNL A   1      46.327  31.209  30.495  1.00  0.00     0.173 A 
ATOM    106  C   UNL A   1      46.259  31.426  32.850  1.00  0.00     0.173 A 
ATOM    107  F   UNL A   1      45.805  31.302  29.266  1.00  0.00    -0.203 F 
ATOM    108  C   UNL A   1      47.700  30.964  30.530  1.00  0.00     0.198 A 
ATOM    109  C   UNL A   1      47.652  31.226  32.884  1.00  0.00     0.198 A 
ATOM    110  F   UNL A   1      45.677  31.728  34.013  1.00  0.00    -0.203 F 
ATOM    111  F   UNL A   1      48.360  30.722  29.388  1.00  0.00    -0.200 F 
ATOM    112  C   UNL A   1      48.363  30.947  31.732  1.00  0.00     0.200 A 
ATOM    113  F   UNL A   1      48.302  31.290  34.055  1.00  0.00    -0.200 F 
ATOM    114  F   UNL A   1      49.675  30.685  31.778  1.00  0.00    -0.200 F 
ENDBRANCH  76 104
BRANCH  91 115
ATOM    115  C   UNL A   1      39.788  32.709  33.503  1.00  0.00     0.064 A 
ATOM    116  C   UNL A   1      39.823  32.977  34.881  1.00  0.00     0.173 A 
ATOM    117  C   UNL A   1      39.131  31.530  33.124  1.00  0.00     0.173 A 
ATOM    118  F   UNL A   1      40.425  34.070  35.345  1.00  0.00    -0.203 F 
ATOM    119  C   UNL A   1      39.243  32.129  35.826  1.00  0.00     0.198 A 
ATOM    120  C   UNL A   1      38.541  30.680  34.065  1.00  0.00     0.198 A 
ATOM    121  F   UNL A   1      39.064  31.190  31.827  1.00  0.00    -0.203 F 
ATOM    122  F   UNL A   1      39.319  32.426  37.133  1.00  0.00    -0.200 F 
ATOM    123  C   UNL A   1      38.597  30.981  35.416  1.00  0.00     0.200 A 
ATOM    124  F   UNL A   1      37.924  29.562  33.659  1.00  0.00    -0.200 F 
ATOM    125  F   UNL A   1      38.045  30.157  36.320  1.00  0.00    -0.200 F 
ENDBRANCH  91 115
ENDBRANCH  56  59
ENDBRANCH  46  49
ENDBRANCH  42  45
ENDBRANCH  39  42
ENDBRANCH  36  39
ENDBRANCH   1  36
TORSDOF 15
ENDMDL
MODEL 5
REMARK VINA RESULT:     -11.8      3.882      6.089
REMARK SMILES O=C(Cc1cccn1-c1ccccc1F)NCCCCCCNC(=O)c1ccc(-c2c3nc(c(-c4c(F)c(F)c(F)c(F)c4F)c4ccc([nH]4)c(-c4c(F)c(F)c(F)c(F)c4F)c4nc(c(-c5c(F)c(F)c(F)c(F)c5F)c5ccc2[nH]5)C=C4)C=C3)cc1
REMARK SMILES IDX 19 1 18 4 17 7 16 10 1 11 2 12 3 14 4 17 5 18 8 19 6 20 7 22
REMARK SMILES IDX 9 25 10 26 14 27 11 28 13 30 15 31 12 32 20 36 21 39 22 42
REMARK SMILES IDX 23 45 24 46 25 48 26 49 27 50 88 51 28 52 87 54 29 56 30 59
REMARK SMILES IDX 31 60 81 61 32 62 86 63 80 64 82 65 33 66 85 67 79 69 78 71
REMARK SMILES IDX 34 73 66 76 46 77 65 78 47 79 50 80 64 81 83 82 48 83 49 85
REMARK SMILES IDX 63 87 84 88 51 91 35 93 36 94 44 95 37 96 38 97 42 98 45 99
REMARK SMILES IDX 39 100 40 101 43 102 41 103 67 104 68 105 76 106 69 107
REMARK SMILES IDX 70 108 74 109 77 110 71 111 72 112 75 113 73 114 52 115
REMARK SMILES IDX 53 116 61 117 54 118 55 119 59 120 62 121 56 122 57 123
REMARK SMILES IDX 60 124 58 125
REMARK H PARENT 19 2 19 3 18 5 18 6 17 8 17 9 16 13 3 15 3 16 5 21 6 23 7 24
REMARK H PARENT 10 29 11 33 13 34 12 35 20 37 20 38 21 40 21 41 22 43 22 44
REMARK H PARENT 23 47 27 53 88 55 28 57 87 58 86 68 80 70 82 72 85 74 79 75
REMARK H PARENT 47 84 50 86 83 89 48 90 84 92
REMARK Flexibility Score: inf
ROOT
ATOM      1  C   UNL A   1      31.828  29.549  27.012  1.00  0.00    -0.052 C 
ATOM      2  H   UNL A   1      32.002  29.921  27.999  1.00  0.00     0.027 H 
ATOM      3  H   UNL A   1      30.921  28.995  26.882  1.00  0.00     0.027 H 
ENDROOT
BRANCH   1   4
ATOM      4  C   UNL A   1      32.945  28.544  26.696  1.00  0.00    -0.036 C 
ATOM      5  H   UNL A   1      33.645  28.578  27.505  1.00  0.00     0.028 H 
ATOM      6  H   UNL A   1      32.445  27.607  26.568  1.00  0.00     0.028 H 
BRANCH   4   7
ATOM      7  C   UNL A   1      33.731  28.753  25.398  1.00  0.00     0.017 C 
ATOM      8  H   UNL A   1      33.322  29.601  24.890  1.00  0.00     0.049 H 
ATOM      9  H   UNL A   1      34.755  28.892  25.676  1.00  0.00     0.049 H 
BRANCH   7  10
ATOM     10  N   UNL A   1      33.693  27.618  24.494  1.00  0.00    -0.356 N 
ATOM     11  O   UNL A   1      33.040  28.845  22.660  1.00  0.00    -0.275 OA
ATOM     12  C   UNL A   1      33.374  27.770  23.152  1.00  0.00     0.225 C 
ATOM     13  H   UNL A   1      33.898  26.720  24.840  1.00  0.00     0.163 HD
BRANCH  12  14
ATOM     14  C   UNL A   1      33.468  26.486  22.338  1.00  0.00     0.067 C 
ATOM     15  H   UNL A   1      34.499  26.205  22.287  1.00  0.00     0.043 H 
ATOM     16  H   UNL A   1      33.032  26.711  21.387  1.00  0.00     0.043 H 
BRANCH  14  17
ATOM     17  C   UNL A   1      32.694  25.311  22.877  1.00  0.00     0.032 A 
ATOM     18  C   UNL A   1      31.310  25.185  22.924  1.00  0.00    -0.040 A 
ATOM     19  N   UNL A   1      33.219  24.162  23.446  1.00  0.00    -0.318 N 
ATOM     20  C   UNL A   1      30.993  23.945  23.520  1.00  0.00    -0.044 A 
ATOM     21  H   UNL A   1      30.630  25.880  22.581  1.00  0.00     0.064 H 
ATOM     22  C   UNL A   1      32.183  23.319  23.792  1.00  0.00     0.009 A 
ATOM     23  H   UNL A   1      30.046  23.580  23.713  1.00  0.00     0.064 H 
ATOM     24  H   UNL A   1      32.286  22.373  24.191  1.00  0.00     0.082 H 
BRANCH  19  25
ATOM     25  C   UNL A   1      34.529  23.922  23.884  1.00  0.00     0.081 A 
ATOM     26  C   UNL A   1      35.420  23.213  23.074  1.00  0.00    -0.035 A 
ATOM     27  C   UNL A   1      34.861  24.264  25.189  1.00  0.00     0.147 A 
ATOM     28  C   UNL A   1      36.682  22.895  23.577  1.00  0.00    -0.060 A 
ATOM     29  H   UNL A   1      35.149  22.930  22.119  1.00  0.00     0.065 H 
ATOM     30  C   UNL A   1      36.083  23.871  25.712  1.00  0.00    -0.024 A 
ATOM     31  F   UNL A   1      34.015  24.959  25.963  1.00  0.00    -0.205 F 
ATOM     32  C   UNL A   1      37.009  23.214  24.897  1.00  0.00    -0.059 A 
ATOM     33  H   UNL A   1      37.374  22.425  22.973  1.00  0.00     0.062 H 
ATOM     34  H   UNL A   1      36.308  24.062  26.700  1.00  0.00     0.065 H 
ATOM     35  H   UNL A   1      37.938  22.963  25.273  1.00  0.00     0.062 H 
ENDBRANCH  19  25
ENDBRANCH  14  17
ENDBRANCH  12  14
ENDBRANCH   7  10
ENDBRANCH   4   7
ENDBRANCH   1   4
BRANCH   1  36
ATOM     36  C   UNL A   1      31.680  30.758  26.086  1.00  0.00    -0.052 C 
ATOM     37  H   UNL A   1      30.868  30.545  25.422  1.00  0.00     0.027 H 
ATOM     38  H   UNL A   1      32.648  30.861  25.643  1.00  0.00     0.027 H 
BRANCH  36  39
ATOM     39  C   UNL A   1      31.409  32.136  26.699  1.00  0.00    -0.036 C 
ATOM     40  H   UNL A   1      30.671  32.024  27.466  1.00  0.00     0.028 H 
ATOM     41  H   UNL A   1      31.082  32.772  25.904  1.00  0.00     0.028 H 
BRANCH  39  42
ATOM     42  C   UNL A   1      32.641  32.791  27.312  1.00  0.00     0.018 C 
ATOM     43  H   UNL A   1      33.451  32.728  26.615  1.00  0.00     0.049 H 
ATOM     44  H   UNL A   1      32.878  32.276  28.219  1.00  0.00     0.049 H 
BRANCH  42  45
ATOM     45  N   UNL A   1      32.397  34.194  27.631  1.00  0.00    -0.352 N 
ATOM     46  C   UNL A   1      32.970  34.986  28.600  1.00  0.00     0.251 C 
ATOM     47  H   UNL A   1      31.724  34.641  27.070  1.00  0.00     0.163 HD
ATOM     48  O   UNL A   1      32.472  36.051  28.913  1.00  0.00    -0.269 OA
BRANCH  46  49
ATOM     49  C   UNL A   1      34.176  34.503  29.294  1.00  0.00     0.039 A 
ATOM     50  C   UNL A   1      34.018  33.824  30.506  1.00  0.00    -0.049 A 
ATOM     51  C   UNL A   1      35.440  34.702  28.733  1.00  0.00    -0.049 A 
ATOM     52  C   UNL A   1      35.128  33.248  31.105  1.00  0.00    -0.053 A 
ATOM     53  H   UNL A   1      33.089  33.753  30.949  1.00  0.00     0.063 H 
ATOM     54  C   UNL A   1      36.541  34.081  29.297  1.00  0.00    -0.053 A 
ATOM     55  H   UNL A   1      35.552  35.308  27.905  1.00  0.00     0.063 H 
ATOM     56  C   UNL A   1      36.376  33.338  30.471  1.00  0.00    -0.014 A 
ATOM     57  H   UNL A   1      35.037  32.757  32.007  1.00  0.00     0.063 H 
ATOM     58  H   UNL A   1      37.472  34.166  28.858  1.00  0.00     0.063 H 
BRANCH  56  59
ATOM     59  C   UNL A   1      37.493  32.532  30.998  1.00  0.00     0.031 A 
ATOM     60  C   UNL A   1      37.757  31.282  30.143  1.00  0.00     0.074 A 
ATOM     61  C   UNL A   1      38.073  33.002  32.141  1.00  0.00     0.049 A 
ATOM     62  N   UNL A   1      38.244  30.127  30.478  1.00  0.00    -0.248 NA
ATOM     63  C   UNL A   1      37.357  31.293  28.707  1.00  0.00    -0.034 C 
ATOM     64  C   UNL A   1      37.698  34.274  32.794  1.00  0.00    -0.036 A 
ATOM     65  N   UNL A   1      39.062  32.543  32.985  1.00  0.00    -0.354 N 
ATOM     66  C   UNL A   1      38.367  29.350  29.303  1.00  0.00     0.074 A 
ATOM     67  C   UNL A   1      37.701  30.079  28.268  1.00  0.00    -0.034 C 
ATOM     68  H   UNL A   1      36.915  32.060  28.177  1.00  0.00     0.065 H 
ATOM     69  C   UNL A   1      38.373  34.440  33.946  1.00  0.00    -0.036 A 
ATOM     70  H   UNL A   1      37.010  34.943  32.417  1.00  0.00     0.065 H 
ATOM     71  C   UNL A   1      39.247  33.308  34.168  1.00  0.00     0.049 A 
ATOM     72  H   UNL A   1      39.600  31.743  32.784  1.00  0.00     0.167 HD
ATOM     73  C   UNL A   1      39.120  28.209  29.240  1.00  0.00     0.037 A 
ATOM     74  H   UNL A   1      37.514  29.720  27.319  1.00  0.00     0.065 H 
ATOM     75  H   UNL A   1      38.282  35.253  34.577  1.00  0.00     0.065 H 
ATOM     76  C   UNL A   1      39.996  33.020  35.277  1.00  0.00     0.037 A 
ATOM     77  C   UNL A   1      39.694  27.941  30.515  1.00  0.00     0.049 A 
ATOM     78  C   UNL A   1      40.729  31.788  34.940  1.00  0.00     0.074 A 
ATOM     79  C   UNL A   1      39.157  27.478  31.686  1.00  0.00    -0.036 A 
ATOM     80  N   UNL A   1      40.918  28.508  30.776  1.00  0.00    -0.354 N 
ATOM     81  N   UNL A   1      41.714  31.716  34.092  1.00  0.00    -0.248 NA
ATOM     82  C   UNL A   1      40.250  30.515  35.492  1.00  0.00    -0.034 C 
ATOM     83  C   UNL A   1      39.851  28.205  32.675  1.00  0.00    -0.036 A 
ATOM     84  H   UNL A   1      38.420  26.767  31.815  1.00  0.00     0.065 H 
ATOM     85  C   UNL A   1      40.911  28.905  32.089  1.00  0.00     0.049 A 
ATOM     86  H   UNL A   1      41.662  28.610  30.138  1.00  0.00     0.167 HD
ATOM     87  C   UNL A   1      41.730  30.377  33.779  1.00  0.00     0.074 A 
ATOM     88  C   UNL A   1      41.069  29.683  34.859  1.00  0.00    -0.034 C 
ATOM     89  H   UNL A   1      39.498  30.322  36.172  1.00  0.00     0.065 H 
ATOM     90  H   UNL A   1      39.614  28.216  33.679  1.00  0.00     0.065 H 
ATOM     91  C   UNL A   1      41.774  29.996  32.477  1.00  0.00     0.037 A 
ATOM     92  H   UNL A   1      41.213  28.690  35.102  1.00  0.00     0.065 H 
BRANCH  73  93
ATOM     93  C   UNL A   1      39.613  27.369  28.092  1.00  0.00     0.064 A 
ATOM     94  C   UNL A   1      40.378  27.874  27.035  1.00  0.00     0.173 A 
ATOM     95  C   UNL A   1      39.618  25.958  28.245  1.00  0.00     0.173 A 
ATOM     96  F   UNL A   1      40.461  29.191  26.809  1.00  0.00    -0.203 F 
ATOM     97  C   UNL A   1      41.165  27.033  26.238  1.00  0.00     0.198 A 
ATOM     98  C   UNL A   1      40.439  25.129  27.482  1.00  0.00     0.198 A 
ATOM     99  F   UNL A   1      38.880  25.366  29.198  1.00  0.00    -0.203 F 
ATOM    100  F   UNL A   1      41.925  27.561  25.268  1.00  0.00    -0.200 F 
ATOM    101  C   UNL A   1      41.228  25.672  26.488  1.00  0.00     0.200 A 
ATOM    102  F   UNL A   1      40.512  23.819  27.759  1.00  0.00    -0.200 F 
ATOM    103  F   UNL A   1      42.072  24.893  25.797  1.00  0.00    -0.200 F 
ENDBRANCH  73  93
BRANCH  76 104
ATOM    104  C   UNL A   1      40.107  33.535  36.698  1.00  0.00     0.064 A 
ATOM    105  C   UNL A   1      39.032  33.331  37.610  1.00  0.00     0.173 A 
ATOM    106  C   UNL A   1      41.149  34.311  37.221  1.00  0.00     0.173 A 
ATOM    107  F   UNL A   1      38.043  32.466  37.349  1.00  0.00    -0.203 F 
ATOM    108  C   UNL A   1      38.913  34.004  38.827  1.00  0.00     0.198 A 
ATOM    109  C   UNL A   1      41.054  34.955  38.469  1.00  0.00     0.198 A 
ATOM    110  F   UNL A   1      42.306  34.456  36.569  1.00  0.00    -0.203 F 
ATOM    111  F   UNL A   1      37.806  33.848  39.566  1.00  0.00    -0.200 F 
ATOM    112  C   UNL A   1      39.917  34.840  39.247  1.00  0.00     0.200 A 
ATOM    113  F   UNL A   1      42.074  35.707  38.906  1.00  0.00    -0.200 F 
ATOM    114  F   UNL A   1      39.799  35.513  40.399  1.00  0.00    -0.200 F 
ENDBRANCH  76 104
BRANCH  91 115
ATOM    115  C   UNL A   1      42.407  31.014  31.553  1.00  0.00     0.064 A 
ATOM    116  C   UNL A   1      41.683  31.926  30.768  1.00  0.00     0.173 A 
ATOM    117  C   UNL A   1      43.803  31.157  31.529  1.00  0.00     0.173 A 
ATOM    118  F   UNL A   1      40.354  31.874  30.720  1.00  0.00    -0.203 F 
ATOM    119  C   UNL A   1      42.302  32.919  30.006  1.00  0.00     0.198 A 
ATOM    120  C   UNL A   1      44.428  32.154  30.774  1.00  0.00     0.198 A 
ATOM    121  F   UNL A   1      44.572  30.317  32.239  1.00  0.00    -0.203 F 
ATOM    122  F   UNL A   1      41.561  33.755  29.261  1.00  0.00    -0.200 F 
ATOM    123  C   UNL A   1      43.677  33.035  30.013  1.00  0.00     0.200 A 
ATOM    124  F   UNL A   1      45.764  32.254  30.778  1.00  0.00    -0.200 F 
ATOM    125  F   UNL A   1      44.278  33.981  29.276  1.00  0.00    -0.200 F 
ENDBRANCH  91 115
ENDBRANCH  56  59
ENDBRANCH  46  49
ENDBRANCH  42  45
ENDBRANCH  39  42
ENDBRANCH  36  39
ENDBRANCH   1  36
TORSDOF 15
ENDMDL
MODEL 6
REMARK VINA RESULT:     -11.8      4.294      9.429
REMARK SMILES O=C(Cc1cccn1-c1ccccc1F)NCCCCCCNC(=O)c1ccc(-c2c3nc(c(-c4c(F)c(F)c(F)c(F)c4F)c4ccc([nH]4)c(-c4c(F)c(F)c(F)c(F)c4F)c4nc(c(-c5c(F)c(F)c(F)c(F)c5F)c5ccc2[nH]5)C=C4)C=C3)cc1
REMARK SMILES IDX 19 1 18 4 17 7 16 10 1 11 2 12 3 14 4 17 5 18 8 19 6 20 7 22
REMARK SMILES IDX 9 25 10 26 14 27 11 28 13 30 15 31 12 32 20 36 21 39 22 42
REMARK SMILES IDX 23 45 24 46 25 48 26 49 27 50 88 51 28 52 87 54 29 56 30 59
REMARK SMILES IDX 31 60 81 61 32 62 86 63 80 64 82 65 33 66 85 67 79 69 78 71
REMARK SMILES IDX 34 73 66 76 46 77 65 78 47 79 50 80 64 81 83 82 48 83 49 85
REMARK SMILES IDX 63 87 84 88 51 91 35 93 36 94 44 95 37 96 38 97 42 98 45 99
REMARK SMILES IDX 39 100 40 101 43 102 41 103 67 104 68 105 76 106 69 107
REMARK SMILES IDX 70 108 74 109 77 110 71 111 72 112 75 113 73 114 52 115
REMARK SMILES IDX 53 116 61 117 54 118 55 119 59 120 62 121 56 122 57 123
REMARK SMILES IDX 60 124 58 125
REMARK H PARENT 19 2 19 3 18 5 18 6 17 8 17 9 16 13 3 15 3 16 5 21 6 23 7 24
REMARK H PARENT 10 29 11 33 13 34 12 35 20 37 20 38 21 40 21 41 22 43 22 44
REMARK H PARENT 23 47 27 53 88 55 28 57 87 58 86 68 80 70 82 72 85 74 79 75
REMARK H PARENT 47 84 50 86 83 89 48 90 84 92
REMARK Flexibility Score: inf
ROOT
ATOM      1  C   UNL A   1      34.797  21.545  24.772  1.00  0.00    -0.052 C 
ATOM      2  H   UNL A   1      35.404  21.405  23.902  1.00  0.00     0.027 H 
ATOM      3  H   UNL A   1      34.605  20.662  25.345  1.00  0.00     0.027 H 
ENDROOT
BRANCH   1   4
ATOM      4  C   UNL A   1      33.414  22.009  24.296  1.00  0.00    -0.036 C 
ATOM      5  H   UNL A   1      33.539  22.961  23.823  1.00  0.00     0.028 H 
ATOM      6  H   UNL A   1      33.066  21.226  23.655  1.00  0.00     0.028 H 
BRANCH   4   7
ATOM      7  C   UNL A   1      32.321  22.163  25.360  1.00  0.00     0.017 C 
ATOM      8  H   UNL A   1      31.629  21.355  25.250  1.00  0.00     0.049 H 
ATOM      9  H   UNL A   1      32.813  22.161  26.310  1.00  0.00     0.049 H 
BRANCH   7  10
ATOM     10  N   UNL A   1      31.584  23.410  25.273  1.00  0.00    -0.356 N 
ATOM     11  O   UNL A   1      31.446  23.719  27.550  1.00  0.00    -0.275 OA
ATOM     12  C   UNL A   1      31.227  24.123  26.410  1.00  0.00     0.225 C 
ATOM     13  H   UNL A   1      31.331  23.760  24.389  1.00  0.00     0.163 HD
BRANCH  12  14
ATOM     14  C   UNL A   1      30.535  25.450  26.125  1.00  0.00     0.067 C 
ATOM     15  H   UNL A   1      29.733  25.558  26.825  1.00  0.00     0.043 H 
ATOM     16  H   UNL A   1      30.218  25.399  25.105  1.00  0.00     0.043 H 
BRANCH  14  17
ATOM     17  C   UNL A   1      31.405  26.675  26.224  1.00  0.00     0.032 A 
ATOM     18  C   UNL A   1      31.402  27.611  27.253  1.00  0.00    -0.040 A 
ATOM     19  N   UNL A   1      32.343  27.105  25.298  1.00  0.00    -0.318 N 
ATOM     20  C   UNL A   1      32.351  28.612  26.953  1.00  0.00    -0.044 A 
ATOM     21  H   UNL A   1      30.806  27.579  28.094  1.00  0.00     0.064 H 
ATOM     22  C   UNL A   1      32.944  28.255  25.768  1.00  0.00     0.009 A 
ATOM     23  H   UNL A   1      32.558  29.452  27.516  1.00  0.00     0.064 H 
ATOM     24  H   UNL A   1      33.713  28.763  25.304  1.00  0.00     0.082 H 
BRANCH  19  25
ATOM     25  C   UNL A   1      32.528  26.676  23.976  1.00  0.00     0.081 A 
ATOM     26  C   UNL A   1      31.596  27.019  22.992  1.00  0.00    -0.035 A 
ATOM     27  C   UNL A   1      33.560  25.786  23.710  1.00  0.00     0.147 A 
ATOM     28  C   UNL A   1      31.747  26.491  21.709  1.00  0.00    -0.060 A 
ATOM     29  H   UNL A   1      30.811  27.651  23.210  1.00  0.00     0.065 H 
ATOM     30  C   UNL A   1      33.654  25.198  22.458  1.00  0.00    -0.024 A 
ATOM     31  F   UNL A   1      34.464  25.468  24.647  1.00  0.00    -0.205 F 
ATOM     32  C   UNL A   1      32.767  25.574  21.445  1.00  0.00    -0.059 A 
ATOM     33  H   UNL A   1      31.105  26.778  20.954  1.00  0.00     0.062 H 
ATOM     34  H   UNL A   1      34.376  24.485  22.275  1.00  0.00     0.065 H 
ATOM     35  H   UNL A   1      32.867  25.172  20.499  1.00  0.00     0.062 H 
ENDBRANCH  19  25
ENDBRANCH  14  17
ENDBRANCH  12  14
ENDBRANCH   7  10
ENDBRANCH   4   7
ENDBRANCH   1   4
BRANCH   1  36
ATOM     36  C   UNL A   1      35.565  22.465  25.723  1.00  0.00    -0.052 C 
ATOM     37  H   UNL A   1      35.924  21.855  26.526  1.00  0.00     0.027 H 
ATOM     38  H   UNL A   1      34.854  23.223  25.977  1.00  0.00     0.027 H 
BRANCH  36  39
ATOM     39  C   UNL A   1      36.765  23.255  25.188  1.00  0.00    -0.036 C 
ATOM     40  H   UNL A   1      36.427  23.879  24.387  1.00  0.00     0.028 H 
ATOM     41  H   UNL A   1      37.493  22.537  24.871  1.00  0.00     0.028 H 
BRANCH  39  42
ATOM     42  C   UNL A   1      37.438  24.136  26.233  1.00  0.00     0.018 C 
ATOM     43  H   UNL A   1      36.774  24.260  27.063  1.00  0.00     0.049 H 
ATOM     44  H   UNL A   1      37.662  25.080  25.780  1.00  0.00     0.049 H 
BRANCH  42  45
ATOM     45  N   UNL A   1      38.686  23.547  26.706  1.00  0.00    -0.352 N 
ATOM     46  C   UNL A   1      39.761  24.146  27.323  1.00  0.00     0.251 C 
ATOM     47  H   UNL A   1      38.773  22.578  26.562  1.00  0.00     0.163 HD
ATOM     48  O   UNL A   1      40.830  23.572  27.413  1.00  0.00    -0.269 OA
BRANCH  46  49
ATOM     49  C   UNL A   1      39.614  25.519  27.836  1.00  0.00     0.039 A 
ATOM     50  C   UNL A   1      39.087  25.696  29.118  1.00  0.00    -0.049 A 
ATOM     51  C   UNL A   1      40.019  26.608  27.060  1.00  0.00    -0.049 A 
ATOM     52  C   UNL A   1      39.066  26.969  29.667  1.00  0.00    -0.053 A 
ATOM     53  H   UNL A   1      38.718  24.891  29.649  1.00  0.00     0.063 H 
ATOM     54  C   UNL A   1      40.052  27.871  27.624  1.00  0.00    -0.053 A 
ATOM     55  H   UNL A   1      40.291  26.472  26.073  1.00  0.00     0.063 H 
ATOM     56  C   UNL A   1      39.594  28.043  28.935  1.00  0.00    -0.014 A 
ATOM     57  H   UNL A   1      38.666  27.126  30.605  1.00  0.00     0.063 H 
ATOM     58  H   UNL A   1      40.409  28.676  27.085  1.00  0.00     0.063 H 
BRANCH  56  59
ATOM     59  C   UNL A   1      39.773  29.339  29.617  1.00  0.00     0.031 A 
ATOM     60  C   UNL A   1      38.547  30.252  29.453  1.00  0.00     0.074 A 
ATOM     61  C   UNL A   1      40.975  29.517  30.240  1.00  0.00     0.049 A 
ATOM     62  N   UNL A   1      38.466  31.547  29.436  1.00  0.00    -0.248 NA
ATOM     63  C   UNL A   1      37.216  29.633  29.201  1.00  0.00    -0.034 C 
ATOM     64  C   UNL A   1      42.022  28.478  30.326  1.00  0.00    -0.036 A 
ATOM     65  N   UNL A   1      41.573  30.564  30.910  1.00  0.00    -0.354 N 
ATOM     66  C   UNL A   1      37.098  31.894  29.346  1.00  0.00     0.074 A 
ATOM     67  C   UNL A   1      36.390  30.677  29.091  1.00  0.00    -0.034 C 
ATOM     68  H   UNL A   1      36.986  28.629  29.127  1.00  0.00     0.065 H 
ATOM     69  C   UNL A   1      43.130  28.960  30.921  1.00  0.00    -0.036 A 
ATOM     70  H   UNL A   1      41.919  27.513  29.976  1.00  0.00     0.065 H 
ATOM     71  C   UNL A   1      42.928  30.347  31.278  1.00  0.00     0.049 A 
ATOM     72  H   UNL A   1      41.096  31.400  31.118  1.00  0.00     0.167 HD
ATOM     73  C   UNL A   1      36.631  33.153  29.612  1.00  0.00     0.037 A 
ATOM     74  H   UNL A   1      35.387  30.615  28.857  1.00  0.00     0.065 H 
ATOM     75  H   UNL A   1      43.993  28.420  31.095  1.00  0.00     0.065 H 
ATOM     76  C   UNL A   1      43.843  31.237  31.771  1.00  0.00     0.037 A 
ATOM     77  C   UNL A   1      37.719  34.011  29.939  1.00  0.00     0.049 A 
ATOM     78  C   UNL A   1      43.088  32.480  32.006  1.00  0.00     0.074 A 
ATOM     79  C   UNL A   1      38.704  34.578  29.175  1.00  0.00    -0.036 A 
ATOM     80  N   UNL A   1      38.084  34.073  31.262  1.00  0.00    -0.354 N 
ATOM     81  N   UNL A   1      42.213  32.652  32.953  1.00  0.00    -0.248 NA
ATOM     82  C   UNL A   1      43.224  33.575  31.037  1.00  0.00    -0.034 C 
ATOM     83  C   UNL A   1      39.836  34.529  30.014  1.00  0.00    -0.036 A 
ATOM     84  H   UNL A   1      38.634  34.951  28.216  1.00  0.00     0.065 H 
ATOM     85  C   UNL A   1      39.453  34.143  31.303  1.00  0.00     0.049 A 
ATOM     86  H   UNL A   1      37.475  34.068  32.036  1.00  0.00     0.167 HD
ATOM     87  C   UNL A   1      41.482  33.719  32.484  1.00  0.00     0.074 A 
ATOM     88  C   UNL A   1      42.314  34.410  31.526  1.00  0.00    -0.034 C 
ATOM     89  H   UNL A   1      43.844  33.668  30.217  1.00  0.00     0.065 H 
ATOM     90  H   UNL A   1      40.802  34.746  29.720  1.00  0.00     0.065 H 
ATOM     91  C   UNL A   1      40.127  33.652  32.481  1.00  0.00     0.037 A 
ATOM     92  H   UNL A   1      42.215  35.403  31.261  1.00  0.00     0.065 H 
BRANCH  73  93
ATOM     93  C   UNL A   1      35.249  33.706  29.837  1.00  0.00     0.064 A 
ATOM     94  C   UNL A   1      34.635  33.769  31.094  1.00  0.00     0.173 A 
ATOM     95  C   UNL A   1      34.674  34.515  28.823  1.00  0.00     0.173 A 
ATOM     96  F   UNL A   1      35.105  33.063  32.130  1.00  0.00    -0.203 F 
ATOM     97  C   UNL A   1      33.574  34.650  31.342  1.00  0.00     0.198 A 
ATOM     98  C   UNL A   1      33.651  35.424  29.085  1.00  0.00     0.198 A 
ATOM     99  F   UNL A   1      35.156  34.491  27.569  1.00  0.00    -0.203 F 
ATOM    100  F   UNL A   1      33.047  34.720  32.573  1.00  0.00    -0.200 F 
ATOM    101  C   UNL A   1      33.112  35.503  30.353  1.00  0.00     0.200 A 
ATOM    102  F   UNL A   1      33.238  36.264  28.125  1.00  0.00    -0.200 F 
ATOM    103  F   UNL A   1      32.177  36.421  30.632  1.00  0.00    -0.200 F 
ENDBRANCH  73  93
BRANCH  76 104
ATOM    104  C   UNL A   1      45.346  31.285  31.958  1.00  0.00     0.064 A 
ATOM    105  C   UNL A   1      46.199  31.320  30.817  1.00  0.00     0.173 A 
ATOM    106  C   UNL A   1      46.036  31.196  33.173  1.00  0.00     0.173 A 
ATOM    107  F   UNL A   1      45.726  31.588  29.593  1.00  0.00    -0.203 F 
ATOM    108  C   UNL A   1      47.572  31.076  30.872  1.00  0.00     0.198 A 
ATOM    109  C   UNL A   1      47.428  30.996  33.236  1.00  0.00     0.198 A 
ATOM    110  F   UNL A   1      45.406  31.326  34.344  1.00  0.00    -0.203 F 
ATOM    111  F   UNL A   1      48.279  31.001  29.735  1.00  0.00    -0.200 F 
ATOM    112  C   UNL A   1      48.186  30.887  32.085  1.00  0.00     0.200 A 
ATOM    113  F   UNL A   1      48.030  30.892  34.429  1.00  0.00    -0.200 F 
ATOM    114  F   UNL A   1      49.498  30.623  32.146  1.00  0.00    -0.200 F 
ENDBRANCH  76 104
BRANCH  91 115
ATOM    115  C   UNL A   1      39.550  32.720  33.525  1.00  0.00     0.064 A 
ATOM    116  C   UNL A   1      38.957  31.480  33.235  1.00  0.00     0.173 A 
ATOM    117  C   UNL A   1      39.688  33.030  34.886  1.00  0.00     0.173 A 
ATOM    118  F   UNL A   1      38.778  31.093  31.974  1.00  0.00    -0.203 F 
ATOM    119  C   UNL A   1      38.528  30.601  34.231  1.00  0.00     0.198 A 
ATOM    120  C   UNL A   1      39.268  32.150  35.889  1.00  0.00     0.198 A 
ATOM    121  F   UNL A   1      40.232  34.201  35.252  1.00  0.00    -0.203 F 
ATOM    122  F   UNL A   1      37.953  29.435  33.896  1.00  0.00    -0.200 F 
ATOM    123  C   UNL A   1      38.688  30.935  35.560  1.00  0.00     0.200 A 
ATOM    124  F   UNL A   1      39.417  32.486  37.176  1.00  0.00    -0.200 F 
ATOM    125  F   UNL A   1      38.270  30.099  36.522  1.00  0.00    -0.200 F 
ENDBRANCH  91 115
ENDBRANCH  56  59
ENDBRANCH  46  49
ENDBRANCH  42  45
ENDBRANCH  39  42
ENDBRANCH  36  39
ENDBRANCH   1  36
TORSDOF 15
ENDMDL
MODEL 7
REMARK VINA RESULT:     -11.8      4.402      9.386
REMARK SMILES O=C(Cc1cccn1-c1ccccc1F)NCCCCCCNC(=O)c1ccc(-c2c3nc(c(-c4c(F)c(F)c(F)c(F)c4F)c4ccc([nH]4)c(-c4c(F)c(F)c(F)c(F)c4F)c4nc(c(-c5c(F)c(F)c(F)c(F)c5F)c5ccc2[nH]5)C=C4)C=C3)cc1
REMARK SMILES IDX 19 1 18 4 17 7 16 10 1 11 2 12 3 14 4 17 5 18 8 19 6 20 7 22
REMARK SMILES IDX 9 25 10 26 14 27 11 28 13 30 15 31 12 32 20 36 21 39 22 42
REMARK SMILES IDX 23 45 24 46 25 48 26 49 27 50 88 51 28 52 87 54 29 56 30 59
REMARK SMILES IDX 31 60 81 61 32 62 86 63 80 64 82 65 33 66 85 67 79 69 78 71
REMARK SMILES IDX 34 73 66 76 46 77 65 78 47 79 50 80 64 81 83 82 48 83 49 85
REMARK SMILES IDX 63 87 84 88 51 91 35 93 36 94 44 95 37 96 38 97 42 98 45 99
REMARK SMILES IDX 39 100 40 101 43 102 41 103 67 104 68 105 76 106 69 107
REMARK SMILES IDX 70 108 74 109 77 110 71 111 72 112 75 113 73 114 52 115
REMARK SMILES IDX 53 116 61 117 54 118 55 119 59 120 62 121 56 122 57 123
REMARK SMILES IDX 60 124 58 125
REMARK H PARENT 19 2 19 3 18 5 18 6 17 8 17 9 16 13 3 15 3 16 5 21 6 23 7 24
REMARK H PARENT 10 29 11 33 13 34 12 35 20 37 20 38 21 40 21 41 22 43 22 44
REMARK H PARENT 23 47 27 53 88 55 28 57 87 58 86 68 80 70 82 72 85 74 79 75
REMARK H PARENT 47 84 50 86 83 89 48 90 84 92
REMARK Flexibility Score: inf
ROOT
ATOM      1  C   UNL A   1      34.962  21.986  24.003  1.00  0.00    -0.052 C 
ATOM      2  H   UNL A   1      35.490  21.576  23.167  1.00  0.00     0.027 H 
ATOM      3  H   UNL A   1      34.861  21.334  24.846  1.00  0.00     0.027 H 
ENDROOT
BRANCH   1   4
ATOM      4  C   UNL A   1      33.523  22.260  23.548  1.00  0.00    -0.036 C 
ATOM      5  H   UNL A   1      33.080  21.319  23.297  1.00  0.00     0.028 H 
ATOM      6  H   UNL A   1      33.066  22.770  24.371  1.00  0.00     0.028 H 
BRANCH   4   7
ATOM      7  C   UNL A   1      33.331  23.195  22.349  1.00  0.00     0.017 C 
ATOM      8  H   UNL A   1      34.267  23.668  22.138  1.00  0.00     0.049 H 
ATOM      9  H   UNL A   1      32.981  22.590  21.539  1.00  0.00     0.049 H 
BRANCH   7  10
ATOM     10  N   UNL A   1      32.335  24.229  22.559  1.00  0.00    -0.356 N 
ATOM     11  O   UNL A   1      33.605  25.917  21.645  1.00  0.00    -0.275 OA
ATOM     12  C   UNL A   1      32.549  25.537  22.146  1.00  0.00     0.225 C 
ATOM     13  H   UNL A   1      31.488  23.999  23.005  1.00  0.00     0.163 HD
BRANCH  12  14
ATOM     14  C   UNL A   1      31.362  26.466  22.369  1.00  0.00     0.067 C 
ATOM     15  H   UNL A   1      30.520  25.863  22.637  1.00  0.00     0.043 H 
ATOM     16  H   UNL A   1      31.238  27.004  21.453  1.00  0.00     0.043 H 
BRANCH  14  17
ATOM     17  C   UNL A   1      31.542  27.511  23.439  1.00  0.00     0.032 A 
ATOM     18  C   UNL A   1      31.786  28.866  23.239  1.00  0.00    -0.040 A 
ATOM     19  N   UNL A   1      31.525  27.308  24.810  1.00  0.00    -0.318 N 
ATOM     20  C   UNL A   1      31.911  29.491  24.498  1.00  0.00    -0.044 A 
ATOM     21  H   UNL A   1      31.865  29.334  22.323  1.00  0.00     0.064 H 
ATOM     22  C   UNL A   1      31.704  28.519  25.446  1.00  0.00     0.009 A 
ATOM     23  H   UNL A   1      32.117  30.487  24.672  1.00  0.00     0.064 H 
ATOM     24  H   UNL A   1      31.686  28.671  26.466  1.00  0.00     0.082 H 
BRANCH  19  25
ATOM     25  C   UNL A   1      31.594  26.099  25.516  1.00  0.00     0.081 A 
ATOM     26  C   UNL A   1      32.836  25.561  25.865  1.00  0.00    -0.035 A 
ATOM     27  C   UNL A   1      30.420  25.385  25.718  1.00  0.00     0.147 A 
ATOM     28  C   UNL A   1      32.880  24.306  26.473  1.00  0.00    -0.060 A 
ATOM     29  H   UNL A   1      33.706  26.084  25.677  1.00  0.00     0.065 H 
ATOM     30  C   UNL A   1      30.477  24.104  26.243  1.00  0.00    -0.024 A 
ATOM     31  F   UNL A   1      29.226  25.905  25.400  1.00  0.00    -0.205 F 
ATOM     32  C   UNL A   1      31.704  23.574  26.652  1.00  0.00    -0.059 A 
ATOM     33  H   UNL A   1      33.782  23.919  26.791  1.00  0.00     0.062 H 
ATOM     34  H   UNL A   1      29.616  23.543  26.331  1.00  0.00     0.065 H 
ATOM     35  H   UNL A   1      31.741  22.638  27.087  1.00  0.00     0.062 H 
ENDBRANCH  19  25
ENDBRANCH  14  17
ENDBRANCH  12  14
ENDBRANCH   7  10
ENDBRANCH   4   7
ENDBRANCH   1   4
BRANCH   1  36
ATOM     36  C   UNL A   1      35.780  23.170  24.524  1.00  0.00    -0.052 C 
ATOM     37  H   UNL A   1      35.155  24.035  24.455  1.00  0.00     0.027 H 
ATOM     38  H   UNL A   1      36.658  23.163  23.913  1.00  0.00     0.027 H 
BRANCH  36  39
ATOM     39  C   UNL A   1      36.328  23.123  25.954  1.00  0.00    -0.036 C 
ATOM     40  H   UNL A   1      36.741  22.152  26.125  1.00  0.00     0.028 H 
ATOM     41  H   UNL A   1      35.510  23.342  26.608  1.00  0.00     0.028 H 
BRANCH  39  42
ATOM     42  C   UNL A   1      37.408  24.161  26.234  1.00  0.00     0.018 C 
ATOM     43  H   UNL A   1      37.044  24.854  26.963  1.00  0.00     0.049 H 
ATOM     44  H   UNL A   1      37.640  24.659  25.316  1.00  0.00     0.049 H 
BRANCH  42  45
ATOM     45  N   UNL A   1      38.629  23.539  26.738  1.00  0.00    -0.352 N 
ATOM     46  C   UNL A   1      39.705  24.111  27.377  1.00  0.00     0.251 C 
ATOM     47  H   UNL A   1      38.692  22.567  26.601  1.00  0.00     0.163 HD
ATOM     48  O   UNL A   1      40.756  23.508  27.494  1.00  0.00    -0.269 OA
BRANCH  46  49
ATOM     49  C   UNL A   1      39.586  25.490  27.879  1.00  0.00     0.039 A 
ATOM     50  C   UNL A   1      39.093  25.685  29.173  1.00  0.00    -0.049 A 
ATOM     51  C   UNL A   1      39.983  26.568  27.083  1.00  0.00    -0.049 A 
ATOM     52  C   UNL A   1      39.099  26.964  29.710  1.00  0.00    -0.053 A 
ATOM     53  H   UNL A   1      38.729  24.890  29.720  1.00  0.00     0.063 H 
ATOM     54  C   UNL A   1      40.043  27.836  27.634  1.00  0.00    -0.053 A 
ATOM     55  H   UNL A   1      40.229  26.419  26.092  1.00  0.00     0.063 H 
ATOM     56  C   UNL A   1      39.620  28.024  28.954  1.00  0.00    -0.014 A 
ATOM     57  H   UNL A   1      38.724  27.133  30.656  1.00  0.00     0.063 H 
ATOM     58  H   UNL A   1      40.395  28.632  27.078  1.00  0.00     0.063 H 
BRANCH  56  59
ATOM     59  C   UNL A   1      39.829  29.325  29.618  1.00  0.00     0.031 A 
ATOM     60  C   UNL A   1      38.595  30.235  29.509  1.00  0.00     0.074 A 
ATOM     61  C   UNL A   1      41.060  29.509  30.181  1.00  0.00     0.049 A 
ATOM     62  N   UNL A   1      38.510  31.530  29.488  1.00  0.00    -0.248 NA
ATOM     63  C   UNL A   1      37.254  29.612  29.326  1.00  0.00    -0.034 C 
ATOM     64  C   UNL A   1      42.112  28.473  30.222  1.00  0.00    -0.036 A 
ATOM     65  N   UNL A   1      41.687  30.561  30.815  1.00  0.00    -0.354 N 
ATOM     66  C   UNL A   1      37.139  31.874  29.463  1.00  0.00     0.074 A 
ATOM     67  C   UNL A   1      36.422  30.654  29.250  1.00  0.00    -0.034 C 
ATOM     68  H   UNL A   1      37.022  28.608  29.269  1.00  0.00     0.065 H 
ATOM     69  C   UNL A   1      43.246  28.960  30.759  1.00  0.00    -0.036 A 
ATOM     70  H   UNL A   1      41.993  27.506  29.884  1.00  0.00     0.065 H 
ATOM     71  C   UNL A   1      43.059  30.349  31.118  1.00  0.00     0.049 A 
ATOM     72  H   UNL A   1      41.219  31.397  31.041  1.00  0.00     0.167 HD
ATOM     73  C   UNL A   1      36.683  33.133  29.744  1.00  0.00     0.037 A 
ATOM     74  H   UNL A   1      35.409  30.589  29.066  1.00  0.00     0.065 H 
ATOM     75  H   UNL A   1      44.118  28.423  30.895  1.00  0.00     0.065 H 
ATOM     76  C   UNL A   1      43.995  31.243  31.561  1.00  0.00     0.037 A 
ATOM     77  C   UNL A   1      37.784  33.995  30.012  1.00  0.00     0.049 A 
ATOM     78  C   UNL A   1      43.251  32.486  31.824  1.00  0.00     0.074 A 
ATOM     79  C   UNL A   1      38.730  34.559  29.198  1.00  0.00    -0.036 A 
ATOM     80  N   UNL A   1      38.212  34.066  31.315  1.00  0.00    -0.354 N 
ATOM     81  N   UNL A   1      42.422  32.662  32.811  1.00  0.00    -0.248 NA
ATOM     82  C   UNL A   1      43.337  33.575  30.843  1.00  0.00    -0.034 C 
ATOM     83  C   UNL A   1      39.901  34.517  29.980  1.00  0.00    -0.036 A 
ATOM     84  H   UNL A   1      38.612  34.927  28.240  1.00  0.00     0.065 H 
ATOM     85  C   UNL A   1      39.582  34.139  31.289  1.00  0.00     0.049 A 
ATOM     86  H   UNL A   1      37.642  34.065  32.118  1.00  0.00     0.167 HD
ATOM     87  C   UNL A   1      41.667  33.726  32.372  1.00  0.00     0.074 A 
ATOM     88  C   UNL A   1      42.450  34.412  31.371  1.00  0.00    -0.034 C 
ATOM     89  H   UNL A   1      43.916  33.665  29.993  1.00  0.00     0.065 H 
ATOM     90  H   UNL A   1      40.851  34.735  29.639  1.00  0.00     0.065 H 
ATOM     91  C   UNL A   1      40.314  33.657  32.436  1.00  0.00     0.037 A 
ATOM     92  H   UNL A   1      42.336  35.403  31.105  1.00  0.00     0.065 H 
BRANCH  73  93
ATOM     93  C   UNL A   1      35.312  33.686  30.033  1.00  0.00     0.064 A 
ATOM     94  C   UNL A   1      34.773  33.785  31.320  1.00  0.00     0.173 A 
ATOM     95  C   UNL A   1      34.673  34.459  29.029  1.00  0.00     0.173 A 
ATOM     96  F   UNL A   1      35.308  33.114  32.348  1.00  0.00    -0.203 F 
ATOM     97  C   UNL A   1      33.722  34.667  31.603  1.00  0.00     0.198 A 
ATOM     98  C   UNL A   1      33.661  35.370  29.323  1.00  0.00     0.198 A 
ATOM     99  F   UNL A   1      35.081  34.400  27.751  1.00  0.00    -0.203 F 
ATOM    100  F   UNL A   1      33.267  34.772  32.861  1.00  0.00    -0.200 F 
ATOM    101  C   UNL A   1      33.196  35.486  30.618  1.00  0.00     0.200 A 
ATOM    102  F   UNL A   1      33.186  36.178  28.364  1.00  0.00    -0.200 F 
ATOM    103  F   UNL A   1      32.272  36.408  30.923  1.00  0.00    -0.200 F 
ENDBRANCH  73  93
BRANCH  76 104
ATOM    104  C   UNL A   1      45.506  31.295  31.673  1.00  0.00     0.064 A 
ATOM    105  C   UNL A   1      46.112  31.581  32.930  1.00  0.00     0.173 A 
ATOM    106  C   UNL A   1      46.421  31.186  30.619  1.00  0.00     0.173 A 
ATOM    107  F   UNL A   1      45.415  31.536  34.073  1.00  0.00    -0.203 F 
ATOM    108  C   UNL A   1      47.454  31.932  33.078  1.00  0.00     0.198 A 
ATOM    109  C   UNL A   1      47.786  31.494  30.773  1.00  0.00     0.198 A 
ATOM    110  F   UNL A   1      46.047  30.753  29.412  1.00  0.00    -0.203 F 
ATOM    111  F   UNL A   1      47.913  32.310  34.280  1.00  0.00    -0.200 F 
ATOM    112  C   UNL A   1      48.291  31.914  31.990  1.00  0.00     0.200 A 
ATOM    113  F   UNL A   1      48.611  31.397  29.720  1.00  0.00    -0.200 F 
ATOM    114  F   UNL A   1      49.573  32.278  32.116  1.00  0.00    -0.200 F 
ENDBRANCH  76 104
BRANCH  91 115
ATOM    115  C   UNL A   1      39.790  32.730  33.513  1.00  0.00     0.064 A 
ATOM    116  C   UNL A   1      39.828  33.015  34.887  1.00  0.00     0.173 A 
ATOM    117  C   UNL A   1      39.125  31.549  33.149  1.00  0.00     0.173 A 
ATOM    118  F   UNL A   1      40.437  34.110  35.336  1.00  0.00    -0.203 F 
ATOM    119  C   UNL A   1      39.243  32.183  35.844  1.00  0.00     0.198 A 
ATOM    120  C   UNL A   1      38.530  30.716  34.102  1.00  0.00     0.198 A 
ATOM    121  F   UNL A   1      39.055  31.194  31.857  1.00  0.00    -0.203 F 
ATOM    122  F   UNL A   1      39.322  32.496  37.147  1.00  0.00    -0.200 F 
ATOM    123  C   UNL A   1      38.589  31.033  35.449  1.00  0.00     0.200 A 
ATOM    124  F   UNL A   1      37.906  29.597  33.711  1.00  0.00    -0.200 F 
ATOM    125  F   UNL A   1      38.033  30.225  36.363  1.00  0.00    -0.200 F 
ENDBRANCH  91 115
ENDBRANCH  56  59
ENDBRANCH  46  49
ENDBRANCH  42  45
ENDBRANCH  39  42
ENDBRANCH  36  39
ENDBRANCH   1  36
TORSDOF 15
ENDMDL
MODEL 8
REMARK VINA RESULT:     -11.7      2.951      8.054
REMARK SMILES O=C(Cc1cccn1-c1ccccc1F)NCCCCCCNC(=O)c1ccc(-c2c3nc(c(-c4c(F)c(F)c(F)c(F)c4F)c4ccc([nH]4)c(-c4c(F)c(F)c(F)c(F)c4F)c4nc(c(-c5c(F)c(F)c(F)c(F)c5F)c5ccc2[nH]5)C=C4)C=C3)cc1
REMARK SMILES IDX 19 1 18 4 17 7 16 10 1 11 2 12 3 14 4 17 5 18 8 19 6 20 7 22
REMARK SMILES IDX 9 25 10 26 14 27 11 28 13 30 15 31 12 32 20 36 21 39 22 42
REMARK SMILES IDX 23 45 24 46 25 48 26 49 27 50 88 51 28 52 87 54 29 56 30 59
REMARK SMILES IDX 31 60 81 61 32 62 86 63 80 64 82 65 33 66 85 67 79 69 78 71
REMARK SMILES IDX 34 73 66 76 46 77 65 78 47 79 50 80 64 81 83 82 48 83 49 85
REMARK SMILES IDX 63 87 84 88 51 91 35 93 36 94 44 95 37 96 38 97 42 98 45 99
REMARK SMILES IDX 39 100 40 101 43 102 41 103 67 104 68 105 76 106 69 107
REMARK SMILES IDX 70 108 74 109 77 110 71 111 72 112 75 113 73 114 52 115
REMARK SMILES IDX 53 116 61 117 54 118 55 119 59 120 62 121 56 122 57 123
REMARK SMILES IDX 60 124 58 125
REMARK H PARENT 19 2 19 3 18 5 18 6 17 8 17 9 16 13 3 15 3 16 5 21 6 23 7 24
REMARK H PARENT 10 29 11 33 13 34 12 35 20 37 20 38 21 40 21 41 22 43 22 44
REMARK H PARENT 23 47 27 53 88 55 28 57 87 58 86 68 80 70 82 72 85 74 79 75
REMARK H PARENT 47 84 50 86 83 89 48 90 84 92
REMARK Flexibility Score: inf
ROOT
ATOM      1  C   UNL A   1      37.148  22.096  25.397  1.00  0.00    -0.052 C 
ATOM      2  H   UNL A   1      37.681  22.050  26.324  1.00  0.00     0.027 H 
ATOM      3  H   UNL A   1      37.684  22.536  24.581  1.00  0.00     0.027 H 
ENDROOT
BRANCH   1   4
ATOM      4  C   UNL A   1      35.938  23.016  25.608  1.00  0.00    -0.036 C 
ATOM      5  H   UNL A   1      36.308  23.963  25.942  1.00  0.00     0.028 H 
ATOM      6  H   UNL A   1      35.437  23.033  24.663  1.00  0.00     0.028 H 
BRANCH   4   7
ATOM      7  C   UNL A   1      34.874  22.557  26.610  1.00  0.00     0.017 C 
ATOM      8  H   UNL A   1      34.897  21.488  26.660  1.00  0.00     0.049 H 
ATOM      9  H   UNL A   1      35.110  23.020  27.545  1.00  0.00     0.049 H 
BRANCH   7  10
ATOM     10  N   UNL A   1      33.524  22.967  26.269  1.00  0.00    -0.356 N 
ATOM     11  O   UNL A   1      32.651  22.535  28.354  1.00  0.00    -0.275 OA
ATOM     12  C   UNL A   1      32.503  22.954  27.209  1.00  0.00     0.225 C 
ATOM     13  H   UNL A   1      33.328  23.262  25.351  1.00  0.00     0.163 HD
BRANCH  12  14
ATOM     14  C   UNL A   1      31.175  23.500  26.698  1.00  0.00     0.067 C 
ATOM     15  H   UNL A   1      30.831  24.232  27.397  1.00  0.00     0.043 H 
ATOM     16  H   UNL A   1      30.530  22.652  26.603  1.00  0.00     0.043 H 
BRANCH  14  17
ATOM     17  C   UNL A   1      31.214  24.142  25.336  1.00  0.00     0.032 A 
ATOM     18  C   UNL A   1      31.001  23.508  24.116  1.00  0.00    -0.040 A 
ATOM     19  N   UNL A   1      31.495  25.469  25.051  1.00  0.00    -0.318 N 
ATOM     20  C   UNL A   1      31.146  24.460  23.084  1.00  0.00    -0.044 A 
ATOM     21  H   UNL A   1      30.775  22.510  23.988  1.00  0.00     0.064 H 
ATOM     22  C   UNL A   1      31.408  25.664  23.688  1.00  0.00     0.009 A 
ATOM     23  H   UNL A   1      31.070  24.283  22.070  1.00  0.00     0.064 H 
ATOM     24  H   UNL A   1      31.520  26.568  23.202  1.00  0.00     0.082 H 
BRANCH  19  25
ATOM     25  C   UNL A   1      32.045  26.447  25.891  1.00  0.00     0.081 A 
ATOM     26  C   UNL A   1      31.209  27.264  26.656  1.00  0.00    -0.035 A 
ATOM     27  C   UNL A   1      33.412  26.682  25.823  1.00  0.00     0.147 A 
ATOM     28  C   UNL A   1      31.775  28.299  27.402  1.00  0.00    -0.060 A 
ATOM     29  H   UNL A   1      30.189  27.105  26.670  1.00  0.00     0.065 H 
ATOM     30  C   UNL A   1      33.958  27.763  26.498  1.00  0.00    -0.024 A 
ATOM     31  F   UNL A   1      34.220  25.889  25.104  1.00  0.00    -0.205 F 
ATOM     32  C   UNL A   1      33.146  28.554  27.315  1.00  0.00    -0.059 A 
ATOM     33  H   UNL A   1      31.182  28.875  28.019  1.00  0.00     0.062 H 
ATOM     34  H   UNL A   1      34.960  27.983  26.396  1.00  0.00     0.065 H 
ATOM     35  H   UNL A   1      33.561  29.331  27.854  1.00  0.00     0.062 H 
ENDBRANCH  19  25
ENDBRANCH  14  17
ENDBRANCH  12  14
ENDBRANCH   7  10
ENDBRANCH   4   7
ENDBRANCH   1   4
BRANCH   1  36
ATOM     36  C   UNL A   1      36.878  20.657  24.953  1.00  0.00    -0.052 C 
ATOM     37  H   UNL A   1      36.499  20.705  23.953  1.00  0.00     0.027 H 
ATOM     38  H   UNL A   1      36.212  20.280  25.700  1.00  0.00     0.027 H 
BRANCH  36  39
ATOM     39  C   UNL A   1      38.032  19.650  24.949  1.00  0.00    -0.036 C 
ATOM     40  H   UNL A   1      38.333  19.487  23.935  1.00  0.00     0.028 H 
ATOM     41  H   UNL A   1      37.669  18.759  25.417  1.00  0.00     0.028 H 
BRANCH  39  42
ATOM     42  C   UNL A   1      39.249  20.104  25.744  1.00  0.00     0.018 C 
ATOM     43  H   UNL A   1      38.931  20.421  26.716  1.00  0.00     0.049 H 
ATOM     44  H   UNL A   1      39.715  20.909  25.214  1.00  0.00     0.049 H 
BRANCH  42  45
ATOM     45  N   UNL A   1      40.224  19.028  25.891  1.00  0.00    -0.352 N 
ATOM     46  C   UNL A   1      41.584  19.097  26.091  1.00  0.00     0.251 C 
ATOM     47  H   UNL A   1      39.855  18.118  25.840  1.00  0.00     0.163 HD
ATOM     48  O   UNL A   1      42.292  18.121  25.926  1.00  0.00    -0.269 OA
BRANCH  46  49
ATOM     49  C   UNL A   1      42.185  20.389  26.464  1.00  0.00     0.039 A 
ATOM     50  C   UNL A   1      42.681  21.209  25.446  1.00  0.00    -0.049 A 
ATOM     51  C   UNL A   1      42.230  20.786  27.803  1.00  0.00    -0.049 A 
ATOM     52  C   UNL A   1      43.129  22.482  25.765  1.00  0.00    -0.053 A 
ATOM     53  H   UNL A   1      42.716  20.871  24.472  1.00  0.00     0.063 H 
ATOM     54  C   UNL A   1      42.622  22.075  28.118  1.00  0.00    -0.053 A 
ATOM     55  H   UNL A   1      41.973  20.123  28.551  1.00  0.00     0.063 H 
ATOM     56  C   UNL A   1      43.050  22.926  27.093  1.00  0.00    -0.014 A 
ATOM     57  H   UNL A   1      43.514  23.097  25.033  1.00  0.00     0.063 H 
ATOM     58  H   UNL A   1      42.599  22.405  29.097  1.00  0.00     0.063 H 
BRANCH  56  59
ATOM     59  C   UNL A   1      43.312  24.350  27.376  1.00  0.00     0.031 A 
ATOM     60  C   UNL A   1      42.014  25.145  27.589  1.00  0.00     0.074 A 
ATOM     61  C   UNL A   1      44.627  24.720  27.375  1.00  0.00     0.049 A 
ATOM     62  N   UNL A   1      41.755  26.397  27.369  1.00  0.00    -0.248 NA
ATOM     63  C   UNL A   1      40.796  24.424  28.057  1.00  0.00    -0.034 C 
ATOM     64  C   UNL A   1      45.749  23.776  27.192  1.00  0.00    -0.036 A 
ATOM     65  N   UNL A   1      45.296  25.918  27.513  1.00  0.00    -0.354 N 
ATOM     66  C   UNL A   1      40.437  26.652  27.814  1.00  0.00     0.074 A 
ATOM     67  C   UNL A   1      39.863  25.378  28.121  1.00  0.00    -0.034 C 
ATOM     68  H   UNL A   1      40.698  23.421  28.278  1.00  0.00     0.065 H 
ATOM     69  C   UNL A   1      46.925  24.431  27.150  1.00  0.00    -0.036 A 
ATOM     70  H   UNL A   1      45.646  22.754  27.108  1.00  0.00     0.065 H 
ATOM     71  C   UNL A   1      46.698  25.853  27.294  1.00  0.00     0.049 A 
ATOM     72  H   UNL A   1      44.836  26.756  27.747  1.00  0.00     0.167 HD
ATOM     73  C   UNL A   1      39.952  27.915  28.016  1.00  0.00     0.037 A 
ATOM     74  H   UNL A   1      38.872  25.219  28.359  1.00  0.00     0.065 H 
ATOM     75  H   UNL A   1      47.850  23.985  27.033  1.00  0.00     0.065 H 
ATOM     76  C   UNL A   1      47.602  26.872  27.169  1.00  0.00     0.037 A 
ATOM     77  C   UNL A   1      40.948  28.874  27.675  1.00  0.00     0.049 A 
ATOM     78  C   UNL A   1      46.847  28.100  27.470  1.00  0.00     0.074 A 
ATOM     79  C   UNL A   1      41.443  29.296  26.470  1.00  0.00    -0.036 A 
ATOM     80  N   UNL A   1      41.811  29.252  28.674  1.00  0.00    -0.354 N 
ATOM     81  N   UNL A   1      46.423  28.443  28.651  1.00  0.00    -0.248 NA
ATOM     82  C   UNL A   1      46.419  28.950  26.351  1.00  0.00    -0.034 C 
ATOM     83  C   UNL A   1      42.814  29.491  26.731  1.00  0.00    -0.036 A 
ATOM     84  H   UNL A   1      40.934  29.438  25.584  1.00  0.00     0.065 H 
ATOM     85  C   UNL A   1      43.052  29.392  28.106  1.00  0.00     0.049 A 
ATOM     86  H   UNL A   1      41.582  29.396  29.620  1.00  0.00     0.167 HD
ATOM     87  C   UNL A   1      45.425  29.341  28.353  1.00  0.00     0.074 A 
ATOM     88  C   UNL A   1      45.685  29.832  27.020  1.00  0.00    -0.034 C 
ATOM     89  H   UNL A   1      46.628  28.883  25.343  1.00  0.00     0.065 H 
ATOM     90  H   UNL A   1      43.533  29.680  26.015  1.00  0.00     0.065 H 
ATOM     91  C   UNL A   1      44.212  29.214  28.948  1.00  0.00     0.037 A 
ATOM     92  H   UNL A   1      45.349  30.733  26.644  1.00  0.00     0.065 H 
BRANCH  73  93
ATOM     93  C   UNL A   1      38.722  28.442  28.708  1.00  0.00     0.064 A 
ATOM     94  C   UNL A   1      38.439  28.219  30.060  1.00  0.00     0.173 A 
ATOM     95  C   UNL A   1      37.997  29.490  28.085  1.00  0.00     0.173 A 
ATOM     96  F   UNL A   1      39.079  27.269  30.753  1.00  0.00    -0.203 F 
ATOM     97  C   UNL A   1      37.556  29.047  30.765  1.00  0.00     0.198 A 
ATOM     98  C   UNL A   1      37.156  30.341  28.800  1.00  0.00     0.198 A 
ATOM     99  F   UNL A   1      38.156  29.755  26.778  1.00  0.00    -0.203 F 
ATOM    100  F   UNL A   1      37.351  28.834  32.073  1.00  0.00    -0.200 F 
ATOM    101  C   UNL A   1      36.949  30.128  30.147  1.00  0.00     0.200 A 
ATOM    102  F   UNL A   1      36.602  31.402  28.194  1.00  0.00    -0.200 F 
ATOM    103  F   UNL A   1      36.198  30.982  30.857  1.00  0.00    -0.200 F 
ENDBRANCH  73  93
BRANCH  76 104
ATOM    104  C   UNL A   1      49.027  27.029  26.676  1.00  0.00     0.064 A 
ATOM    105  C   UNL A   1      49.990  27.689  27.493  1.00  0.00     0.173 A 
ATOM    106  C   UNL A   1      49.512  26.673  25.411  1.00  0.00     0.173 A 
ATOM    107  F   UNL A   1      49.761  27.935  28.790  1.00  0.00    -0.203 F 
ATOM    108  C   UNL A   1      51.225  28.135  27.023  1.00  0.00     0.198 A 
ATOM    109  C   UNL A   1      50.778  27.081  24.949  1.00  0.00     0.198 A 
ATOM    110  F   UNL A   1      48.805  25.898  24.585  1.00  0.00    -0.203 F 
ATOM    111  F   UNL A   1      52.018  28.860  27.826  1.00  0.00    -0.200 F 
ATOM    112  C   UNL A   1      51.612  27.853  25.737  1.00  0.00     0.200 A 
ATOM    113  F   UNL A   1      51.178  26.732  23.718  1.00  0.00    -0.200 F 
ATOM    114  F   UNL A   1      52.783  28.301  25.268  1.00  0.00    -0.200 F 
ENDBRANCH  76 104
BRANCH  91 115
ATOM    115  C   UNL A   1      44.250  28.518  30.292  1.00  0.00     0.064 A 
ATOM    116  C   UNL A   1      43.909  27.171  30.493  1.00  0.00     0.173 A 
ATOM    117  C   UNL A   1      44.749  29.199  31.413  1.00  0.00     0.173 A 
ATOM    118  F   UNL A   1      43.425  26.437  29.494  1.00  0.00    -0.203 F 
ATOM    119  C   UNL A   1      44.054  26.536  31.728  1.00  0.00     0.198 A 
ATOM    120  C   UNL A   1      44.904  28.566  32.650  1.00  0.00     0.198 A 
ATOM    121  F   UNL A   1      45.085  30.494  31.311  1.00  0.00    -0.203 F 
ATOM    122  F   UNL A   1      43.698  25.249  31.868  1.00  0.00    -0.200 F 
ATOM    123  C   UNL A   1      44.556  27.234  32.807  1.00  0.00     0.200 A 
ATOM    124  F   UNL A   1      45.382  29.254  33.695  1.00  0.00    -0.200 F 
ATOM    125  F   UNL A   1      44.690  26.632  33.998  1.00  0.00    -0.200 F 
ENDBRANCH  91 115
ENDBRANCH  56  59
ENDBRANCH  46  49
ENDBRANCH  42  45
ENDBRANCH  39  42
ENDBRANCH  36  39
ENDBRANCH   1  36
TORSDOF 15
ENDMDL
MODEL 9
REMARK VINA RESULT:     -11.7      4.424      9.644
REMARK SMILES O=C(Cc1cccn1-c1ccccc1F)NCCCCCCNC(=O)c1ccc(-c2c3nc(c(-c4c(F)c(F)c(F)c(F)c4F)c4ccc([nH]4)c(-c4c(F)c(F)c(F)c(F)c4F)c4nc(c(-c5c(F)c(F)c(F)c(F)c5F)c5ccc2[nH]5)C=C4)C=C3)cc1
REMARK SMILES IDX 19 1 18 4 17 7 16 10 1 11 2 12 3 14 4 17 5 18 8 19 6 20 7 22
REMARK SMILES IDX 9 25 10 26 14 27 11 28 13 30 15 31 12 32 20 36 21 39 22 42
REMARK SMILES IDX 23 45 24 46 25 48 26 49 27 50 88 51 28 52 87 54 29 56 30 59
REMARK SMILES IDX 31 60 81 61 32 62 86 63 80 64 82 65 33 66 85 67 79 69 78 71
REMARK SMILES IDX 34 73 66 76 46 77 65 78 47 79 50 80 64 81 83 82 48 83 49 85
REMARK SMILES IDX 63 87 84 88 51 91 35 93 36 94 44 95 37 96 38 97 42 98 45 99
REMARK SMILES IDX 39 100 40 101 43 102 41 103 67 104 68 105 76 106 69 107
REMARK SMILES IDX 70 108 74 109 77 110 71 111 72 112 75 113 73 114 52 115
REMARK SMILES IDX 53 116 61 117 54 118 55 119 59 120 62 121 56 122 57 123
REMARK SMILES IDX 60 124 58 125
REMARK H PARENT 19 2 19 3 18 5 18 6 17 8 17 9 16 13 3 15 3 16 5 21 6 23 7 24
REMARK H PARENT 10 29 11 33 13 34 12 35 20 37 20 38 21 40 21 41 22 43 22 44
REMARK H PARENT 23 47 27 53 88 55 28 57 87 58 86 68 80 70 82 72 85 74 79 75
REMARK H PARENT 47 84 50 86 83 89 48 90 84 92
REMARK Flexibility Score: inf
ROOT
ATOM      1  C   UNL A   1      35.123  23.476  23.328  1.00  0.00    -0.052 C 
ATOM      2  H   UNL A   1      35.209  24.393  22.784  1.00  0.00     0.027 H 
ATOM      3  H   UNL A   1      35.736  22.673  22.973  1.00  0.00     0.027 H 
ENDROOT
BRANCH   1   4
ATOM      4  C   UNL A   1      33.684  22.972  23.154  1.00  0.00    -0.036 C 
ATOM      5  H   UNL A   1      33.704  22.180  22.434  1.00  0.00     0.028 H 
ATOM      6  H   UNL A   1      33.372  22.685  24.136  1.00  0.00     0.028 H 
BRANCH   4   7
ATOM      7  C   UNL A   1      32.635  23.989  22.689  1.00  0.00     0.017 C 
ATOM      8  H   UNL A   1      32.586  23.957  21.621  1.00  0.00     0.049 H 
ATOM      9  H   UNL A   1      31.712  23.716  23.155  1.00  0.00     0.049 H 
BRANCH   7  10
ATOM     10  N   UNL A   1      32.918  25.355  23.091  1.00  0.00    -0.356 N 
ATOM     11  O   UNL A   1      33.418  26.088  20.967  1.00  0.00    -0.275 OA
ATOM     12  C   UNL A   1      33.263  26.328  22.162  1.00  0.00     0.225 C 
ATOM     13  H   UNL A   1      32.864  25.598  24.043  1.00  0.00     0.163 HD
BRANCH  12  14
ATOM     14  C   UNL A   1      33.438  27.721  22.752  1.00  0.00     0.067 C 
ATOM     15  H   UNL A   1      32.833  28.396  22.184  1.00  0.00     0.043 H 
ATOM     16  H   UNL A   1      34.486  27.929  22.701  1.00  0.00     0.043 H 
BRANCH  14  17
ATOM     17  C   UNL A   1      33.060  27.870  24.203  1.00  0.00     0.032 A 
ATOM     18  C   UNL A   1      33.883  27.640  25.300  1.00  0.00    -0.040 A 
ATOM     19  N   UNL A   1      31.820  28.233  24.705  1.00  0.00    -0.318 N 
ATOM     20  C   UNL A   1      33.139  27.874  26.477  1.00  0.00    -0.044 A 
ATOM     21  H   UNL A   1      34.872  27.347  25.260  1.00  0.00     0.064 H 
ATOM     22  C   UNL A   1      31.888  28.277  26.082  1.00  0.00     0.009 A 
ATOM     23  H   UNL A   1      33.473  27.762  27.447  1.00  0.00     0.064 H 
ATOM     24  H   UNL A   1      31.124  28.566  26.713  1.00  0.00     0.082 H 
BRANCH  19  25
ATOM     25  C   UNL A   1      30.590  28.298  24.036  1.00  0.00     0.081 A 
ATOM     26  C   UNL A   1      30.122  29.521  23.546  1.00  0.00    -0.035 A 
ATOM     27  C   UNL A   1      29.791  27.162  24.013  1.00  0.00     0.147 A 
ATOM     28  C   UNL A   1      28.848  29.577  22.980  1.00  0.00    -0.060 A 
ATOM     29  H   UNL A   1      30.709  30.367  23.603  1.00  0.00     0.065 H 
ATOM     30  C   UNL A   1      28.495  27.244  23.527  1.00  0.00    -0.024 A 
ATOM     31  F   UNL A   1      30.242  25.984  24.466  1.00  0.00    -0.205 F 
ATOM     32  C   UNL A   1      28.032  28.444  22.980  1.00  0.00    -0.059 A 
ATOM     33  H   UNL A   1      28.509  30.457  22.560  1.00  0.00     0.062 H 
ATOM     34  H   UNL A   1      27.874  26.422  23.571  1.00  0.00     0.065 H 
ATOM     35  H   UNL A   1      27.083  28.492  22.575  1.00  0.00     0.062 H 
ENDBRANCH  19  25
ENDBRANCH  14  17
ENDBRANCH  12  14
ENDBRANCH   7  10
ENDBRANCH   4   7
ENDBRANCH   1   4
BRANCH   1  36
ATOM     36  C   UNL A   1      35.615  23.739  24.752  1.00  0.00    -0.052 C 
ATOM     37  H   UNL A   1      34.977  23.189  25.410  1.00  0.00     0.027 H 
ATOM     38  H   UNL A   1      35.589  24.805  24.839  1.00  0.00     0.027 H 
BRANCH  36  39
ATOM     39  C   UNL A   1      37.058  23.377  25.119  1.00  0.00    -0.036 C 
ATOM     40  H   UNL A   1      37.680  23.567  24.270  1.00  0.00     0.028 H 
ATOM     41  H   UNL A   1      37.057  22.346  25.406  1.00  0.00     0.028 H 
BRANCH  39  42
ATOM     42  C   UNL A   1      37.609  24.165  26.302  1.00  0.00     0.018 C 
ATOM     43  H   UNL A   1      36.876  24.181  27.081  1.00  0.00     0.049 H 
ATOM     44  H   UNL A   1      37.834  25.156  25.969  1.00  0.00     0.049 H 
BRANCH  42  45
ATOM     45  N   UNL A   1      38.836  23.566  26.818  1.00  0.00    -0.352 N 
ATOM     46  C   UNL A   1      39.901  24.160  27.457  1.00  0.00     0.251 C 
ATOM     47  H   UNL A   1      38.914  22.594  26.690  1.00  0.00     0.163 HD
ATOM     48  O   UNL A   1      40.960  23.574  27.585  1.00  0.00    -0.269 OA
BRANCH  46  49
ATOM     49  C   UNL A   1      39.758  25.542  27.946  1.00  0.00     0.039 A 
ATOM     50  C   UNL A   1      39.206  25.743  29.214  1.00  0.00    -0.049 A 
ATOM     51  C   UNL A   1      40.192  26.615  27.164  1.00  0.00    -0.049 A 
ATOM     52  C   UNL A   1      39.186  27.025  29.744  1.00  0.00    -0.053 A 
ATOM     53  H   UNL A   1      38.816  24.950  29.748  1.00  0.00     0.063 H 
ATOM     54  C   UNL A   1      40.226  27.886  27.711  1.00  0.00    -0.053 A 
ATOM     55  H   UNL A   1      40.484  26.462  26.186  1.00  0.00     0.063 H 
ATOM     56  C   UNL A   1      39.742  28.082  29.008  1.00  0.00    -0.014 A 
ATOM     57  H   UNL A   1      38.768  27.199  30.671  1.00  0.00     0.063 H 
ATOM     58  H   UNL A   1      40.603  28.679  27.168  1.00  0.00     0.063 H 
BRANCH  56  59
ATOM     59  C   UNL A   1      39.920  29.385  29.675  1.00  0.00     0.031 A 
ATOM     60  C   UNL A   1      38.673  30.276  29.546  1.00  0.00     0.074 A 
ATOM     61  C   UNL A   1      41.139  29.589  30.257  1.00  0.00     0.049 A 
ATOM     62  N   UNL A   1      38.568  31.568  29.523  1.00  0.00    -0.248 NA
ATOM     63  C   UNL A   1      37.345  29.631  29.343  1.00  0.00    -0.034 C 
ATOM     64  C   UNL A   1      42.206  28.570  30.314  1.00  0.00    -0.036 A 
ATOM     65  N   UNL A   1      41.739  30.652  30.899  1.00  0.00    -0.354 N 
ATOM     66  C   UNL A   1      37.192  31.891  29.477  1.00  0.00     0.074 A 
ATOM     67  C   UNL A   1      36.498  30.660  29.254  1.00  0.00    -0.034 C 
ATOM     68  H   UNL A   1      37.131  28.623  29.284  1.00  0.00     0.065 H 
ATOM     69  C   UNL A   1      43.324  29.076  30.868  1.00  0.00    -0.036 A 
ATOM     70  H   UNL A   1      42.109  27.601  29.975  1.00  0.00     0.065 H 
ATOM     71  C   UNL A   1      43.110  30.462  31.223  1.00  0.00     0.049 A 
ATOM     72  H   UNL A   1      41.255  31.480  31.118  1.00  0.00     0.167 HD
ATOM     73  C   UNL A   1      36.711  33.143  29.750  1.00  0.00     0.037 A 
ATOM     74  H   UNL A   1      35.489  30.578  29.054  1.00  0.00     0.065 H 
ATOM     75  H   UNL A   1      44.203  28.553  31.018  1.00  0.00     0.065 H 
ATOM     76  C   UNL A   1      44.024  31.371  31.680  1.00  0.00     0.037 A 
ATOM     77  C   UNL A   1      37.794  34.022  30.035  1.00  0.00     0.049 A 
ATOM     78  C   UNL A   1      43.256  32.602  31.931  1.00  0.00     0.074 A 
ATOM     79  C   UNL A   1      38.743  34.601  29.235  1.00  0.00    -0.036 A 
ATOM     80  N   UNL A   1      38.201  34.101  31.344  1.00  0.00    -0.354 N 
ATOM     81  N   UNL A   1      42.409  32.765  32.906  1.00  0.00    -0.248 NA
ATOM     82  C   UNL A   1      43.340  33.692  30.951  1.00  0.00    -0.034 C 
ATOM     83  C   UNL A   1      39.903  34.578  30.035  1.00  0.00    -0.036 A 
ATOM     84  H   UNL A   1      38.634  34.966  28.276  1.00  0.00     0.065 H 
ATOM     85  C   UNL A   1      39.570  34.195  31.339  1.00  0.00     0.049 A 
ATOM     86  H   UNL A   1      37.619  34.090  32.138  1.00  0.00     0.167 HD
ATOM     87  C   UNL A   1      41.645  33.816  32.454  1.00  0.00     0.074 A 
ATOM     88  C   UNL A   1      42.431  34.515  31.464  1.00  0.00    -0.034 C 
ATOM     89  H   UNL A   1      43.930  33.791  30.110  1.00  0.00     0.065 H 
ATOM     90  H   UNL A   1      40.854  34.811  29.708  1.00  0.00     0.065 H 
ATOM     91  C   UNL A   1      40.292  33.725  32.498  1.00  0.00     0.037 A 
ATOM     92  H   UNL A   1      42.306  35.504  31.197  1.00  0.00     0.065 H 
BRANCH  73  93
ATOM     93  C   UNL A   1      35.328  33.673  30.018  1.00  0.00     0.064 A 
ATOM     94  C   UNL A   1      34.762  33.751  31.296  1.00  0.00     0.173 A 
ATOM     95  C   UNL A   1      34.698  34.449  29.010  1.00  0.00     0.173 A 
ATOM     96  F   UNL A   1      35.286  33.076  32.327  1.00  0.00    -0.203 F 
ATOM     97  C   UNL A   1      33.693  34.615  31.567  1.00  0.00     0.198 A 
ATOM     98  C   UNL A   1      33.667  35.342  29.294  1.00  0.00     0.198 A 
ATOM     99  F   UNL A   1      35.131  34.409  27.740  1.00  0.00    -0.203 F 
ATOM    100  F   UNL A   1      33.213  34.700  32.816  1.00  0.00    -0.200 F 
ATOM    101  C   UNL A   1      33.176  35.438  30.580  1.00  0.00     0.200 A 
ATOM    102  F   UNL A   1      33.200  36.154  28.334  1.00  0.00    -0.200 F 
ATOM    103  F   UNL A   1      32.233  36.343  30.877  1.00  0.00    -0.200 F 
ENDBRANCH  73  93
BRANCH  76 104
ATOM    104  C   UNL A   1      45.532  31.447  31.815  1.00  0.00     0.064 A 
ATOM    105  C   UNL A   1      46.360  31.124  30.701  1.00  0.00     0.173 A 
ATOM    106  C   UNL A   1      46.248  31.715  32.989  1.00  0.00     0.173 A 
ATOM    107  F   UNL A   1      45.862  31.022  29.462  1.00  0.00    -0.203 F 
ATOM    108  C   UNL A   1      47.730  30.885  30.802  1.00  0.00     0.198 A 
ATOM    109  C   UNL A   1      47.639  31.519  33.082  1.00  0.00     0.198 A 
ATOM    110  F   UNL A   1      45.646  32.200  34.078  1.00  0.00    -0.203 F 
ATOM    111  F   UNL A   1      48.410  30.461  29.726  1.00  0.00    -0.200 F 
ATOM    112  C   UNL A   1      48.370  31.057  32.003  1.00  0.00     0.200 A 
ATOM    113  F   UNL A   1      48.267  31.767  34.241  1.00  0.00    -0.200 F 
ATOM    114  F   UNL A   1      49.679  30.801  32.117  1.00  0.00    -0.200 F 
ENDBRANCH  76 104
BRANCH  91 115
ATOM    115  C   UNL A   1      39.766  32.790  33.567  1.00  0.00     0.064 A 
ATOM    116  C   UNL A   1      39.769  33.081  34.941  1.00  0.00     0.173 A 
ATOM    117  C   UNL A   1      39.136  31.594  33.194  1.00  0.00     0.173 A 
ATOM    118  F   UNL A   1      40.344  34.191  35.398  1.00  0.00    -0.203 F 
ATOM    119  C   UNL A   1      39.183  32.239  35.888  1.00  0.00     0.198 A 
ATOM    120  C   UNL A   1      38.540  30.750  34.137  1.00  0.00     0.198 A 
ATOM    121  F   UNL A   1      39.101  31.233  31.901  1.00  0.00    -0.203 F 
ATOM    122  F   UNL A   1      39.228  32.558  37.191  1.00  0.00    -0.200 F 
ATOM    123  C   UNL A   1      38.564  31.074  35.484  1.00  0.00     0.200 A 
ATOM    124  F   UNL A   1      37.950  29.616  33.737  1.00  0.00    -0.200 F 
ATOM    125  F   UNL A   1      38.007  30.256  36.389  1.00  0.00    -0.200 F 
ENDBRANCH  91 115
ENDBRANCH  56  59
ENDBRANCH  46  49
ENDBRANCH  42  45
ENDBRANCH  39  42
ENDBRANCH  36  39
ENDBRANCH   1  36
TORSDOF 15
ENDMDL
MODEL 10
REMARK VINA RESULT:     -11.7      0.877      1.556
REMARK SMILES O=C(Cc1cccn1-c1ccccc1F)NCCCCCCNC(=O)c1ccc(-c2c3nc(c(-c4c(F)c(F)c(F)c(F)c4F)c4ccc([nH]4)c(-c4c(F)c(F)c(F)c(F)c4F)c4nc(c(-c5c(F)c(F)c(F)c(F)c5F)c5ccc2[nH]5)C=C4)C=C3)cc1
REMARK SMILES IDX 19 1 18 4 17 7 16 10 1 11 2 12 3 14 4 17 5 18 8 19 6 20 7 22
REMARK SMILES IDX 9 25 10 26 14 27 11 28 13 30 15 31 12 32 20 36 21 39 22 42
REMARK SMILES IDX 23 45 24 46 25 48 26 49 27 50 88 51 28 52 87 54 29 56 30 59
REMARK SMILES IDX 31 60 81 61 32 62 86 63 80 64 82 65 33 66 85 67 79 69 78 71
REMARK SMILES IDX 34 73 66 76 46 77 65 78 47 79 50 80 64 81 83 82 48 83 49 85
REMARK SMILES IDX 63 87 84 88 51 91 35 93 36 94 44 95 37 96 38 97 42 98 45 99
REMARK SMILES IDX 39 100 40 101 43 102 41 103 67 104 68 105 76 106 69 107
REMARK SMILES IDX 70 108 74 109 77 110 71 111 72 112 75 113 73 114 52 115
REMARK SMILES IDX 53 116 61 117 54 118 55 119 59 120 62 121 56 122 57 123
REMARK SMILES IDX 60 124 58 125
REMARK H PARENT 19 2 19 3 18 5 18 6 17 8 17 9 16 13 3 15 3 16 5 21 6 23 7 24
REMARK H PARENT 10 29 11 33 13 34 12 35 20 37 20 38 21 40 21 41 22 43 22 44
REMARK H PARENT 23 47 27 53 88 55 28 57 87 58 86 68 80 70 82 72 85 74 79 75
REMARK H PARENT 47 84 50 86 83 89 48 90 84 92
REMARK Flexibility Score: inf
ROOT
ATOM      1  C   UNL A   1      32.380  28.817  23.799  1.00  0.00    -0.052 C 
ATOM      2  H   UNL A   1      31.845  29.596  24.300  1.00  0.00     0.027 H 
ATOM      3  H   UNL A   1      32.857  29.103  22.884  1.00  0.00     0.027 H 
ENDROOT
BRANCH   1   4
ATOM      4  C   UNL A   1      31.359  27.748  23.388  1.00  0.00    -0.036 C 
ATOM      5  H   UNL A   1      31.188  27.123  24.240  1.00  0.00     0.028 H 
ATOM      6  H   UNL A   1      30.505  28.297  23.050  1.00  0.00     0.028 H 
BRANCH   4   7
ATOM      7  C   UNL A   1      31.731  26.835  22.215  1.00  0.00     0.017 C 
ATOM      8  H   UNL A   1      31.030  27.000  21.425  1.00  0.00     0.049 H 
ATOM      9  H   UNL A   1      32.734  27.083  21.937  1.00  0.00     0.049 H 
BRANCH   7  10
ATOM     10  N   UNL A   1      31.725  25.421  22.542  1.00  0.00    -0.356 N 
ATOM     11  O   UNL A   1      34.013  25.186  22.457  1.00  0.00    -0.275 OA
ATOM     12  C   UNL A   1      32.905  24.701  22.673  1.00  0.00     0.225 C 
ATOM     13  H   UNL A   1      30.865  24.961  22.673  1.00  0.00     0.163 HD
BRANCH  12  14
ATOM     14  C   UNL A   1      32.710  23.253  23.104  1.00  0.00     0.067 C 
ATOM     15  H   UNL A   1      33.615  22.723  22.891  1.00  0.00     0.043 H 
ATOM     16  H   UNL A   1      31.860  22.899  22.558  1.00  0.00     0.043 H 
BRANCH  14  17
ATOM     17  C   UNL A   1      32.380  23.043  24.559  1.00  0.00     0.032 A 
ATOM     18  C   UNL A   1      31.143  23.236  25.162  1.00  0.00    -0.040 A 
ATOM     19  N   UNL A   1      33.255  22.648  25.559  1.00  0.00    -0.318 N 
ATOM     20  C   UNL A   1      31.265  22.948  26.539  1.00  0.00    -0.044 A 
ATOM     21  H   UNL A   1      30.280  23.540  24.685  1.00  0.00     0.064 H 
ATOM     22  C   UNL A   1      32.561  22.549  26.748  1.00  0.00     0.009 A 
ATOM     23  H   UNL A   1      30.521  23.023  27.251  1.00  0.00     0.064 H 
ATOM     24  H   UNL A   1      32.953  22.227  27.647  1.00  0.00     0.082 H 
BRANCH  19  25
ATOM     25  C   UNL A   1      34.655  22.598  25.528  1.00  0.00     0.081 A 
ATOM     26  C   UNL A   1      35.402  23.762  25.728  1.00  0.00    -0.035 A 
ATOM     27  C   UNL A   1      35.264  21.410  25.144  1.00  0.00     0.147 A 
ATOM     28  C   UNL A   1      36.789  23.705  25.586  1.00  0.00    -0.060 A 
ATOM     29  H   UNL A   1      34.936  24.648  25.975  1.00  0.00     0.065 H 
ATOM     30  C   UNL A   1      36.632  21.381  24.922  1.00  0.00    -0.024 A 
ATOM     31  F   UNL A   1      34.552  20.287  24.969  1.00  0.00    -0.205 F 
ATOM     32  C   UNL A   1      37.402  22.519  25.174  1.00  0.00    -0.059 A 
ATOM     33  H   UNL A   1      37.363  24.539  25.787  1.00  0.00     0.062 H 
ATOM     34  H   UNL A   1      37.080  20.521  24.571  1.00  0.00     0.065 H 
ATOM     35  H   UNL A   1      38.427  22.484  25.053  1.00  0.00     0.062 H 
ENDBRANCH  19  25
ENDBRANCH  14  17
ENDBRANCH  12  14
ENDBRANCH   7  10
ENDBRANCH   4   7
ENDBRANCH   1   4
BRANCH   1  36
ATOM     36  C   UNL A   1      33.528  28.388  24.715  1.00  0.00    -0.052 C 
ATOM     37  H   UNL A   1      34.433  28.749  24.273  1.00  0.00     0.027 H 
ATOM     38  H   UNL A   1      33.418  27.326  24.783  1.00  0.00     0.027 H 
BRANCH  36  39
ATOM     39  C   UNL A   1      33.526  28.849  26.176  1.00  0.00    -0.036 C 
ATOM     40  H   UNL A   1      32.893  28.193  26.736  1.00  0.00     0.028 H 
ATOM     41  H   UNL A   1      33.177  29.861  26.182  1.00  0.00     0.028 H 
BRANCH  39  42
ATOM     42  C   UNL A   1      34.905  28.853  26.823  1.00  0.00     0.018 C 
ATOM     43  H   UNL A   1      35.628  28.529  26.104  1.00  0.00     0.049 H 
ATOM     44  H   UNL A   1      34.882  28.193  27.665  1.00  0.00     0.049 H 
BRANCH  42  45
ATOM     45  N   UNL A   1      35.271  30.185  27.295  1.00  0.00    -0.352 N 
ATOM     46  C   UNL A   1      36.388  30.595  27.987  1.00  0.00     0.251 C 
ATOM     47  H   UNL A   1      34.623  30.896  27.089  1.00  0.00     0.163 HD
ATOM     48  O   UNL A   1      36.420  31.679  28.539  1.00  0.00    -0.269 OA
BRANCH  46  49
ATOM     49  C   UNL A   1      37.536  29.679  28.093  1.00  0.00     0.039 A 
ATOM     50  C   UNL A   1      38.500  29.702  27.081  1.00  0.00    -0.049 A 
ATOM     51  C   UNL A   1      37.662  28.830  29.196  1.00  0.00    -0.049 A 
ATOM     52  C   UNL A   1      39.652  28.945  27.231  1.00  0.00    -0.053 A 
ATOM     53  H   UNL A   1      38.356  30.274  26.234  1.00  0.00     0.063 H 
ATOM     54  C   UNL A   1      38.834  28.117  29.377  1.00  0.00    -0.053 A 
ATOM     55  H   UNL A   1      36.887  28.736  29.871  1.00  0.00     0.063 H 
ATOM     56  C   UNL A   1      39.834  28.194  28.401  1.00  0.00    -0.014 A 
ATOM     57  H   UNL A   1      40.369  28.934  26.489  1.00  0.00     0.063 H 
ATOM     58  H   UNL A   1      38.968  27.535  30.219  1.00  0.00     0.063 H 
BRANCH  56  59
ATOM     59  C   UNL A   1      41.154  27.581  28.646  1.00  0.00     0.031 A 
ATOM     60  C   UNL A   1      41.227  26.138  28.121  1.00  0.00     0.074 A 
ATOM     61  C   UNL A   1      42.056  28.367  29.304  1.00  0.00     0.049 A 
ATOM     62  N   UNL A   1      41.936  25.134  28.534  1.00  0.00    -0.248 NA
ATOM     63  C   UNL A   1      40.325  25.730  27.007  1.00  0.00    -0.034 C 
ATOM     64  C   UNL A   1      41.803  29.771  29.688  1.00  0.00    -0.036 A 
ATOM     65  N   UNL A   1      43.334  28.178  29.787  1.00  0.00    -0.354 N 
ATOM     66  C   UNL A   1      41.705  24.049  27.657  1.00  0.00     0.074 A 
ATOM     67  C   UNL A   1      40.622  24.443  26.808  1.00  0.00    -0.034 C 
ATOM     68  H   UNL A   1      39.632  26.308  26.508  1.00  0.00     0.065 H 
ATOM     69  C   UNL A   1      42.833  30.268  30.399  1.00  0.00    -0.036 A 
ATOM     70  H   UNL A   1      40.951  30.299  29.446  1.00  0.00     0.065 H 
ATOM     71  C   UNL A   1      43.853  29.254  30.555  1.00  0.00     0.049 A 
ATOM     72  H   UNL A   1      43.850  27.357  29.612  1.00  0.00     0.167 HD
ATOM     73  C   UNL A   1      42.511  22.944  27.611  1.00  0.00     0.037 A 
ATOM     74  H   UNL A   1      40.140  23.822  26.139  1.00  0.00     0.065 H 
ATOM     75  H   UNL A   1      42.886  31.229  30.775  1.00  0.00     0.065 H 
ATOM     76  C   UNL A   1      44.987  29.305  31.319  1.00  0.00     0.037 A 
ATOM     77  C   UNL A   1      43.543  23.061  28.584  1.00  0.00     0.049 A 
ATOM     78  C   UNL A   1      45.684  28.032  31.063  1.00  0.00     0.074 A 
ATOM     79  C   UNL A   1      43.537  22.955  29.949  1.00  0.00    -0.036 A 
ATOM     80  N   UNL A   1      44.701  23.685  28.187  1.00  0.00    -0.354 N 
ATOM     81  N   UNL A   1      46.285  27.723  29.952  1.00  0.00    -0.248 NA
ATOM     82  C   UNL A   1      45.596  26.972  32.075  1.00  0.00    -0.034 C 
ATOM     83  C   UNL A   1      44.457  23.941  30.358  1.00  0.00    -0.036 A 
ATOM     84  H   UNL A   1      42.989  22.308  30.538  1.00  0.00     0.065 H 
ATOM     85  C   UNL A   1      45.134  24.447  29.243  1.00  0.00     0.049 A 
ATOM     86  H   UNL A   1      45.137  23.602  27.309  1.00  0.00     0.167 HD
ATOM     87  C   UNL A   1      46.342  26.350  30.024  1.00  0.00     0.074 A 
ATOM     88  C   UNL A   1      46.215  25.996  31.419  1.00  0.00    -0.034 C 
ATOM     89  H   UNL A   1      45.178  26.981  33.019  1.00  0.00     0.065 H 
ATOM     90  H   UNL A   1      44.609  24.242  31.333  1.00  0.00     0.065 H 
ATOM     91  C   UNL A   1      45.944  25.608  28.960  1.00  0.00     0.037 A 
ATOM     92  H   UNL A   1      46.554  25.117  31.841  1.00  0.00     0.065 H 
BRANCH  73  93
ATOM     93  C   UNL A   1      42.638  21.809  26.630  1.00  0.00     0.064 A 
ATOM     94  C   UNL A   1      43.516  21.822  25.540  1.00  0.00     0.173 A 
ATOM     95  C   UNL A   1      42.125  20.539  27.000  1.00  0.00     0.173 A 
ATOM     96  F   UNL A   1      44.075  22.963  25.116  1.00  0.00    -0.203 F 
ATOM     97  C   UNL A   1      43.923  20.635  24.918  1.00  0.00     0.198 A 
ATOM     98  C   UNL A   1      42.569  19.356  26.411  1.00  0.00     0.198 A 
ATOM     99  F   UNL A   1      41.238  20.420  28.001  1.00  0.00    -0.203 F 
ATOM    100  F   UNL A   1      44.807  20.685  23.911  1.00  0.00    -0.200 F 
ATOM    101  C   UNL A   1      43.484  19.404  25.380  1.00  0.00     0.200 A 
ATOM    102  F   UNL A   1      42.159  18.173  26.891  1.00  0.00    -0.200 F 
ATOM    103  F   UNL A   1      43.969  18.271  24.855  1.00  0.00    -0.200 F 
ENDBRANCH  73  93
BRANCH  76 104
ATOM    104  C   UNL A   1      45.556  30.211  32.392  1.00  0.00     0.064 A 
ATOM    105  C   UNL A   1      46.798  30.873  32.174  1.00  0.00     0.173 A 
ATOM    106  C   UNL A   1      45.030  30.410  33.675  1.00  0.00     0.173 A 
ATOM    107  F   UNL A   1      47.352  30.946  30.957  1.00  0.00    -0.203 F 
ATOM    108  C   UNL A   1      47.536  31.484  33.189  1.00  0.00     0.198 A 
ATOM    109  C   UNL A   1      45.751  31.067  34.690  1.00  0.00     0.198 A 
ATOM    110  F   UNL A   1      43.797  30.009  33.993  1.00  0.00    -0.203 F 
ATOM    111  F   UNL A   1      48.756  31.972  32.921  1.00  0.00    -0.200 F 
ATOM    112  C   UNL A   1      47.023  31.559  34.459  1.00  0.00     0.200 A 
ATOM    113  F   UNL A   1      45.206  31.204  35.907  1.00  0.00    -0.200 F 
ATOM    114  F   UNL A   1      47.735  32.117  35.446  1.00  0.00    -0.200 F 
ENDBRANCH  76 104
BRANCH  91 115
ATOM    115  C   UNL A   1      46.065  26.318  27.628  1.00  0.00     0.064 A 
ATOM    116  C   UNL A   1      44.971  26.746  26.860  1.00  0.00     0.173 A 
ATOM    117  C   UNL A   1      47.332  26.679  27.147  1.00  0.00     0.173 A 
ATOM    118  F   UNL A   1      43.726  26.453  27.229  1.00  0.00    -0.203 F 
ATOM    119  C   UNL A   1      45.122  27.488  25.687  1.00  0.00     0.198 A 
ATOM    120  C   UNL A   1      47.490  27.429  25.977  1.00  0.00     0.198 A 
ATOM    121  F   UNL A   1      48.433  26.297  27.813  1.00  0.00    -0.203 F 
ATOM    122  F   UNL A   1      44.040  27.859  24.982  1.00  0.00    -0.200 F 
ATOM    123  C   UNL A   1      46.383  27.833  25.247  1.00  0.00     0.200 A 
ATOM    124  F   UNL A   1      48.718  27.751  25.552  1.00  0.00    -0.200 F 
ATOM    125  F   UNL A   1      46.535  28.538  24.116  1.00  0.00    -0.200 F 
ENDBRANCH  91 115
ENDBRANCH  56  59
ENDBRANCH  46  49
ENDBRANCH  42  45
ENDBRANCH  39  42
ENDBRANCH  36  39
ENDBRANCH   1  36
TORSDOF 15
ENDMDL
