MODEL 1
REMARK VINA RESULT:     -12.4      0.000      0.000
REMARK SMILES CCc1cccc2c3c([nH]c12)[C@](CC)(CC(=O)NCCCCCCNC(=O)c1ccc(-c2c4nc(c(-c5c(F)c(F)c(F)c(F)c5F)c5ccc([nH]5)c(-c5c(F)c(F)c(F)c(F)c5F)c5nc(c(-c6c(F)c(F)c(F)c(F)c6F)c6ccc2[nH]6)C=C5)C=C4)cc1)OCC3
REMARK SMILES IDX 21 1 20 4 19 7 18 10 16 11 17 12 15 14 12 17 3 18 4 19 11 20
REMARK SMILES IDX 5 21 7 23 10 24 6 25 8 27 9 28 93 31 92 32 91 35 2 38 1 41
REMARK SMILES IDX 13 45 14 48 22 52 23 55 24 58 25 61 26 62 27 64 28 65 29 66
REMARK SMILES IDX 90 67 30 68 89 70 31 72 32 75 33 76 83 77 34 78 88 79 82 80
REMARK SMILES IDX 84 81 35 82 87 83 81 85 80 87 36 89 68 92 48 93 67 94 49 95
REMARK SMILES IDX 52 96 66 97 85 98 50 99 51 101 65 103 86 104 53 107 37 109
REMARK SMILES IDX 38 110 46 111 39 112 40 113 44 114 47 115 41 116 42 117
REMARK SMILES IDX 45 118 43 119 69 120 70 121 78 122 71 123 72 124 76 125
REMARK SMILES IDX 79 126 73 127 74 128 77 129 75 130 54 131 55 132 63 133
REMARK SMILES IDX 56 134 57 135 61 136 64 137 58 138 59 139 62 140 60 141
REMARK H PARENT 21 2 21 3 20 5 20 6 19 8 19 9 18 13 15 15 15 16 4 22 5 26
REMARK H PARENT 10 29 6 30 93 33 93 34 92 36 92 37 2 39 2 40 1 42 1 43 1 44
REMARK H PARENT 13 46 13 47 14 49 14 50 14 51 22 53 22 54 23 56 23 57 24 59
REMARK H PARENT 24 60 25 63 29 69 90 71 30 73 89 74 88 84 82 86 84 88 87 90
REMARK H PARENT 81 91 49 100 52 102 85 105 50 106 86 108
REMARK Flexibility Score: inf
ROOT
ATOM      1  C   UNL A   1      39.329  21.617  26.114  1.00  0.00    -0.052 C 
ATOM      2  H   UNL A   1      39.479  21.550  25.057  1.00  0.00     0.027 H 
ATOM      3  H   UNL A   1      38.471  21.073  26.452  1.00  0.00     0.027 H 
ENDROOT
BRANCH   1   4
ATOM      4  C   UNL A   1      39.076  23.094  26.470  1.00  0.00    -0.036 C 
ATOM      5  H   UNL A   1      39.155  23.192  27.534  1.00  0.00     0.028 H 
ATOM      6  H   UNL A   1      39.808  23.650  25.923  1.00  0.00     0.028 H 
BRANCH   4   7
ATOM      7  C   UNL A   1      37.717  23.670  26.046  1.00  0.00     0.017 C 
ATOM      8  H   UNL A   1      36.950  23.123  26.555  1.00  0.00     0.049 H 
ATOM      9  H   UNL A   1      37.739  24.708  26.301  1.00  0.00     0.049 H 
BRANCH   7  10
ATOM     10  N   UNL A   1      37.441  23.609  24.616  1.00  0.00    -0.356 N 
ATOM     11  C   UNL A   1      36.493  22.943  23.890  1.00  0.00     0.223 C 
ATOM     12  O   UNL A   1      36.550  23.023  22.662  1.00  0.00    -0.275 OA
ATOM     13  H   UNL A   1      38.054  24.151  24.068  1.00  0.00     0.163 HD
BRANCH  11  14
ATOM     14  C   UNL A   1      35.376  22.196  24.578  1.00  0.00     0.061 C 
ATOM     15  H   UNL A   1      35.272  21.259  24.075  1.00  0.00     0.040 H 
ATOM     16  H   UNL A   1      35.687  22.165  25.601  1.00  0.00     0.040 H 
BRANCH  14  17
ATOM     17  C   UNL A   1      33.965  22.831  24.644  1.00  0.00     0.117 C 
ATOM     18  C   UNL A   1      33.816  27.894  25.179  1.00  0.00    -0.024 A 
ATOM     19  C   UNL A   1      33.489  28.911  24.251  1.00  0.00    -0.057 A 
ATOM     20  C   UNL A   1      33.861  26.582  24.656  1.00  0.00     0.049 A 
ATOM     21  C   UNL A   1      33.232  28.654  22.906  1.00  0.00    -0.061 A 
ATOM     22  H   UNL A   1      33.440  29.887  24.584  1.00  0.00     0.063 H 
ATOM     23  C   UNL A   1      33.561  26.310  23.322  1.00  0.00     0.003 A 
ATOM     24  N   UNL A   1      34.142  25.360  25.257  1.00  0.00    -0.356 N 
ATOM     25  C   UNL A   1      33.259  27.352  22.432  1.00  0.00    -0.053 A 
ATOM     26  H   UNL A   1      33.021  29.434  22.264  1.00  0.00     0.062 H 
ATOM     27  C   UNL A   1      33.543  24.910  23.186  1.00  0.00    -0.014 A 
ATOM     28  C   UNL A   1      33.934  24.325  24.371  1.00  0.00     0.052 A 
ATOM     29  H   UNL A   1      34.449  25.249  26.187  1.00  0.00     0.166 HD
ATOM     30  H   UNL A   1      33.061  27.151  21.439  1.00  0.00     0.063 H 
ATOM     31  C   UNL A   1      33.049  24.143  22.040  1.00  0.00    -0.002 C 
ATOM     32  C   UNL A   1      33.099  22.659  22.340  1.00  0.00     0.052 C 
ATOM     33  H   UNL A   1      33.659  24.351  21.186  1.00  0.00     0.034 H 
ATOM     34  H   UNL A   1      32.035  24.424  21.844  1.00  0.00     0.034 H 
ATOM     35  O   UNL A   1      33.019  22.246  23.715  1.00  0.00    -0.368 OA
ATOM     36  H   UNL A   1      32.282  22.202  21.822  1.00  0.00     0.057 H 
ATOM     37  H   UNL A   1      34.077  22.356  22.026  1.00  0.00     0.057 H 
BRANCH  18  38
ATOM     38  C   UNL A   1      34.055  28.183  26.641  1.00  0.00    -0.029 C 
ATOM     39  H   UNL A   1      33.652  27.369  27.205  1.00  0.00     0.031 H 
ATOM     40  H   UNL A   1      35.113  28.308  26.738  1.00  0.00     0.031 H 
BRANCH  38  41
ATOM     41  C   UNL A   1      33.442  29.471  27.183  1.00  0.00    -0.061 C 
ATOM     42  H   UNL A   1      34.207  30.212  27.291  1.00  0.00     0.023 H 
ATOM     43  H   UNL A   1      32.994  29.280  28.136  1.00  0.00     0.023 H 
ATOM     44  H   UNL A   1      32.696  29.825  26.503  1.00  0.00     0.023 H 
ENDBRANCH  38  41
ENDBRANCH  18  38
BRANCH  17  45
ATOM     45  C   UNL A   1      33.360  22.536  26.057  1.00  0.00    -0.020 C 
ATOM     46  H   UNL A   1      32.666  21.728  25.955  1.00  0.00     0.030 H 
ATOM     47  H   UNL A   1      32.912  23.452  26.381  1.00  0.00     0.030 H 
BRANCH  45  48
ATOM     48  C   UNL A   1      34.374  22.156  27.142  1.00  0.00    -0.062 C 
ATOM     49  H   UNL A   1      35.126  22.912  27.209  1.00  0.00     0.023 H 
ATOM     50  H   UNL A   1      34.829  21.220  26.892  1.00  0.00     0.023 H 
ATOM     51  H   UNL A   1      33.872  22.067  28.083  1.00  0.00     0.023 H 
ENDBRANCH  45  48
ENDBRANCH  17  45
ENDBRANCH  14  17
ENDBRANCH  11  14
ENDBRANCH   7  10
ENDBRANCH   4   7
ENDBRANCH   1   4
BRANCH   1  52
ATOM     52  C   UNL A   1      40.532  20.995  26.804  1.00  0.00    -0.052 C 
ATOM     53  H   UNL A   1      40.248  20.736  27.804  1.00  0.00     0.027 H 
ATOM     54  H   UNL A   1      41.317  21.721  26.770  1.00  0.00     0.027 H 
BRANCH  52  55
ATOM     55  C   UNL A   1      41.067  19.739  26.119  1.00  0.00    -0.036 C 
ATOM     56  H   UNL A   1      41.025  19.893  25.061  1.00  0.00     0.028 H 
ATOM     57  H   UNL A   1      40.453  18.930  26.454  1.00  0.00     0.028 H 
BRANCH  55  58
ATOM     58  C   UNL A   1      42.509  19.365  26.488  1.00  0.00     0.018 C 
ATOM     59  H   UNL A   1      42.525  18.336  26.782  1.00  0.00     0.049 H 
ATOM     60  H   UNL A   1      42.806  20.022  27.279  1.00  0.00     0.049 H 
BRANCH  58  61
ATOM     61  N   UNL A   1      43.458  19.547  25.411  1.00  0.00    -0.352 N 
ATOM     62  C   UNL A   1      44.222  20.611  25.008  1.00  0.00     0.251 C 
ATOM     63  H   UNL A   1      43.580  18.744  24.854  1.00  0.00     0.163 HD
ATOM     64  O   UNL A   1      45.038  20.406  24.104  1.00  0.00    -0.269 OA
BRANCH  62  65
ATOM     65  C   UNL A   1      44.066  21.997  25.529  1.00  0.00     0.039 A 
ATOM     66  C   UNL A   1      44.793  22.541  26.584  1.00  0.00    -0.049 A 
ATOM     67  C   UNL A   1      43.058  22.782  24.940  1.00  0.00    -0.049 A 
ATOM     68  C   UNL A   1      44.409  23.742  27.155  1.00  0.00    -0.053 A 
ATOM     69  H   UNL A   1      45.624  22.045  26.943  1.00  0.00     0.063 H 
ATOM     70  C   UNL A   1      42.719  24.029  25.458  1.00  0.00    -0.053 A 
ATOM     71  H   UNL A   1      42.561  22.426  24.108  1.00  0.00     0.063 H 
ATOM     72  C   UNL A   1      43.355  24.479  26.606  1.00  0.00    -0.014 A 
ATOM     73  H   UNL A   1      44.902  24.095  27.990  1.00  0.00     0.063 H 
ATOM     74  H   UNL A   1      42.002  24.609  24.995  1.00  0.00     0.063 H 
BRANCH  72  75
ATOM     75  C   UNL A   1      43.083  25.774  27.223  1.00  0.00     0.031 A 
ATOM     76  C   UNL A   1      44.069  26.825  26.852  1.00  0.00     0.074 A 
ATOM     77  C   UNL A   1      42.043  26.043  28.039  1.00  0.00     0.049 A 
ATOM     78  N   UNL A   1      44.927  27.399  27.629  1.00  0.00    -0.248 NA
ATOM     79  C   UNL A   1      44.232  27.161  25.430  1.00  0.00    -0.034 C 
ATOM     80  C   UNL A   1      40.867  25.210  28.296  1.00  0.00    -0.036 A 
ATOM     81  N   UNL A   1      41.785  27.175  28.763  1.00  0.00    -0.354 N 
ATOM     82  C   UNL A   1      45.617  28.310  26.833  1.00  0.00     0.074 A 
ATOM     83  C   UNL A   1      45.251  28.023  25.472  1.00  0.00    -0.034 C 
ATOM     84  H   UNL A   1      43.699  26.821  24.614  1.00  0.00     0.065 H 
ATOM     85  C   UNL A   1      39.922  25.952  28.916  1.00  0.00    -0.036 A 
ATOM     86  H   UNL A   1      40.774  24.214  28.044  1.00  0.00     0.065 H 
ATOM     87  C   UNL A   1      40.486  27.250  29.246  1.00  0.00     0.049 A 
ATOM     88  H   UNL A   1      42.459  27.874  28.926  1.00  0.00     0.167 HD
ATOM     89  C   UNL A   1      46.228  29.387  27.397  1.00  0.00     0.037 A 
ATOM     90  H   UNL A   1      45.713  28.426  24.642  1.00  0.00     0.065 H 
ATOM     91  H   UNL A   1      38.958  25.646  29.122  1.00  0.00     0.065 H 
ATOM     92  C   UNL A   1      39.906  28.317  29.846  1.00  0.00     0.037 A 
ATOM     93  C   UNL A   1      46.403  29.197  28.813  1.00  0.00     0.049 A 
ATOM     94  C   UNL A   1      40.982  29.141  30.441  1.00  0.00     0.074 A 
ATOM     95  C   UNL A   1      47.288  28.551  29.646  1.00  0.00    -0.036 A 
ATOM     96  N   UNL A   1      45.284  29.478  29.545  1.00  0.00    -0.354 N 
ATOM     97  N   UNL A   1      41.719  28.751  31.443  1.00  0.00    -0.248 NA
ATOM     98  C   UNL A   1      41.461  30.324  29.731  1.00  0.00    -0.034 C 
ATOM     99  C   UNL A   1      46.595  28.334  30.877  1.00  0.00    -0.036 A 
ATOM    100  H   UNL A   1      48.258  28.278  29.425  1.00  0.00     0.065 H 
ATOM    101  C   UNL A   1      45.319  28.878  30.772  1.00  0.00     0.049 A 
ATOM    102  H   UNL A   1      44.543  30.044  29.227  1.00  0.00     0.167 HD
ATOM    103  C   UNL A   1      42.937  29.354  31.217  1.00  0.00     0.074 A 
ATOM    104  C   UNL A   1      42.671  30.441  30.285  1.00  0.00    -0.034 C 
ATOM    105  H   UNL A   1      41.000  30.902  29.011  1.00  0.00     0.065 H 
ATOM    106  H   UNL A   1      46.979  27.854  31.706  1.00  0.00     0.065 H 
ATOM    107  C   UNL A   1      44.098  28.712  31.524  1.00  0.00     0.037 A 
ATOM    108  H   UNL A   1      43.333  31.205  30.079  1.00  0.00     0.065 H 
BRANCH  89 109
ATOM    109  C   UNL A   1      46.194  30.785  26.813  1.00  0.00     0.064 A 
ATOM    110  C   UNL A   1      47.380  31.553  26.803  1.00  0.00     0.173 A 
ATOM    111  C   UNL A   1      45.005  31.513  26.589  1.00  0.00     0.173 A 
ATOM    112  F   UNL A   1      48.570  30.976  27.025  1.00  0.00    -0.203 F 
ATOM    113  C   UNL A   1      47.361  32.945  26.659  1.00  0.00     0.198 A 
ATOM    114  C   UNL A   1      44.996  32.894  26.398  1.00  0.00     0.198 A 
ATOM    115  F   UNL A   1      43.796  30.944  26.661  1.00  0.00    -0.203 F 
ATOM    116  F   UNL A   1      48.500  33.642  26.777  1.00  0.00    -0.200 F 
ATOM    117  C   UNL A   1      46.169  33.614  26.463  1.00  0.00     0.200 A 
ATOM    118  F   UNL A   1      43.825  33.528  26.236  1.00  0.00    -0.200 F 
ATOM    119  F   UNL A   1      46.140  34.951  26.385  1.00  0.00    -0.200 F 
ENDBRANCH  89 109
BRANCH  92 120
ATOM    120  C   UNL A   1      38.523  28.830  29.697  1.00  0.00     0.064 A 
ATOM    121  C   UNL A   1      37.727  29.080  30.830  1.00  0.00     0.173 A 
ATOM    122  C   UNL A   1      38.079  29.390  28.484  1.00  0.00     0.173 A 
ATOM    123  F   UNL A   1      38.091  28.603  32.029  1.00  0.00    -0.203 F 
ATOM    124  C   UNL A   1      36.599  29.902  30.766  1.00  0.00     0.198 A 
ATOM    125  C   UNL A   1      36.947  30.204  28.422  1.00  0.00     0.198 A 
ATOM    126  F   UNL A   1      38.792  29.247  27.358  1.00  0.00    -0.203 F 
ATOM    127  F   UNL A   1      35.920  30.192  31.886  1.00  0.00    -0.200 F 
ATOM    128  C   UNL A   1      36.221  30.480  29.566  1.00  0.00     0.200 A 
ATOM    129  F   UNL A   1      36.608  30.781  27.260  1.00  0.00    -0.200 F 
ATOM    130  F   UNL A   1      35.191  31.336  29.521  1.00  0.00    -0.200 F 
ENDBRANCH  92 120
BRANCH 107 131
ATOM    131  C   UNL A   1      44.046  27.657  32.580  1.00  0.00     0.064 A 
ATOM    132  C   UNL A   1      43.996  26.278  32.324  1.00  0.00     0.173 A 
ATOM    133  C   UNL A   1      44.129  28.070  33.916  1.00  0.00     0.173 A 
ATOM    134  F   UNL A   1      43.987  25.809  31.069  1.00  0.00    -0.203 F 
ATOM    135  C   UNL A   1      43.999  25.356  33.369  1.00  0.00     0.198 A 
ATOM    136  C   UNL A   1      44.168  27.148  34.954  1.00  0.00     0.198 A 
ATOM    137  F   UNL A   1      44.214  29.377  34.210  1.00  0.00    -0.203 F 
ATOM    138  F   UNL A   1      43.939  24.042  33.107  1.00  0.00    -0.200 F 
ATOM    139  C   UNL A   1      44.094  25.791  34.682  1.00  0.00     0.200 A 
ATOM    140  F   UNL A   1      44.301  27.573  36.218  1.00  0.00    -0.200 F 
ATOM    141  F   UNL A   1      44.138  24.904  35.685  1.00  0.00    -0.200 F 
ENDBRANCH 107 131
ENDBRANCH  72  75
ENDBRANCH  62  65
ENDBRANCH  58  61
ENDBRANCH  55  58
ENDBRANCH  52  55
ENDBRANCH   1  52
TORSDOF 18
ENDMDL
MODEL 2
REMARK VINA RESULT:     -11.8      3.533      9.275
REMARK SMILES CCc1cccc2c3c([nH]c12)[C@](CC)(CC(=O)NCCCCCCNC(=O)c1ccc(-c2c4nc(c(-c5c(F)c(F)c(F)c(F)c5F)c5ccc([nH]5)c(-c5c(F)c(F)c(F)c(F)c5F)c5nc(c(-c6c(F)c(F)c(F)c(F)c6F)c6ccc2[nH]6)C=C5)C=C4)cc1)OCC3
REMARK SMILES IDX 21 1 20 4 19 7 18 10 16 11 17 12 15 14 12 17 3 18 4 19 11 20
REMARK SMILES IDX 5 21 7 23 10 24 6 25 8 27 9 28 93 31 92 32 91 35 2 38 1 41
REMARK SMILES IDX 13 45 14 48 22 52 23 55 24 58 25 61 26 62 27 64 28 65 29 66
REMARK SMILES IDX 90 67 30 68 89 70 31 72 32 75 33 76 83 77 34 78 88 79 82 80
REMARK SMILES IDX 84 81 35 82 87 83 81 85 80 87 36 89 68 92 48 93 67 94 49 95
REMARK SMILES IDX 52 96 66 97 85 98 50 99 51 101 65 103 86 104 53 107 37 109
REMARK SMILES IDX 38 110 46 111 39 112 40 113 44 114 47 115 41 116 42 117
REMARK SMILES IDX 45 118 43 119 69 120 70 121 78 122 71 123 72 124 76 125
REMARK SMILES IDX 79 126 73 127 74 128 77 129 75 130 54 131 55 132 63 133
REMARK SMILES IDX 56 134 57 135 61 136 64 137 58 138 59 139 62 140 60 141
REMARK H PARENT 21 2 21 3 20 5 20 6 19 8 19 9 18 13 15 15 15 16 4 22 5 26
REMARK H PARENT 10 29 6 30 93 33 93 34 92 36 92 37 2 39 2 40 1 42 1 43 1 44
REMARK H PARENT 13 46 13 47 14 49 14 50 14 51 22 53 22 54 23 56 23 57 24 59
REMARK H PARENT 24 60 25 63 29 69 90 71 30 73 89 74 88 84 82 86 84 88 87 90
REMARK H PARENT 81 91 49 100 52 102 85 105 50 106 86 108
REMARK Flexibility Score: inf
ROOT
ATOM      1  C   UNL A   1      33.959  31.540  27.968  1.00  0.00    -0.052 C 
ATOM      2  H   UNL A   1      33.495  31.321  28.906  1.00  0.00     0.027 H 
ATOM      3  H   UNL A   1      33.281  31.489  27.142  1.00  0.00     0.027 H 
ENDROOT
BRANCH   1   4
ATOM      4  C   UNL A   1      35.042  30.476  27.710  1.00  0.00    -0.036 C 
ATOM      5  H   UNL A   1      35.775  30.907  27.058  1.00  0.00     0.028 H 
ATOM      6  H   UNL A   1      35.418  30.209  28.675  1.00  0.00     0.028 H 
BRANCH   4   7
ATOM      7  C   UNL A   1      34.563  29.162  27.075  1.00  0.00     0.017 C 
ATOM      8  H   UNL A   1      34.341  29.352  26.045  1.00  0.00     0.049 H 
ATOM      9  H   UNL A   1      35.355  28.456  27.215  1.00  0.00     0.049 H 
BRANCH   7  10
ATOM     10  N   UNL A   1      33.381  28.575  27.691  1.00  0.00    -0.356 N 
ATOM     11  C   UNL A   1      32.144  28.266  27.197  1.00  0.00     0.223 C 
ATOM     12  O   UNL A   1      31.302  27.837  27.987  1.00  0.00    -0.275 OA
ATOM     13  H   UNL A   1      33.494  28.359  28.645  1.00  0.00     0.163 HD
BRANCH  11  14
ATOM     14  C   UNL A   1      31.850  28.381  25.721  1.00  0.00     0.061 C 
ATOM     15  H   UNL A   1      30.875  28.808  25.630  1.00  0.00     0.040 H 
ATOM     16  H   UNL A   1      32.669  28.958  25.346  1.00  0.00     0.040 H 
BRANCH  14  17
ATOM     17  C   UNL A   1      31.868  27.106  24.842  1.00  0.00     0.117 C 
ATOM     18  C   UNL A   1      35.145  23.468  26.242  1.00  0.00    -0.024 A 
ATOM     19  C   UNL A   1      34.924  22.216  26.864  1.00  0.00    -0.057 A 
ATOM     20  C   UNL A   1      34.002  24.285  26.094  1.00  0.00     0.049 A 
ATOM     21  C   UNL A   1      33.671  21.804  27.311  1.00  0.00    -0.061 A 
ATOM     22  H   UNL A   1      35.727  21.580  26.993  1.00  0.00     0.063 H 
ATOM     23  C   UNL A   1      32.736  23.863  26.497  1.00  0.00     0.003 A 
ATOM     24  N   UNL A   1      33.841  25.553  25.543  1.00  0.00    -0.356 N 
ATOM     25  C   UNL A   1      32.566  22.620  27.125  1.00  0.00    -0.053 A 
ATOM     26  H   UNL A   1      33.565  20.890  27.779  1.00  0.00     0.062 H 
ATOM     27  C   UNL A   1      31.822  24.838  26.058  1.00  0.00    -0.014 A 
ATOM     28  C   UNL A   1      32.507  25.896  25.500  1.00  0.00     0.052 A 
ATOM     29  H   UNL A   1      34.578  26.126  25.230  1.00  0.00     0.166 HD
ATOM     30  H   UNL A   1      31.632  22.318  27.444  1.00  0.00     0.063 H 
ATOM     31  C   UNL A   1      30.362  24.728  26.035  1.00  0.00    -0.002 C 
ATOM     32  C   UNL A   1      29.754  25.952  25.380  1.00  0.00     0.052 C 
ATOM     33  H   UNL A   1      29.997  24.647  27.037  1.00  0.00     0.034 H 
ATOM     34  H   UNL A   1      30.086  23.861  25.473  1.00  0.00     0.034 H 
ATOM     35  O   UNL A   1      30.551  26.670  24.422  1.00  0.00    -0.368 OA
ATOM     36  H   UNL A   1      28.863  25.635  24.880  1.00  0.00     0.057 H 
ATOM     37  H   UNL A   1      29.614  26.644  26.184  1.00  0.00     0.057 H 
BRANCH  18  38
ATOM     38  C   UNL A   1      36.502  23.885  25.730  1.00  0.00    -0.029 C 
ATOM     39  H   UNL A   1      36.364  24.334  24.769  1.00  0.00     0.031 H 
ATOM     40  H   UNL A   1      36.898  24.545  26.473  1.00  0.00     0.031 H 
BRANCH  38  41
ATOM     41  C   UNL A   1      37.537  22.775  25.579  1.00  0.00    -0.061 C 
ATOM     42  H   UNL A   1      37.887  22.480  26.546  1.00  0.00     0.023 H 
ATOM     43  H   UNL A   1      38.360  23.131  24.995  1.00  0.00     0.023 H 
ATOM     44  H   UNL A   1      37.090  21.934  25.090  1.00  0.00     0.023 H 
ENDBRANCH  38  41
ENDBRANCH  18  38
BRANCH  17  45
ATOM     45  C   UNL A   1      32.613  27.442  23.507  1.00  0.00    -0.020 C 
ATOM     46  H   UNL A   1      31.917  27.323  22.703  1.00  0.00     0.030 H 
ATOM     47  H   UNL A   1      33.446  26.771  23.460  1.00  0.00     0.030 H 
BRANCH  45  48
ATOM     48  C   UNL A   1      33.203  28.853  23.418  1.00  0.00    -0.062 C 
ATOM     49  H   UNL A   1      32.512  29.556  23.831  1.00  0.00     0.023 H 
ATOM     50  H   UNL A   1      33.391  29.097  22.393  1.00  0.00     0.023 H 
ATOM     51  H   UNL A   1      34.121  28.891  23.966  1.00  0.00     0.023 H 
ENDBRANCH  45  48
ENDBRANCH  17  45
ENDBRANCH  14  17
ENDBRANCH  11  14
ENDBRANCH   7  10
ENDBRANCH   4   7
ENDBRANCH   1   4
BRANCH   1  52
ATOM     52  C   UNL A   1      34.472  32.970  28.015  1.00  0.00    -0.052 C 
ATOM     53  H   UNL A   1      34.999  33.167  27.103  1.00  0.00     0.027 H 
ATOM     54  H   UNL A   1      35.097  33.045  28.880  1.00  0.00     0.027 H 
BRANCH  52  55
ATOM     55  C   UNL A   1      33.378  34.024  28.173  1.00  0.00    -0.036 C 
ATOM     56  H   UNL A   1      32.518  33.549  28.596  1.00  0.00     0.028 H 
ATOM     57  H   UNL A   1      33.204  34.424  27.196  1.00  0.00     0.028 H 
BRANCH  55  58
ATOM     58  C   UNL A   1      33.751  35.216  29.064  1.00  0.00     0.018 C 
ATOM     59  H   UNL A   1      33.352  36.104  28.621  1.00  0.00     0.049 H 
ATOM     60  H   UNL A   1      34.819  35.232  29.127  1.00  0.00     0.049 H 
BRANCH  58  61
ATOM     61  N   UNL A   1      33.251  35.117  30.419  1.00  0.00    -0.352 N 
ATOM     62  C   UNL A   1      33.768  34.581  31.569  1.00  0.00     0.251 C 
ATOM     63  H   UNL A   1      32.358  35.515  30.538  1.00  0.00     0.163 HD
ATOM     64  O   UNL A   1      33.131  34.766  32.610  1.00  0.00    -0.269 OA
BRANCH  62  65
ATOM     65  C   UNL A   1      34.988  33.729  31.619  1.00  0.00     0.039 A 
ATOM     66  C   UNL A   1      36.296  34.206  31.646  1.00  0.00    -0.049 A 
ATOM     67  C   UNL A   1      34.787  32.337  31.571  1.00  0.00    -0.049 A 
ATOM     68  C   UNL A   1      37.360  33.345  31.443  1.00  0.00    -0.053 A 
ATOM     69  H   UNL A   1      36.472  35.208  31.819  1.00  0.00     0.063 H 
ATOM     70  C   UNL A   1      35.859  31.457  31.448  1.00  0.00    -0.053 A 
ATOM     71  H   UNL A   1      33.827  31.962  31.628  1.00  0.00     0.063 H 
ATOM     72  C   UNL A   1      37.143  31.970  31.321  1.00  0.00    -0.014 A 
ATOM     73  H   UNL A   1      38.320  33.721  31.380  1.00  0.00     0.063 H 
ATOM     74  H   UNL A   1      35.700  30.438  31.449  1.00  0.00     0.063 H 
BRANCH  72  75
ATOM     75  C   UNL A   1      38.335  31.135  31.198  1.00  0.00     0.031 A 
ATOM     76  C   UNL A   1      39.004  30.866  32.500  1.00  0.00     0.074 A 
ATOM     77  C   UNL A   1      38.809  30.623  30.045  1.00  0.00     0.049 A 
ATOM     78  N   UNL A   1      40.165  31.283  32.882  1.00  0.00    -0.248 NA
ATOM     79  C   UNL A   1      38.233  30.193  33.556  1.00  0.00    -0.034 C 
ATOM     80  C   UNL A   1      38.144  30.582  28.741  1.00  0.00    -0.036 A 
ATOM     81  N   UNL A   1      39.979  29.951  29.816  1.00  0.00    -0.354 N 
ATOM     82  C   UNL A   1      40.357  30.768  34.162  1.00  0.00     0.074 A 
ATOM     83  C   UNL A   1      39.090  30.231  34.580  1.00  0.00    -0.034 C 
ATOM     84  H   UNL A   1      37.282  29.795  33.517  1.00  0.00     0.065 H 
ATOM     85  C   UNL A   1      38.803  29.724  27.931  1.00  0.00    -0.036 A 
ATOM     86  H   UNL A   1      37.305  31.124  28.482  1.00  0.00     0.065 H 
ATOM     87  C   UNL A   1      40.019  29.288  28.597  1.00  0.00     0.049 A 
ATOM     88  H   UNL A   1      40.725  29.937  30.458  1.00  0.00     0.167 HD
ATOM     89  C   UNL A   1      41.615  30.605  34.653  1.00  0.00     0.037 A 
ATOM     90  H   UNL A   1      38.873  29.917  35.539  1.00  0.00     0.065 H 
ATOM     91  H   UNL A   1      38.492  29.426  26.992  1.00  0.00     0.065 H 
ATOM     92  C   UNL A   1      40.969  28.419  28.178  1.00  0.00     0.037 A 
ATOM     93  C   UNL A   1      42.566  31.379  33.900  1.00  0.00     0.049 A 
ATOM     94  C   UNL A   1      42.217  28.727  28.912  1.00  0.00     0.074 A 
ATOM     95  C   UNL A   1      43.002  32.684  33.858  1.00  0.00    -0.036 A 
ATOM     96  N   UNL A   1      42.966  30.778  32.740  1.00  0.00    -0.354 N 
ATOM     97  N   UNL A   1      42.897  29.827  28.749  1.00  0.00    -0.248 NA
ATOM     98  C   UNL A   1      42.586  27.927  30.077  1.00  0.00    -0.034 C 
ATOM     99  C   UNL A   1      43.564  32.879  32.559  1.00  0.00    -0.036 A 
ATOM    100  H   UNL A   1      42.937  33.383  34.615  1.00  0.00     0.065 H 
ATOM    101  C   UNL A   1      43.483  31.682  31.854  1.00  0.00     0.049 A 
ATOM    102  H   UNL A   1      42.891  29.812  32.564  1.00  0.00     0.167 HD
ATOM    103  C   UNL A   1      43.451  30.065  29.988  1.00  0.00     0.074 A 
ATOM    104  C   UNL A   1      43.393  28.793  30.695  1.00  0.00    -0.034 C 
ATOM    105  H   UNL A   1      42.305  26.972  30.345  1.00  0.00     0.065 H 
ATOM    106  H   UNL A   1      43.965  33.761  32.202  1.00  0.00     0.065 H 
ATOM    107  C   UNL A   1      43.585  31.337  30.456  1.00  0.00     0.037 A 
ATOM    108  H   UNL A   1      43.911  28.587  31.563  1.00  0.00     0.065 H 
BRANCH  89 109
ATOM    109  C   UNL A   1      42.070  29.389  35.436  1.00  0.00     0.064 A 
ATOM    110  C   UNL A   1      42.990  29.562  36.494  1.00  0.00     0.173 A 
ATOM    111  C   UNL A   1      41.917  28.062  34.982  1.00  0.00     0.173 A 
ATOM    112  F   UNL A   1      43.235  30.781  36.996  1.00  0.00    -0.203 F 
ATOM    113  C   UNL A   1      43.748  28.499  36.998  1.00  0.00     0.198 A 
ATOM    114  C   UNL A   1      42.640  26.998  35.520  1.00  0.00     0.198 A 
ATOM    115  F   UNL A   1      41.155  27.751  33.927  1.00  0.00    -0.203 F 
ATOM    116  F   UNL A   1      44.694  28.732  37.919  1.00  0.00    -0.200 F 
ATOM    117  C   UNL A   1      43.577  27.220  36.506  1.00  0.00     0.200 A 
ATOM    118  F   UNL A   1      42.479  25.768  35.010  1.00  0.00    -0.200 F 
ATOM    119  F   UNL A   1      44.343  26.211  36.943  1.00  0.00    -0.200 F 
ENDBRANCH  89 109
BRANCH  92 120
ATOM    120  C   UNL A   1      40.806  27.162  27.410  1.00  0.00     0.064 A 
ATOM    121  C   UNL A   1      41.639  26.883  26.311  1.00  0.00     0.173 A 
ATOM    122  C   UNL A   1      40.071  26.079  27.929  1.00  0.00     0.173 A 
ATOM    123  F   UNL A   1      42.391  27.853  25.770  1.00  0.00    -0.203 F 
ATOM    124  C   UNL A   1      41.783  25.586  25.810  1.00  0.00     0.198 A 
ATOM    125  C   UNL A   1      40.211  24.786  27.422  1.00  0.00     0.198 A 
ATOM    126  F   UNL A   1      39.285  26.232  29.004  1.00  0.00    -0.203 F 
ATOM    127  F   UNL A   1      42.656  25.345  24.821  1.00  0.00    -0.200 F 
ATOM    128  C   UNL A   1      41.084  24.535  26.379  1.00  0.00     0.200 A 
ATOM    129  F   UNL A   1      39.551  23.772  28.000  1.00  0.00    -0.200 F 
ATOM    130  F   UNL A   1      41.286  23.279  25.957  1.00  0.00    -0.200 F 
ENDBRANCH  92 120
BRANCH 107 131
ATOM    131  C   UNL A   1      43.666  32.439  29.452  1.00  0.00     0.064 A 
ATOM    132  C   UNL A   1      42.644  33.371  29.211  1.00  0.00     0.173 A 
ATOM    133  C   UNL A   1      44.872  32.598  28.757  1.00  0.00     0.173 A 
ATOM    134  F   UNL A   1      41.491  33.322  29.891  1.00  0.00    -0.203 F 
ATOM    135  C   UNL A   1      42.819  34.401  28.288  1.00  0.00     0.198 A 
ATOM    136  C   UNL A   1      45.055  33.646  27.863  1.00  0.00     0.198 A 
ATOM    137  F   UNL A   1      45.890  31.753  28.978  1.00  0.00    -0.203 F 
ATOM    138  F   UNL A   1      41.828  35.276  28.061  1.00  0.00    -0.200 F 
ATOM    139  C   UNL A   1      44.027  34.542  27.622  1.00  0.00     0.200 A 
ATOM    140  F   UNL A   1      46.239  33.802  27.254  1.00  0.00    -0.200 F 
ATOM    141  F   UNL A   1      44.209  35.556  26.765  1.00  0.00    -0.200 F 
ENDBRANCH 107 131
ENDBRANCH  72  75
ENDBRANCH  62  65
ENDBRANCH  58  61
ENDBRANCH  55  58
ENDBRANCH  52  55
ENDBRANCH   1  52
TORSDOF 18
ENDMDL
MODEL 3
REMARK VINA RESULT:     -11.6      3.756      7.309
REMARK SMILES CCc1cccc2c3c([nH]c12)[C@](CC)(CC(=O)NCCCCCCNC(=O)c1ccc(-c2c4nc(c(-c5c(F)c(F)c(F)c(F)c5F)c5ccc([nH]5)c(-c5c(F)c(F)c(F)c(F)c5F)c5nc(c(-c6c(F)c(F)c(F)c(F)c6F)c6ccc2[nH]6)C=C5)C=C4)cc1)OCC3
REMARK SMILES IDX 21 1 20 4 19 7 18 10 16 11 17 12 15 14 12 17 3 18 4 19 11 20
REMARK SMILES IDX 5 21 7 23 10 24 6 25 8 27 9 28 93 31 92 32 91 35 2 38 1 41
REMARK SMILES IDX 13 45 14 48 22 52 23 55 24 58 25 61 26 62 27 64 28 65 29 66
REMARK SMILES IDX 90 67 30 68 89 70 31 72 32 75 33 76 83 77 34 78 88 79 82 80
REMARK SMILES IDX 84 81 35 82 87 83 81 85 80 87 36 89 68 92 48 93 67 94 49 95
REMARK SMILES IDX 52 96 66 97 85 98 50 99 51 101 65 103 86 104 53 107 37 109
REMARK SMILES IDX 38 110 46 111 39 112 40 113 44 114 47 115 41 116 42 117
REMARK SMILES IDX 45 118 43 119 69 120 70 121 78 122 71 123 72 124 76 125
REMARK SMILES IDX 79 126 73 127 74 128 77 129 75 130 54 131 55 132 63 133
REMARK SMILES IDX 56 134 57 135 61 136 64 137 58 138 59 139 62 140 60 141
REMARK H PARENT 21 2 21 3 20 5 20 6 19 8 19 9 18 13 15 15 15 16 4 22 5 26
REMARK H PARENT 10 29 6 30 93 33 93 34 92 36 92 37 2 39 2 40 1 42 1 43 1 44
REMARK H PARENT 13 46 13 47 14 49 14 50 14 51 22 53 22 54 23 56 23 57 24 59
REMARK H PARENT 24 60 25 63 29 69 90 71 30 73 89 74 88 84 82 86 84 88 87 90
REMARK H PARENT 81 91 49 100 52 102 85 105 50 106 86 108
REMARK Flexibility Score: inf
ROOT
ATOM      1  C   UNL A   1      44.246  24.255  25.095  1.00  0.00    -0.052 C 
ATOM      2  H   UNL A   1      44.524  24.065  26.110  1.00  0.00     0.027 H 
ATOM      3  H   UNL A   1      45.087  24.373  24.444  1.00  0.00     0.027 H 
ENDROOT
BRANCH   1   4
ATOM      4  C   UNL A   1      43.471  25.586  25.052  1.00  0.00    -0.036 C 
ATOM      5  H   UNL A   1      43.141  25.739  24.045  1.00  0.00     0.028 H 
ATOM      6  H   UNL A   1      42.678  25.479  25.763  1.00  0.00     0.028 H 
BRANCH   4   7
ATOM      7  C   UNL A   1      44.249  26.837  25.487  1.00  0.00     0.017 C 
ATOM      8  H   UNL A   1      43.572  27.665  25.490  1.00  0.00     0.049 H 
ATOM      9  H   UNL A   1      44.654  26.617  26.452  1.00  0.00     0.049 H 
BRANCH   7  10
ATOM     10  N   UNL A   1      45.382  27.183  24.639  1.00  0.00    -0.356 N 
ATOM     11  C   UNL A   1      46.484  27.965  24.851  1.00  0.00     0.223 C 
ATOM     12  O   UNL A   1      47.255  28.138  23.906  1.00  0.00    -0.275 OA
ATOM     13  H   UNL A   1      45.349  26.776  23.743  1.00  0.00     0.163 HD
BRANCH  11  14
ATOM     14  C   UNL A   1      46.778  28.533  26.218  1.00  0.00     0.061 C 
ATOM     15  H   UNL A   1      47.394  29.394  26.072  1.00  0.00     0.040 H 
ATOM     16  H   UNL A   1      45.807  28.698  26.636  1.00  0.00     0.040 H 
BRANCH  14  17
ATOM     17  C   UNL A   1      47.483  27.647  27.274  1.00  0.00     0.117 C 
ATOM     18  C   UNL A   1      44.451  25.400  30.694  1.00  0.00    -0.024 A 
ATOM     19  C   UNL A   1      44.045  24.050  30.823  1.00  0.00    -0.057 A 
ATOM     20  C   UNL A   1      45.221  25.699  29.548  1.00  0.00     0.049 A 
ATOM     21  C   UNL A   1      44.370  23.071  29.888  1.00  0.00    -0.061 A 
ATOM     22  H   UNL A   1      43.483  23.780  31.645  1.00  0.00     0.063 H 
ATOM     23  C   UNL A   1      45.589  24.717  28.630  1.00  0.00     0.003 A 
ATOM     24  N   UNL A   1      45.782  26.891  29.100  1.00  0.00    -0.356 N 
ATOM     25  C   UNL A   1      45.150  23.393  28.788  1.00  0.00    -0.053 A 
ATOM     26  H   UNL A   1      44.030  22.104  30.014  1.00  0.00     0.062 H 
ATOM     27  C   UNL A   1      46.475  25.321  27.719  1.00  0.00    -0.014 A 
ATOM     28  C   UNL A   1      46.567  26.669  27.989  1.00  0.00     0.052 A 
ATOM     29  H   UNL A   1      45.637  27.771  29.517  1.00  0.00     0.166 HD
ATOM     30  H   UNL A   1      45.404  22.672  28.095  1.00  0.00     0.063 H 
ATOM     31  C   UNL A   1      47.309  24.645  26.723  1.00  0.00    -0.002 C 
ATOM     32  C   UNL A   1      48.205  25.646  26.022  1.00  0.00     0.052 C 
ATOM     33  H   UNL A   1      46.680  24.169  26.000  1.00  0.00     0.034 H 
ATOM     34  H   UNL A   1      47.919  23.917  27.214  1.00  0.00     0.034 H 
ATOM     35  O   UNL A   1      48.562  26.844  26.733  1.00  0.00    -0.368 OA
ATOM     36  H   UNL A   1      49.114  25.140  25.774  1.00  0.00     0.057 H 
ATOM     37  H   UNL A   1      47.623  25.991  25.192  1.00  0.00     0.057 H 
BRANCH  18  38
ATOM     38  C   UNL A   1      44.122  26.443  31.735  1.00  0.00    -0.029 C 
ATOM     39  H   UNL A   1      44.579  27.361  31.431  1.00  0.00     0.031 H 
ATOM     40  H   UNL A   1      43.055  26.474  31.781  1.00  0.00     0.031 H 
BRANCH  38  41
ATOM     41  C   UNL A   1      44.582  26.144  33.158  1.00  0.00    -0.061 C 
ATOM     42  H   UNL A   1      43.738  26.155  33.815  1.00  0.00     0.023 H 
ATOM     43  H   UNL A   1      45.286  26.888  33.469  1.00  0.00     0.023 H 
ATOM     44  H   UNL A   1      45.046  25.180  33.188  1.00  0.00     0.023 H 
ENDBRANCH  38  41
ENDBRANCH  18  38
BRANCH  17  45
ATOM     45  C   UNL A   1      48.177  28.585  28.316  1.00  0.00    -0.020 C 
ATOM     46  H   UNL A   1      47.546  28.643  29.178  1.00  0.00     0.030 H 
ATOM     47  H   UNL A   1      48.318  29.522  27.819  1.00  0.00     0.030 H 
BRANCH  45  48
ATOM     48  C   UNL A   1      49.570  28.141  28.779  1.00  0.00    -0.062 C 
ATOM     49  H   UNL A   1      49.908  28.786  29.562  1.00  0.00     0.023 H 
ATOM     50  H   UNL A   1      50.251  28.190  27.956  1.00  0.00     0.023 H 
ATOM     51  H   UNL A   1      49.521  27.135  29.141  1.00  0.00     0.023 H 
ENDBRANCH  45  48
ENDBRANCH  17  45
ENDBRANCH  14  17
ENDBRANCH  11  14
ENDBRANCH   7  10
ENDBRANCH   4   7
ENDBRANCH   1   4
BRANCH   1  52
ATOM     52  C   UNL A   1      43.471  23.053  24.582  1.00  0.00    -0.052 C 
ATOM     53  H   UNL A   1      43.852  22.797  23.615  1.00  0.00     0.027 H 
ATOM     54  H   UNL A   1      42.440  23.337  24.560  1.00  0.00     0.027 H 
BRANCH  52  55
ATOM     55  C   UNL A   1      43.566  21.818  25.476  1.00  0.00    -0.036 C 
ATOM     56  H   UNL A   1      44.596  21.667  25.726  1.00  0.00     0.028 H 
ATOM     57  H   UNL A   1      43.144  21.010  24.917  1.00  0.00     0.028 H 
BRANCH  55  58
ATOM     58  C   UNL A   1      42.766  21.901  26.782  1.00  0.00     0.018 C 
ATOM     59  H   UNL A   1      43.056  22.792  27.298  1.00  0.00     0.049 H 
ATOM     60  H   UNL A   1      42.986  21.014  27.338  1.00  0.00     0.049 H 
BRANCH  58  61
ATOM     61  N   UNL A   1      41.331  21.932  26.591  1.00  0.00    -0.352 N 
ATOM     62  C   UNL A   1      40.403  22.939  26.637  1.00  0.00     0.251 C 
ATOM     63  H   UNL A   1      40.942  21.050  26.387  1.00  0.00     0.163 HD
ATOM     64  O   UNL A   1      39.248  22.655  26.306  1.00  0.00    -0.269 OA
BRANCH  62  65
ATOM     65  C   UNL A   1      40.685  24.312  27.141  1.00  0.00     0.039 A 
ATOM     66  C   UNL A   1      41.509  24.614  28.221  1.00  0.00    -0.049 A 
ATOM     67  C   UNL A   1      40.007  25.368  26.504  1.00  0.00    -0.049 A 
ATOM     68  C   UNL A   1      41.514  25.886  28.765  1.00  0.00    -0.053 A 
ATOM     69  H   UNL A   1      42.122  23.884  28.617  1.00  0.00     0.063 H 
ATOM     70  C   UNL A   1      40.071  26.668  26.998  1.00  0.00    -0.053 A 
ATOM     71  H   UNL A   1      39.453  25.175  25.655  1.00  0.00     0.063 H 
ATOM     72  C   UNL A   1      40.777  26.913  28.168  1.00  0.00    -0.014 A 
ATOM     73  H   UNL A   1      42.064  26.078  29.618  1.00  0.00     0.063 H 
ATOM     74  H   UNL A   1      39.598  27.439  26.502  1.00  0.00     0.063 H 
BRANCH  72  75
ATOM     75  C   UNL A   1      40.915  28.239  28.764  1.00  0.00     0.031 A 
ATOM     76  C   UNL A   1      42.137  28.961  28.319  1.00  0.00     0.074 A 
ATOM     77  C   UNL A   1      40.040  28.801  29.621  1.00  0.00     0.049 A 
ATOM     78  N   UNL A   1      43.163  29.277  29.038  1.00  0.00    -0.248 NA
ATOM     79  C   UNL A   1      42.312  29.221  26.882  1.00  0.00    -0.034 C 
ATOM     80  C   UNL A   1      38.691  28.340  29.956  1.00  0.00    -0.036 A 
ATOM     81  N   UNL A   1      40.152  29.968  30.327  1.00  0.00    -0.354 N 
ATOM     82  C   UNL A   1      44.039  29.946  28.186  1.00  0.00     0.074 A 
ATOM     83  C   UNL A   1      43.535  29.758  26.852  1.00  0.00    -0.034 C 
ATOM     84  H   UNL A   1      41.662  29.038  26.101  1.00  0.00     0.065 H 
ATOM     85  C   UNL A   1      38.030  29.326  30.602  1.00  0.00    -0.036 A 
ATOM     86  H   UNL A   1      38.307  27.408  29.735  1.00  0.00     0.065 H 
ATOM     87  C   UNL A   1      38.954  30.415  30.869  1.00  0.00     0.049 A 
ATOM     88  H   UNL A   1      41.004  30.448  30.439  1.00  0.00     0.167 HD
ATOM     89  C   UNL A   1      44.959  30.811  28.692  1.00  0.00     0.037 A 
ATOM     90  H   UNL A   1      44.047  30.005  25.991  1.00  0.00     0.065 H 
ATOM     91  H   UNL A   1      37.031  29.309  30.861  1.00  0.00     0.065 H 
ATOM     92  C   UNL A   1      38.733  31.609  31.469  1.00  0.00     0.037 A 
ATOM     93  C   UNL A   1      45.149  30.595  30.102  1.00  0.00     0.049 A 
ATOM     94  C   UNL A   1      40.028  32.100  31.989  1.00  0.00     0.074 A 
ATOM     95  C   UNL A   1      45.857  29.734  30.908  1.00  0.00    -0.036 A 
ATOM     96  N   UNL A   1      44.196  31.191  30.880  1.00  0.00    -0.354 N 
ATOM     97  N   UNL A   1      40.678  31.528  32.965  1.00  0.00    -0.248 NA
ATOM     98  C   UNL A   1      40.785  33.090  31.227  1.00  0.00    -0.034 C 
ATOM     99  C   UNL A   1      45.199  29.737  32.176  1.00  0.00    -0.036 A 
ATOM    100  H   UNL A   1      46.698  29.194  30.648  1.00  0.00     0.065 H 
ATOM    101  C   UNL A   1      44.125  30.620  32.119  1.00  0.00     0.049 A 
ATOM    102  H   UNL A   1      43.630  31.940  30.583  1.00  0.00     0.167 HD
ATOM    103  C   UNL A   1      42.002  31.758  32.665  1.00  0.00     0.074 A 
ATOM    104  C   UNL A   1      42.005  32.865  31.719  1.00  0.00    -0.034 C 
ATOM    105  H   UNL A   1      40.468  33.767  30.515  1.00  0.00     0.065 H 
ATOM    106  H   UNL A   1      45.474  29.177  32.998  1.00  0.00     0.065 H 
ATOM    107  C   UNL A   1      42.949  30.816  32.933  1.00  0.00     0.037 A 
ATOM    108  H   UNL A   1      42.845  33.407  31.462  1.00  0.00     0.065 H 
BRANCH  89 109
ATOM    109  C   UNL A   1      45.291  32.155  28.074  1.00  0.00     0.064 A 
ATOM    110  C   UNL A   1      44.252  33.090  27.871  1.00  0.00     0.173 A 
ATOM    111  C   UNL A   1      46.486  32.422  27.371  1.00  0.00     0.173 A 
ATOM    112  F   UNL A   1      43.061  32.931  28.469  1.00  0.00    -0.203 F 
ATOM    113  C   UNL A   1      44.379  34.158  26.976  1.00  0.00     0.198 A 
ATOM    114  C   UNL A   1      46.625  33.515  26.517  1.00  0.00     0.198 A 
ATOM    115  F   UNL A   1      47.526  31.580  27.387  1.00  0.00    -0.203 F 
ATOM    116  F   UNL A   1      43.326  34.949  26.726  1.00  0.00    -0.200 F 
ATOM    117  C   UNL A   1      45.563  34.365  26.295  1.00  0.00     0.200 A 
ATOM    118  F   UNL A   1      47.774  33.683  25.845  1.00  0.00    -0.200 F 
ATOM    119  F   UNL A   1      45.670  35.350  25.393  1.00  0.00    -0.200 F 
ENDBRANCH  89 109
BRANCH  92 120
ATOM    120  C   UNL A   1      37.546  32.492  31.373  1.00  0.00     0.064 A 
ATOM    121  C   UNL A   1      37.297  33.228  30.200  1.00  0.00     0.173 A 
ATOM    122  C   UNL A   1      36.476  32.377  32.279  1.00  0.00     0.173 A 
ATOM    123  F   UNL A   1      38.256  33.367  29.273  1.00  0.00    -0.203 F 
ATOM    124  C   UNL A   1      36.032  33.754  29.919  1.00  0.00     0.198 A 
ATOM    125  C   UNL A   1      35.216  32.910  32.000  1.00  0.00     0.198 A 
ATOM    126  F   UNL A   1      36.599  31.657  33.403  1.00  0.00    -0.203 F 
ATOM    127  F   UNL A   1      35.811  34.370  28.749  1.00  0.00    -0.200 F 
ATOM    128  C   UNL A   1      34.988  33.576  30.811  1.00  0.00     0.200 A 
ATOM    129  F   UNL A   1      34.205  32.706  32.856  1.00  0.00    -0.200 F 
ATOM    130  F   UNL A   1      33.755  34.004  30.503  1.00  0.00    -0.200 F 
ENDBRANCH  92 120
BRANCH 107 131
ATOM    131  C   UNL A   1      42.658  29.831  34.017  1.00  0.00     0.064 A 
ATOM    132  C   UNL A   1      41.955  28.630  33.832  1.00  0.00     0.173 A 
ATOM    133  C   UNL A   1      43.186  30.089  35.288  1.00  0.00     0.173 A 
ATOM    134  F   UNL A   1      41.483  28.285  32.626  1.00  0.00    -0.203 F 
ATOM    135  C   UNL A   1      41.768  27.741  34.889  1.00  0.00     0.198 A 
ATOM    136  C   UNL A   1      43.028  29.185  36.331  1.00  0.00     0.198 A 
ATOM    137  F   UNL A   1      43.895  31.208  35.506  1.00  0.00    -0.203 F 
ATOM    138  F   UNL A   1      41.083  26.604  34.698  1.00  0.00    -0.200 F 
ATOM    139  C   UNL A   1      42.312  28.016  36.135  1.00  0.00     0.200 A 
ATOM    140  F   UNL A   1      43.591  29.436  37.521  1.00  0.00    -0.200 F 
ATOM    141  F   UNL A   1      42.166  27.142  37.141  1.00  0.00    -0.200 F 
ENDBRANCH 107 131
ENDBRANCH  72  75
ENDBRANCH  62  65
ENDBRANCH  58  61
ENDBRANCH  55  58
ENDBRANCH  52  55
ENDBRANCH   1  52
TORSDOF 18
ENDMDL
MODEL 4
REMARK VINA RESULT:     -11.6      3.113      8.802
REMARK SMILES CCc1cccc2c3c([nH]c12)[C@](CC)(CC(=O)NCCCCCCNC(=O)c1ccc(-c2c4nc(c(-c5c(F)c(F)c(F)c(F)c5F)c5ccc([nH]5)c(-c5c(F)c(F)c(F)c(F)c5F)c5nc(c(-c6c(F)c(F)c(F)c(F)c6F)c6ccc2[nH]6)C=C5)C=C4)cc1)OCC3
REMARK SMILES IDX 21 1 20 4 19 7 18 10 16 11 17 12 15 14 12 17 3 18 4 19 11 20
REMARK SMILES IDX 5 21 7 23 10 24 6 25 8 27 9 28 93 31 92 32 91 35 2 38 1 41
REMARK SMILES IDX 13 45 14 48 22 52 23 55 24 58 25 61 26 62 27 64 28 65 29 66
REMARK SMILES IDX 90 67 30 68 89 70 31 72 32 75 33 76 83 77 34 78 88 79 82 80
REMARK SMILES IDX 84 81 35 82 87 83 81 85 80 87 36 89 68 92 48 93 67 94 49 95
REMARK SMILES IDX 52 96 66 97 85 98 50 99 51 101 65 103 86 104 53 107 37 109
REMARK SMILES IDX 38 110 46 111 39 112 40 113 44 114 47 115 41 116 42 117
REMARK SMILES IDX 45 118 43 119 69 120 70 121 78 122 71 123 72 124 76 125
REMARK SMILES IDX 79 126 73 127 74 128 77 129 75 130 54 131 55 132 63 133
REMARK SMILES IDX 56 134 57 135 61 136 64 137 58 138 59 139 62 140 60 141
REMARK H PARENT 21 2 21 3 20 5 20 6 19 8 19 9 18 13 15 15 15 16 4 22 5 26
REMARK H PARENT 10 29 6 30 93 33 93 34 92 36 92 37 2 39 2 40 1 42 1 43 1 44
REMARK H PARENT 13 46 13 47 14 49 14 50 14 51 22 53 22 54 23 56 23 57 24 59
REMARK H PARENT 24 60 25 63 29 69 90 71 30 73 89 74 88 84 82 86 84 88 87 90
REMARK H PARENT 81 91 49 100 52 102 85 105 50 106 86 108
REMARK Flexibility Score: inf
ROOT
ATOM      1  C   UNL A   1      35.501  31.093  27.626  1.00  0.00    -0.052 C 
ATOM      2  H   UNL A   1      35.847  31.396  26.660  1.00  0.00     0.027 H 
ATOM      3  H   UNL A   1      36.143  31.411  28.421  1.00  0.00     0.027 H 
ENDROOT
BRANCH   1   4
ATOM      4  C   UNL A   1      35.486  29.554  27.667  1.00  0.00    -0.036 C 
ATOM      5  H   UNL A   1      36.445  29.208  27.341  1.00  0.00     0.028 H 
ATOM      6  H   UNL A   1      35.248  29.296  28.678  1.00  0.00     0.028 H 
BRANCH   4   7
ATOM      7  C   UNL A   1      34.420  28.863  26.804  1.00  0.00     0.017 C 
ATOM      8  H   UNL A   1      34.096  29.558  26.057  1.00  0.00     0.049 H 
ATOM      9  H   UNL A   1      34.883  27.989  26.397  1.00  0.00     0.049 H 
BRANCH   7  10
ATOM     10  N   UNL A   1      33.244  28.400  27.529  1.00  0.00    -0.356 N 
ATOM     11  C   UNL A   1      31.960  28.146  27.134  1.00  0.00     0.223 C 
ATOM     12  O   UNL A   1      31.145  27.828  28.001  1.00  0.00    -0.275 OA
ATOM     13  H   UNL A   1      33.405  28.239  28.487  1.00  0.00     0.163 HD
BRANCH  11  14
ATOM     14  C   UNL A   1      31.579  28.185  25.674  1.00  0.00     0.061 C 
ATOM     15  H   UNL A   1      30.592  28.590  25.620  1.00  0.00     0.040 H 
ATOM     16  H   UNL A   1      32.363  28.758  25.224  1.00  0.00     0.040 H 
BRANCH  14  17
ATOM     17  C   UNL A   1      31.572  26.870  24.855  1.00  0.00     0.117 C 
ATOM     18  C   UNL A   1      35.217  23.503  26.002  1.00  0.00    -0.024 A 
ATOM     19  C   UNL A   1      35.152  22.273  26.700  1.00  0.00    -0.057 A 
ATOM     20  C   UNL A   1      34.016  24.245  25.959  1.00  0.00     0.049 A 
ATOM     21  C   UNL A   1      33.990  21.813  27.314  1.00  0.00    -0.061 A 
ATOM     22  H   UNL A   1      36.003  21.692  26.757  1.00  0.00     0.063 H 
ATOM     23  C   UNL A   1      32.836  23.771  26.531  1.00  0.00     0.003 A 
ATOM     24  N   UNL A   1      33.710  25.471  25.377  1.00  0.00    -0.356 N 
ATOM     25  C   UNL A   1      32.821  22.554  27.230  1.00  0.00    -0.053 A 
ATOM     26  H   UNL A   1      33.999  20.920  27.831  1.00  0.00     0.062 H 
ATOM     27  C   UNL A   1      31.816  24.668  26.165  1.00  0.00    -0.014 A 
ATOM     28  C   UNL A   1      32.361  25.734  25.482  1.00  0.00     0.052 A 
ATOM     29  H   UNL A   1      34.367  26.069  24.951  1.00  0.00     0.166 HD
ATOM     30  H   UNL A   1      31.952  22.216  27.673  1.00  0.00     0.063 H 
ATOM     31  C   UNL A   1      30.373  24.473  26.325  1.00  0.00    -0.002 C 
ATOM     32  C   UNL A   1      29.615  25.625  25.697  1.00  0.00     0.052 C 
ATOM     33  H   UNL A   1      30.137  24.423  27.367  1.00  0.00     0.034 H 
ATOM     34  H   UNL A   1      30.088  23.564  25.840  1.00  0.00     0.034 H 
ATOM     35  O   UNL A   1      30.245  26.338  24.619  1.00  0.00    -0.368 OA
ATOM     36  H   UNL A   1      28.693  25.233  25.324  1.00  0.00     0.057 H 
ATOM     37  H   UNL A   1      29.529  26.348  26.482  1.00  0.00     0.057 H 
BRANCH  18  38
ATOM     38  C   UNL A   1      36.475  23.971  25.310  1.00  0.00    -0.029 C 
ATOM     39  H   UNL A   1      36.610  23.367  24.438  1.00  0.00     0.031 H 
ATOM     40  H   UNL A   1      36.320  25.010  25.110  1.00  0.00     0.031 H 
BRANCH  38  41
ATOM     41  C   UNL A   1      37.760  23.901  26.127  1.00  0.00    -0.061 C 
ATOM     42  H   UNL A   1      38.370  24.752  25.906  1.00  0.00     0.023 H 
ATOM     43  H   UNL A   1      38.293  23.007  25.879  1.00  0.00     0.023 H 
ATOM     44  H   UNL A   1      37.521  23.895  27.170  1.00  0.00     0.023 H 
ENDBRANCH  38  41
ENDBRANCH  18  38
BRANCH  17  45
ATOM     45  C   UNL A   1      32.130  27.180  23.426  1.00  0.00    -0.020 C 
ATOM     46  H   UNL A   1      33.195  27.079  23.460  1.00  0.00     0.030 H 
ATOM     47  H   UNL A   1      31.798  28.169  23.190  1.00  0.00     0.030 H 
BRANCH  45  48
ATOM     48  C   UNL A   1      31.605  26.278  22.303  1.00  0.00    -0.062 C 
ATOM     49  H   UNL A   1      31.905  26.676  21.357  1.00  0.00     0.023 H 
ATOM     50  H   UNL A   1      30.537  26.237  22.350  1.00  0.00     0.023 H 
ATOM     51  H   UNL A   1      32.005  25.293  22.420  1.00  0.00     0.023 H 
ENDBRANCH  45  48
ENDBRANCH  17  45
ENDBRANCH  14  17
ENDBRANCH  11  14
ENDBRANCH   7  10
ENDBRANCH   4   7
ENDBRANCH   1   4
BRANCH   1  52
ATOM     52  C   UNL A   1      34.152  31.748  27.874  1.00  0.00    -0.052 C 
ATOM     53  H   UNL A   1      33.695  31.264  28.714  1.00  0.00     0.027 H 
ATOM     54  H   UNL A   1      33.586  31.639  26.974  1.00  0.00     0.027 H 
BRANCH  52  55
ATOM     55  C   UNL A   1      34.227  33.245  28.167  1.00  0.00    -0.036 C 
ATOM     56  H   UNL A   1      33.271  33.561  28.530  1.00  0.00     0.028 H 
ATOM     57  H   UNL A   1      34.509  33.716  27.249  1.00  0.00     0.028 H 
BRANCH  55  58
ATOM     58  C   UNL A   1      35.286  33.650  29.201  1.00  0.00     0.018 C 
ATOM     59  H   UNL A   1      35.374  34.716  29.192  1.00  0.00     0.049 H 
ATOM     60  H   UNL A   1      36.195  33.160  28.921  1.00  0.00     0.049 H 
BRANCH  58  61
ATOM     61  N   UNL A   1      34.980  33.229  30.552  1.00  0.00    -0.352 N 
ATOM     62  C   UNL A   1      35.606  32.386  31.432  1.00  0.00     0.251 C 
ATOM     63  H   UNL A   1      34.156  33.629  30.912  1.00  0.00     0.163 HD
ATOM     64  O   UNL A   1      35.147  32.327  32.576  1.00  0.00    -0.269 OA
BRANCH  62  65
ATOM     65  C   UNL A   1      36.735  31.486  31.068  1.00  0.00     0.039 A 
ATOM     66  C   UNL A   1      36.656  30.099  30.983  1.00  0.00    -0.049 A 
ATOM     67  C   UNL A   1      37.986  32.096  30.859  1.00  0.00    -0.049 A 
ATOM     68  C   UNL A   1      37.806  29.336  30.882  1.00  0.00    -0.053 A 
ATOM     69  H   UNL A   1      35.733  29.637  30.995  1.00  0.00     0.063 H 
ATOM     70  C   UNL A   1      39.138  31.336  30.676  1.00  0.00    -0.053 A 
ATOM     71  H   UNL A   1      38.050  33.126  30.842  1.00  0.00     0.063 H 
ATOM     72  C   UNL A   1      39.053  29.952  30.751  1.00  0.00    -0.014 A 
ATOM     73  H   UNL A   1      37.743  28.306  30.906  1.00  0.00     0.063 H 
ATOM     74  H   UNL A   1      40.042  31.796  30.489  1.00  0.00     0.063 H 
BRANCH  72  75
ATOM     75  C   UNL A   1      40.197  29.064  30.562  1.00  0.00     0.031 A 
ATOM     76  C   UNL A   1      40.950  28.795  31.817  1.00  0.00     0.074 A 
ATOM     77  C   UNL A   1      40.561  28.504  29.390  1.00  0.00     0.049 A 
ATOM     78  N   UNL A   1      42.153  29.170  32.101  1.00  0.00    -0.248 NA
ATOM     79  C   UNL A   1      40.233  28.182  32.945  1.00  0.00    -0.034 C 
ATOM     80  C   UNL A   1      39.798  28.463  28.141  1.00  0.00    -0.036 A 
ATOM     81  N   UNL A   1      41.681  27.777  29.093  1.00  0.00    -0.354 N 
ATOM     82  C   UNL A   1      42.419  28.677  33.376  1.00  0.00     0.074 A 
ATOM     83  C   UNL A   1      41.166  28.205  33.901  1.00  0.00    -0.034 C 
ATOM     84  H   UNL A   1      39.266  27.825  32.987  1.00  0.00     0.065 H 
ATOM     85  C   UNL A   1      40.358  27.558  27.307  1.00  0.00    -0.036 A 
ATOM     86  H   UNL A   1      38.966  29.035  27.931  1.00  0.00     0.065 H 
ATOM     87  C   UNL A   1      41.601  27.085  27.892  1.00  0.00     0.049 A 
ATOM     88  H   UNL A   1      42.472  27.745  29.678  1.00  0.00     0.167 HD
ATOM     89  C   UNL A   1      43.703  28.470  33.776  1.00  0.00     0.037 A 
ATOM     90  H   UNL A   1      41.008  27.924  34.881  1.00  0.00     0.065 H 
ATOM     91  H   UNL A   1      39.965  27.253  26.402  1.00  0.00     0.065 H 
ATOM     92  C   UNL A   1      42.480  26.165  27.427  1.00  0.00     0.037 A 
ATOM     93  C   UNL A   1      44.626  29.184  32.935  1.00  0.00     0.049 A 
ATOM     94  C   UNL A   1      43.792  26.434  28.058  1.00  0.00     0.074 A 
ATOM     95  C   UNL A   1      45.112  30.467  32.826  1.00  0.00    -0.036 A 
ATOM     96  N   UNL A   1      44.912  28.539  31.765  1.00  0.00    -0.354 N 
ATOM     97  N   UNL A   1      44.503  27.500  27.816  1.00  0.00    -0.248 NA
ATOM     98  C   UNL A   1      44.213  25.647  29.213  1.00  0.00    -0.034 C 
ATOM     99  C   UNL A   1      45.583  30.607  31.485  1.00  0.00    -0.036 A 
ATOM    100  H   UNL A   1      45.133  31.186  33.567  1.00  0.00     0.065 H 
ATOM    101  C   UNL A   1      45.398  29.398  30.819  1.00  0.00     0.049 A 
ATOM    102  H   UNL A   1      44.783  27.573  31.620  1.00  0.00     0.167 HD
ATOM    103  C   UNL A   1      45.157  27.742  29.004  1.00  0.00     0.074 A 
ATOM    104  C   UNL A   1      45.100  26.491  29.746  1.00  0.00    -0.034 C 
ATOM    105  H   UNL A   1      43.913  24.711  29.527  1.00  0.00     0.065 H 
ATOM    106  H   UNL A   1      45.992  31.461  31.076  1.00  0.00     0.065 H 
ATOM    107  C   UNL A   1      45.381  29.017  29.428  1.00  0.00     0.037 A 
ATOM    108  H   UNL A   1      45.672  26.282  30.579  1.00  0.00     0.065 H 
BRANCH  89 109
ATOM    109  C   UNL A   1      44.163  27.254  34.556  1.00  0.00     0.064 A 
ATOM    110  C   UNL A   1      44.027  25.975  33.972  1.00  0.00     0.173 A 
ATOM    111  C   UNL A   1      44.401  27.258  35.947  1.00  0.00     0.173 A 
ATOM    112  F   UNL A   1      43.777  25.844  32.660  1.00  0.00    -0.203 F 
ATOM    113  C   UNL A   1      44.049  24.804  34.738  1.00  0.00     0.198 A 
ATOM    114  C   UNL A   1      44.471  26.085  36.699  1.00  0.00     0.198 A 
ATOM    115  F   UNL A   1      44.460  28.390  36.658  1.00  0.00    -0.203 F 
ATOM    116  F   UNL A   1      43.795  23.622  34.158  1.00  0.00    -0.200 F 
ATOM    117  C   UNL A   1      44.264  24.861  36.101  1.00  0.00     0.200 A 
ATOM    118  F   UNL A   1      44.654  26.165  38.025  1.00  0.00    -0.200 F 
ATOM    119  F   UNL A   1      44.227  23.749  36.846  1.00  0.00    -0.200 F 
ENDBRANCH  89 109
BRANCH  92 120
ATOM    120  C   UNL A   1      42.207  24.899  26.707  1.00  0.00     0.064 A 
ATOM    121  C   UNL A   1      42.987  24.525  25.598  1.00  0.00     0.173 A 
ATOM    122  C   UNL A   1      41.410  23.890  27.280  1.00  0.00     0.173 A 
ATOM    123  F   UNL A   1      43.792  25.420  25.006  1.00  0.00    -0.203 F 
ATOM    124  C   UNL A   1      43.025  23.206  25.138  1.00  0.00     0.198 A 
ATOM    125  C   UNL A   1      41.443  22.574  26.814  1.00  0.00     0.198 A 
ATOM    126  F   UNL A   1      40.666  24.134  28.368  1.00  0.00    -0.203 F 
ATOM    127  F   UNL A   1      43.851  22.871  24.137  1.00  0.00    -0.200 F 
ATOM    128  C   UNL A   1      42.268  22.227  25.760  1.00  0.00     0.200 A 
ATOM    129  F   UNL A   1      40.729  21.630  27.442  1.00  0.00    -0.200 F 
ATOM    130  F   UNL A   1      42.368  20.947  25.376  1.00  0.00    -0.200 F 
ENDBRANCH  92 120
BRANCH 107 131
ATOM    131  C   UNL A   1      45.431  30.091  28.391  1.00  0.00     0.064 A 
ATOM    132  C   UNL A   1      44.322  30.838  27.965  1.00  0.00     0.173 A 
ATOM    133  C   UNL A   1      46.686  30.426  27.864  1.00  0.00     0.173 A 
ATOM    134  F   UNL A   1      43.104  30.619  28.480  1.00  0.00    -0.203 F 
ATOM    135  C   UNL A   1      44.465  31.858  27.026  1.00  0.00     0.198 A 
ATOM    136  C   UNL A   1      46.830  31.467  26.955  1.00  0.00     0.198 A 
ATOM    137  F   UNL A   1      47.782  29.764  28.266  1.00  0.00    -0.203 F 
ATOM    138  F   UNL A   1      43.392  32.554  26.621  1.00  0.00    -0.200 F 
ATOM    139  C   UNL A   1      45.719  32.177  26.529  1.00  0.00     0.200 A 
ATOM    140  F   UNL A   1      48.050  31.797  26.510  1.00  0.00    -0.200 F 
ATOM    141  F   UNL A   1      45.862  33.185  25.657  1.00  0.00    -0.200 F 
ENDBRANCH 107 131
ENDBRANCH  72  75
ENDBRANCH  62  65
ENDBRANCH  58  61
ENDBRANCH  55  58
ENDBRANCH  52  55
ENDBRANCH   1  52
TORSDOF 18
ENDMDL
MODEL 5
REMARK VINA RESULT:     -11.5      2.781      8.665
REMARK SMILES CCc1cccc2c3c([nH]c12)[C@](CC)(CC(=O)NCCCCCCNC(=O)c1ccc(-c2c4nc(c(-c5c(F)c(F)c(F)c(F)c5F)c5ccc([nH]5)c(-c5c(F)c(F)c(F)c(F)c5F)c5nc(c(-c6c(F)c(F)c(F)c(F)c6F)c6ccc2[nH]6)C=C5)C=C4)cc1)OCC3
REMARK SMILES IDX 21 1 20 4 19 7 18 10 16 11 17 12 15 14 12 17 3 18 4 19 11 20
REMARK SMILES IDX 5 21 7 23 10 24 6 25 8 27 9 28 93 31 92 32 91 35 2 38 1 41
REMARK SMILES IDX 13 45 14 48 22 52 23 55 24 58 25 61 26 62 27 64 28 65 29 66
REMARK SMILES IDX 90 67 30 68 89 70 31 72 32 75 33 76 83 77 34 78 88 79 82 80
REMARK SMILES IDX 84 81 35 82 87 83 81 85 80 87 36 89 68 92 48 93 67 94 49 95
REMARK SMILES IDX 52 96 66 97 85 98 50 99 51 101 65 103 86 104 53 107 37 109
REMARK SMILES IDX 38 110 46 111 39 112 40 113 44 114 47 115 41 116 42 117
REMARK SMILES IDX 45 118 43 119 69 120 70 121 78 122 71 123 72 124 76 125
REMARK SMILES IDX 79 126 73 127 74 128 77 129 75 130 54 131 55 132 63 133
REMARK SMILES IDX 56 134 57 135 61 136 64 137 58 138 59 139 62 140 60 141
REMARK H PARENT 21 2 21 3 20 5 20 6 19 8 19 9 18 13 15 15 15 16 4 22 5 26
REMARK H PARENT 10 29 6 30 93 33 93 34 92 36 92 37 2 39 2 40 1 42 1 43 1 44
REMARK H PARENT 13 46 13 47 14 49 14 50 14 51 22 53 22 54 23 56 23 57 24 59
REMARK H PARENT 24 60 25 63 29 69 90 71 30 73 89 74 88 84 82 86 84 88 87 90
REMARK H PARENT 81 91 49 100 52 102 85 105 50 106 86 108
REMARK Flexibility Score: inf
ROOT
ATOM      1  C   UNL A   1      34.316  28.383  26.738  1.00  0.00    -0.052 C 
ATOM      2  H   UNL A   1      34.700  28.141  25.770  1.00  0.00     0.027 H 
ATOM      3  H   UNL A   1      34.406  27.580  27.439  1.00  0.00     0.027 H 
ENDROOT
BRANCH   1   4
ATOM      4  C   UNL A   1      32.810  28.673  26.597  1.00  0.00    -0.036 C 
ATOM      5  H   UNL A   1      32.631  29.661  26.969  1.00  0.00     0.028 H 
ATOM      6  H   UNL A   1      32.590  28.549  25.557  1.00  0.00     0.028 H 
BRANCH   4   7
ATOM      7  C   UNL A   1      31.864  27.715  27.337  1.00  0.00     0.017 C 
ATOM      8  H   UNL A   1      32.460  26.983  27.842  1.00  0.00     0.049 H 
ATOM      9  H   UNL A   1      31.283  28.320  28.000  1.00  0.00     0.049 H 
BRANCH   7  10
ATOM     10  N   UNL A   1      30.911  27.012  26.487  1.00  0.00    -0.356 N 
ATOM     11  C   UNL A   1      30.993  25.840  25.787  1.00  0.00     0.223 C 
ATOM     12  O   UNL A   1      30.034  25.525  25.082  1.00  0.00    -0.275 OA
ATOM     13  H   UNL A   1      30.042  27.467  26.401  1.00  0.00     0.163 HD
BRANCH  11  14
ATOM     14  C   UNL A   1      32.191  24.934  25.935  1.00  0.00     0.061 C 
ATOM     15  H   UNL A   1      32.808  25.355  26.700  1.00  0.00     0.040 H 
ATOM     16  H   UNL A   1      31.759  23.976  26.134  1.00  0.00     0.040 H 
BRANCH  14  17
ATOM     17  C   UNL A   1      33.104  24.676  24.711  1.00  0.00     0.117 C 
ATOM     18  C   UNL A   1      37.786  22.954  25.734  1.00  0.00    -0.024 A 
ATOM     19  C   UNL A   1      38.352  21.667  25.573  1.00  0.00    -0.057 A 
ATOM     20  C   UNL A   1      36.407  23.054  25.446  1.00  0.00     0.049 A 
ATOM     21  C   UNL A   1      37.612  20.561  25.164  1.00  0.00    -0.061 A 
ATOM     22  H   UNL A   1      39.358  21.542  25.768  1.00  0.00     0.063 H 
ATOM     23  C   UNL A   1      35.667  21.963  24.992  1.00  0.00     0.003 A 
ATOM     24  N   UNL A   1      35.532  24.135  25.493  1.00  0.00    -0.356 N 
ATOM     25  C   UNL A   1      36.265  20.700  24.863  1.00  0.00    -0.053 A 
ATOM     26  H   UNL A   1      38.066  19.637  25.083  1.00  0.00     0.062 H 
ATOM     27  C   UNL A   1      34.391  22.448  24.652  1.00  0.00    -0.014 A 
ATOM     28  C   UNL A   1      34.297  23.780  24.992  1.00  0.00     0.052 A 
ATOM     29  H   UNL A   1      35.762  25.029  25.837  1.00  0.00     0.166 HD
ATOM     30  H   UNL A   1      35.711  19.888  24.550  1.00  0.00     0.063 H 
ATOM     31  C   UNL A   1      33.347  21.735  23.914  1.00  0.00    -0.002 C 
ATOM     32  C   UNL A   1      32.168  22.652  23.655  1.00  0.00     0.052 C 
ATOM     33  H   UNL A   1      33.019  20.894  24.488  1.00  0.00     0.034 H 
ATOM     34  H   UNL A   1      33.744  21.407  22.976  1.00  0.00     0.034 H 
ATOM     35  O   UNL A   1      32.416  24.067  23.590  1.00  0.00    -0.368 OA
ATOM     36  H   UNL A   1      31.738  22.360  22.720  1.00  0.00     0.057 H 
ATOM     37  H   UNL A   1      31.540  22.529  24.514  1.00  0.00     0.057 H 
BRANCH  18  38
ATOM     38  C   UNL A   1      38.610  24.151  26.143  1.00  0.00    -0.029 C 
ATOM     39  H   UNL A   1      39.534  24.110  25.606  1.00  0.00     0.031 H 
ATOM     40  H   UNL A   1      38.005  25.004  25.918  1.00  0.00     0.031 H 
BRANCH  38  41
ATOM     41  C   UNL A   1      38.941  24.268  27.627  1.00  0.00    -0.061 C 
ATOM     42  H   UNL A   1      38.339  25.035  28.067  1.00  0.00     0.023 H 
ATOM     43  H   UNL A   1      39.976  24.515  27.744  1.00  0.00     0.023 H 
ATOM     44  H   UNL A   1      38.740  23.335  28.112  1.00  0.00     0.023 H 
ENDBRANCH  38  41
ENDBRANCH  18  38
BRANCH  17  45
ATOM     45  C   UNL A   1      33.593  26.058  24.165  1.00  0.00    -0.020 C 
ATOM     46  H   UNL A   1      34.663  26.065  24.197  1.00  0.00     0.030 H 
ATOM     47  H   UNL A   1      33.138  26.799  24.790  1.00  0.00     0.030 H 
BRANCH  45  48
ATOM     48  C   UNL A   1      33.161  26.393  22.732  1.00  0.00    -0.062 C 
ATOM     49  H   UNL A   1      33.622  27.307  22.425  1.00  0.00     0.023 H 
ATOM     50  H   UNL A   1      32.097  26.500  22.698  1.00  0.00     0.023 H 
ATOM     51  H   UNL A   1      33.461  25.603  22.076  1.00  0.00     0.023 H 
ENDBRANCH  45  48
ENDBRANCH  17  45
ENDBRANCH  14  17
ENDBRANCH  11  14
ENDBRANCH   7  10
ENDBRANCH   4   7
ENDBRANCH   1   4
BRANCH   1  52
ATOM     52  C   UNL A   1      35.134  29.536  27.298  1.00  0.00    -0.052 C 
ATOM     53  H   UNL A   1      35.946  29.727  26.627  1.00  0.00     0.027 H 
ATOM     54  H   UNL A   1      35.462  29.237  28.271  1.00  0.00     0.027 H 
BRANCH  52  55
ATOM     55  C   UNL A   1      34.348  30.833  27.479  1.00  0.00    -0.036 C 
ATOM     56  H   UNL A   1      33.519  30.632  28.125  1.00  0.00     0.028 H 
ATOM     57  H   UNL A   1      34.055  31.145  26.499  1.00  0.00     0.028 H 
BRANCH  55  58
ATOM     58  C   UNL A   1      35.149  31.996  28.078  1.00  0.00     0.018 C 
ATOM     59  H   UNL A   1      34.922  32.882  27.523  1.00  0.00     0.049 H 
ATOM     60  H   UNL A   1      36.182  31.725  28.016  1.00  0.00     0.049 H 
BRANCH  58  61
ATOM     61  N   UNL A   1      34.864  32.248  29.475  1.00  0.00    -0.352 N 
ATOM     62  C   UNL A   1      35.570  32.024  30.628  1.00  0.00     0.251 C 
ATOM     63  H   UNL A   1      33.985  32.666  29.628  1.00  0.00     0.163 HD
ATOM     64  O   UNL A   1      35.091  32.470  31.675  1.00  0.00    -0.269 OA
BRANCH  62  65
ATOM     65  C   UNL A   1      36.814  31.210  30.701  1.00  0.00     0.039 A 
ATOM     66  C   UNL A   1      38.107  31.726  30.720  1.00  0.00    -0.049 A 
ATOM     67  C   UNL A   1      36.655  29.812  30.684  1.00  0.00    -0.049 A 
ATOM     68  C   UNL A   1      39.197  30.894  30.539  1.00  0.00    -0.053 A 
ATOM     69  H   UNL A   1      38.253  32.737  30.871  1.00  0.00     0.063 H 
ATOM     70  C   UNL A   1      37.754  28.962  30.584  1.00  0.00    -0.053 A 
ATOM     71  H   UNL A   1      35.707  29.410  30.748  1.00  0.00     0.063 H 
ATOM     72  C   UNL A   1      39.022  29.510  30.448  1.00  0.00    -0.014 A 
ATOM     73  H   UNL A   1      40.145  31.297  30.470  1.00  0.00     0.063 H 
ATOM     74  H   UNL A   1      37.626  27.939  30.608  1.00  0.00     0.063 H 
BRANCH  72  75
ATOM     75  C   UNL A   1      40.239  28.709  30.348  1.00  0.00     0.031 A 
ATOM     76  C   UNL A   1      40.946  28.543  31.647  1.00  0.00     0.074 A 
ATOM     77  C   UNL A   1      40.705  28.142  29.217  1.00  0.00     0.049 A 
ATOM     78  N   UNL A   1      42.100  29.021  31.974  1.00  0.00    -0.248 NA
ATOM     79  C   UNL A   1      40.222  27.912  32.761  1.00  0.00    -0.034 C 
ATOM     80  C   UNL A   1      40.012  27.999  27.935  1.00  0.00    -0.036 A 
ATOM     81  N   UNL A   1      41.891  27.497  29.001  1.00  0.00    -0.354 N 
ATOM     82  C   UNL A   1      42.338  28.594  33.278  1.00  0.00     0.074 A 
ATOM     83  C   UNL A   1      41.100  28.041  33.759  1.00  0.00    -0.034 C 
ATOM     84  H   UNL A   1      39.284  27.481  32.770  1.00  0.00     0.065 H 
ATOM     85  C   UNL A   1      40.682  27.114  27.163  1.00  0.00    -0.036 A 
ATOM     86  H   UNL A   1      39.149  28.496  27.664  1.00  0.00     0.065 H 
ATOM     87  C   UNL A   1      41.926  26.761  27.824  1.00  0.00     0.049 A 
ATOM     88  H   UNL A   1      42.652  27.547  29.624  1.00  0.00     0.167 HD
ATOM     89  C   UNL A   1      43.612  28.502  33.747  1.00  0.00     0.037 A 
ATOM     90  H   UNL A   1      40.915  27.781  34.741  1.00  0.00     0.065 H 
ATOM     91  H   UNL A   1      40.361  26.750  26.251  1.00  0.00     0.065 H 
ATOM     92  C   UNL A   1      42.897  25.899  27.436  1.00  0.00     0.037 A 
ATOM     93  C   UNL A   1      44.519  29.260  32.926  1.00  0.00     0.049 A 
ATOM     94  C   UNL A   1      44.150  26.293  28.119  1.00  0.00     0.074 A 
ATOM     95  C   UNL A   1      44.909  30.573  32.793  1.00  0.00    -0.036 A 
ATOM     96  N   UNL A   1      44.913  28.601  31.795  1.00  0.00    -0.354 N 
ATOM     97  N   UNL A   1      44.787  27.403  27.872  1.00  0.00    -0.248 NA
ATOM     98  C   UNL A   1      44.572  25.580  29.321  1.00  0.00    -0.034 C 
ATOM     99  C   UNL A   1      45.435  30.705  31.471  1.00  0.00    -0.036 A 
ATOM    100  H   UNL A   1      44.836  31.315  33.507  1.00  0.00     0.065 H 
ATOM    101  C   UNL A   1      45.378  29.464  30.843  1.00  0.00     0.049 A 
ATOM    102  H   UNL A   1      44.867  27.624  31.680  1.00  0.00     0.167 HD
ATOM    103  C   UNL A   1      45.360  27.735  29.081  1.00  0.00     0.074 A 
ATOM    104  C   UNL A   1      45.362  26.508  29.865  1.00  0.00    -0.034 C 
ATOM    105  H   UNL A   1      44.329  24.634  29.655  1.00  0.00     0.065 H 
ATOM    106  H   UNL A   1      45.796  31.576  31.052  1.00  0.00     0.065 H 
ATOM    107  C   UNL A   1      45.462  29.037  29.467  1.00  0.00     0.037 A 
ATOM    108  H   UNL A   1      45.906  26.374  30.732  1.00  0.00     0.065 H 
BRANCH  89 109
ATOM    109  C   UNL A   1      44.125  27.353  34.592  1.00  0.00     0.064 A 
ATOM    110  C   UNL A   1      44.059  26.040  34.075  1.00  0.00     0.173 A 
ATOM    111  C   UNL A   1      44.349  27.441  35.983  1.00  0.00     0.173 A 
ATOM    112  F   UNL A   1      43.830  25.829  32.770  1.00  0.00    -0.203 F 
ATOM    113  C   UNL A   1      44.133  24.913  34.901  1.00  0.00     0.198 A 
ATOM    114  C   UNL A   1      44.470  26.314  36.796  1.00  0.00     0.198 A 
ATOM    115  F   UNL A   1      44.343  28.610  36.634  1.00  0.00    -0.203 F 
ATOM    116  F   UNL A   1      43.944  23.692  34.381  1.00  0.00    -0.200 F 
ATOM    117  C   UNL A   1      44.331  25.052  36.261  1.00  0.00     0.200 A 
ATOM    118  F   UNL A   1      44.635  26.471  38.117  1.00  0.00    -0.200 F 
ATOM    119  F   UNL A   1      44.342  23.979  37.063  1.00  0.00    -0.200 F 
ENDBRANCH  89 109
BRANCH  92 120
ATOM    120  C   UNL A   1      42.760  24.592  26.751  1.00  0.00     0.064 A 
ATOM    121  C   UNL A   1      43.280  24.406  25.457  1.00  0.00     0.173 A 
ATOM    122  C   UNL A   1      42.421  23.426  27.462  1.00  0.00     0.173 A 
ATOM    123  F   UNL A   1      43.651  25.464  24.719  1.00  0.00    -0.203 F 
ATOM    124  C   UNL A   1      43.516  23.130  24.938  1.00  0.00     0.198 A 
ATOM    125  C   UNL A   1      42.650  22.153  26.938  1.00  0.00     0.198 A 
ATOM    126  F   UNL A   1      41.960  23.496  28.719  1.00  0.00    -0.203 F 
ATOM    127  F   UNL A   1      44.099  22.995  23.738  1.00  0.00    -0.200 F 
ATOM    128  C   UNL A   1      43.219  22.005  25.687  1.00  0.00     0.200 A 
ATOM    129  F   UNL A   1      42.385  21.071  27.684  1.00  0.00    -0.200 F 
ATOM    130  F   UNL A   1      43.524  20.784  25.226  1.00  0.00    -0.200 F 
ENDBRANCH  92 120
BRANCH 107 131
ATOM    131  C   UNL A   1      45.481  30.077  28.396  1.00  0.00     0.064 A 
ATOM    132  C   UNL A   1      44.336  30.658  27.830  1.00  0.00     0.173 A 
ATOM    133  C   UNL A   1      46.730  30.559  27.981  1.00  0.00     0.173 A 
ATOM    134  F   UNL A   1      43.109  30.296  28.230  1.00  0.00    -0.203 F 
ATOM    135  C   UNL A   1      44.443  31.660  26.867  1.00  0.00     0.198 A 
ATOM    136  C   UNL A   1      46.833  31.582  27.046  1.00  0.00     0.198 A 
ATOM    137  F   UNL A   1      47.854  30.060  28.518  1.00  0.00    -0.203 F 
ATOM    138  F   UNL A   1      43.338  32.195  26.328  1.00  0.00    -0.200 F 
ATOM    139  C   UNL A   1      45.691  32.126  26.483  1.00  0.00     0.200 A 
ATOM    140  F   UNL A   1      48.040  32.056  26.710  1.00  0.00    -0.200 F 
ATOM    141  F   UNL A   1      45.793  33.117  25.586  1.00  0.00    -0.200 F 
ENDBRANCH 107 131
ENDBRANCH  72  75
ENDBRANCH  62  65
ENDBRANCH  58  61
ENDBRANCH  55  58
ENDBRANCH  52  55
ENDBRANCH   1  52
TORSDOF 18
ENDMDL
MODEL 6
REMARK VINA RESULT:     -11.4      2.734      8.678
REMARK SMILES CCc1cccc2c3c([nH]c12)[C@](CC)(CC(=O)NCCCCCCNC(=O)c1ccc(-c2c4nc(c(-c5c(F)c(F)c(F)c(F)c5F)c5ccc([nH]5)c(-c5c(F)c(F)c(F)c(F)c5F)c5nc(c(-c6c(F)c(F)c(F)c(F)c6F)c6ccc2[nH]6)C=C5)C=C4)cc1)OCC3
REMARK SMILES IDX 21 1 20 4 19 7 18 10 16 11 17 12 15 14 12 17 3 18 4 19 11 20
REMARK SMILES IDX 5 21 7 23 10 24 6 25 8 27 9 28 93 31 92 32 91 35 2 38 1 41
REMARK SMILES IDX 13 45 14 48 22 52 23 55 24 58 25 61 26 62 27 64 28 65 29 66
REMARK SMILES IDX 90 67 30 68 89 70 31 72 32 75 33 76 83 77 34 78 88 79 82 80
REMARK SMILES IDX 84 81 35 82 87 83 81 85 80 87 36 89 68 92 48 93 67 94 49 95
REMARK SMILES IDX 52 96 66 97 85 98 50 99 51 101 65 103 86 104 53 107 37 109
REMARK SMILES IDX 38 110 46 111 39 112 40 113 44 114 47 115 41 116 42 117
REMARK SMILES IDX 45 118 43 119 69 120 70 121 78 122 71 123 72 124 76 125
REMARK SMILES IDX 79 126 73 127 74 128 77 129 75 130 54 131 55 132 63 133
REMARK SMILES IDX 56 134 57 135 61 136 64 137 58 138 59 139 62 140 60 141
REMARK H PARENT 21 2 21 3 20 5 20 6 19 8 19 9 18 13 15 15 15 16 4 22 5 26
REMARK H PARENT 10 29 6 30 93 33 93 34 92 36 92 37 2 39 2 40 1 42 1 43 1 44
REMARK H PARENT 13 46 13 47 14 49 14 50 14 51 22 53 22 54 23 56 23 57 24 59
REMARK H PARENT 24 60 25 63 29 69 90 71 30 73 89 74 88 84 82 86 84 88 87 90
REMARK H PARENT 81 91 49 100 52 102 85 105 50 106 86 108
REMARK Flexibility Score: inf
ROOT
ATOM      1  C   UNL A   1      30.921  27.658  25.088  1.00  0.00    -0.052 C 
ATOM      2  H   UNL A   1      30.280  28.514  25.115  1.00  0.00     0.027 H 
ATOM      3  H   UNL A   1      31.484  27.584  24.181  1.00  0.00     0.027 H 
ENDROOT
BRANCH   1   4
ATOM      4  C   UNL A   1      30.041  26.397  25.160  1.00  0.00    -0.036 C 
ATOM      5  H   UNL A   1      29.938  26.128  26.191  1.00  0.00     0.028 H 
ATOM      6  H   UNL A   1      29.121  26.660  24.681  1.00  0.00     0.028 H 
BRANCH   4   7
ATOM      7  C   UNL A   1      30.561  25.164  24.404  1.00  0.00     0.017 C 
ATOM      8  H   UNL A   1      29.887  24.959  23.599  1.00  0.00     0.049 H 
ATOM      9  H   UNL A   1      31.550  25.408  24.078  1.00  0.00     0.049 H 
BRANCH   7  10
ATOM     10  N   UNL A   1      30.685  23.955  25.208  1.00  0.00    -0.356 N 
ATOM     11  C   UNL A   1      31.719  23.438  25.938  1.00  0.00     0.223 C 
ATOM     12  O   UNL A   1      31.554  22.338  26.467  1.00  0.00    -0.275 OA
ATOM     13  H   UNL A   1      29.867  23.407  25.232  1.00  0.00     0.163 HD
BRANCH  11  14
ATOM     14  C   UNL A   1      32.991  24.226  26.143  1.00  0.00     0.061 C 
ATOM     15  H   UNL A   1      32.704  25.241  26.312  1.00  0.00     0.040 H 
ATOM     16  H   UNL A   1      33.474  23.718  26.951  1.00  0.00     0.040 H 
BRANCH  14  17
ATOM     17  C   UNL A   1      34.064  24.240  25.027  1.00  0.00     0.117 C 
ATOM     18  C   UNL A   1      38.906  23.943  26.576  1.00  0.00    -0.024 A 
ATOM     19  C   UNL A   1      39.831  22.874  26.515  1.00  0.00    -0.057 A 
ATOM     20  C   UNL A   1      37.595  23.640  26.146  1.00  0.00     0.049 A 
ATOM     21  C   UNL A   1      39.487  21.600  26.068  1.00  0.00    -0.061 A 
ATOM     22  H   UNL A   1      40.804  23.044  26.815  1.00  0.00     0.063 H 
ATOM     23  C   UNL A   1      37.251  22.382  25.655  1.00  0.00     0.003 A 
ATOM     24  N   UNL A   1      36.447  24.423  26.069  1.00  0.00    -0.356 N 
ATOM     25  C   UNL A   1      38.197  21.345  25.629  1.00  0.00    -0.053 A 
ATOM     26  H   UNL A   1      40.192  20.847  26.064  1.00  0.00     0.062 H 
ATOM     27  C   UNL A   1      35.934  22.478  25.171  1.00  0.00    -0.014 A 
ATOM     28  C   UNL A   1      35.427  23.727  25.457  1.00  0.00     0.052 A 
ATOM     29  H   UNL A   1      36.373  25.346  26.405  1.00  0.00     0.166 HD
ATOM     30  H   UNL A   1      37.935  20.406  25.287  1.00  0.00     0.063 H 
ATOM     31  C   UNL A   1      35.223  21.492  24.354  1.00  0.00    -0.002 C 
ATOM     32  C   UNL A   1      33.865  22.030  23.948  1.00  0.00     0.052 C 
ATOM     33  H   UNL A   1      35.091  20.594  24.919  1.00  0.00     0.034 H 
ATOM     34  H   UNL A   1      35.795  21.291  23.473  1.00  0.00     0.034 H 
ATOM     35  O   UNL A   1      33.703  23.456  23.862  1.00  0.00    -0.368 OA
ATOM     36  H   UNL A   1      33.639  21.625  22.984  1.00  0.00     0.057 H 
ATOM     37  H   UNL A   1      33.211  21.732  24.742  1.00  0.00     0.057 H 
BRANCH  18  38
ATOM     38  C   UNL A   1      39.304  25.328  27.027  1.00  0.00    -0.029 C 
ATOM     39  H   UNL A   1      40.150  25.629  26.447  1.00  0.00     0.031 H 
ATOM     40  H   UNL A   1      38.434  25.934  26.888  1.00  0.00     0.031 H 
BRANCH  38  41
ATOM     41  C   UNL A   1      39.672  25.477  28.499  1.00  0.00    -0.061 C 
ATOM     42  H   UNL A   1      38.786  25.645  29.074  1.00  0.00     0.023 H 
ATOM     43  H   UNL A   1      40.337  26.309  28.618  1.00  0.00     0.023 H 
ATOM     44  H   UNL A   1      40.155  24.585  28.839  1.00  0.00     0.023 H 
ENDBRANCH  38  41
ENDBRANCH  18  38
BRANCH  17  45
ATOM     45  C   UNL A   1      34.192  25.704  24.489  1.00  0.00    -0.020 C 
ATOM     46  H   UNL A   1      35.225  25.980  24.529  1.00  0.00     0.030 H 
ATOM     47  H   UNL A   1      33.560  26.302  25.112  1.00  0.00     0.030 H 
BRANCH  45  48
ATOM     48  C   UNL A   1      33.699  25.925  23.054  1.00  0.00    -0.062 C 
ATOM     49  H   UNL A   1      33.001  25.158  22.794  1.00  0.00     0.023 H 
ATOM     50  H   UNL A   1      34.531  25.893  22.383  1.00  0.00     0.023 H 
ATOM     51  H   UNL A   1      33.222  26.880  22.984  1.00  0.00     0.023 H 
ENDBRANCH  45  48
ENDBRANCH  17  45
ENDBRANCH  14  17
ENDBRANCH  11  14
ENDBRANCH   7  10
ENDBRANCH   4   7
ENDBRANCH   1   4
BRANCH   1  52
ATOM     52  C   UNL A   1      31.935  27.790  26.213  1.00  0.00    -0.052 C 
ATOM     53  H   UNL A   1      32.551  26.914  26.212  1.00  0.00     0.027 H 
ATOM     54  H   UNL A   1      31.377  27.905  27.118  1.00  0.00     0.027 H 
BRANCH  52  55
ATOM     55  C   UNL A   1      32.842  29.014  26.099  1.00  0.00    -0.036 C 
ATOM     56  H   UNL A   1      32.249  29.837  25.759  1.00  0.00     0.028 H 
ATOM     57  H   UNL A   1      33.624  28.745  25.420  1.00  0.00     0.028 H 
BRANCH  55  58
ATOM     58  C   UNL A   1      33.533  29.430  27.404  1.00  0.00     0.018 C 
ATOM     59  H   UNL A   1      34.446  28.880  27.492  1.00  0.00     0.049 H 
ATOM     60  H   UNL A   1      32.848  29.218  28.198  1.00  0.00     0.049 H 
BRANCH  58  61
ATOM     61  N   UNL A   1      33.842  30.843  27.482  1.00  0.00    -0.352 N 
ATOM     62  C   UNL A   1      35.001  31.534  27.717  1.00  0.00     0.251 C 
ATOM     63  H   UNL A   1      33.061  31.425  27.335  1.00  0.00     0.163 HD
ATOM     64  O   UNL A   1      34.956  32.762  27.599  1.00  0.00    -0.269 OA
BRANCH  62  65
ATOM     65  C   UNL A   1      36.267  30.907  28.187  1.00  0.00     0.039 A 
ATOM     66  C   UNL A   1      37.240  31.546  28.949  1.00  0.00    -0.049 A 
ATOM     67  C   UNL A   1      36.511  29.586  27.766  1.00  0.00    -0.049 A 
ATOM     68  C   UNL A   1      38.485  30.967  29.126  1.00  0.00    -0.053 A 
ATOM     69  H   UNL A   1      37.033  32.458  29.386  1.00  0.00     0.063 H 
ATOM     70  C   UNL A   1      37.733  28.965  28.010  1.00  0.00    -0.053 A 
ATOM     71  H   UNL A   1      35.770  29.070  27.266  1.00  0.00     0.063 H 
ATOM     72  C   UNL A   1      38.742  29.682  28.638  1.00  0.00    -0.014 A 
ATOM     73  H   UNL A   1      39.228  31.486  29.621  1.00  0.00     0.063 H 
ATOM     74  H   UNL A   1      37.886  27.985  27.727  1.00  0.00     0.063 H 
BRANCH  72  75
ATOM     75  C   UNL A   1      40.054  29.122  28.951  1.00  0.00     0.031 A 
ATOM     76  C   UNL A   1      40.281  28.929  30.409  1.00  0.00     0.074 A 
ATOM     77  C   UNL A   1      40.990  28.781  28.043  1.00  0.00     0.049 A 
ATOM     78  N   UNL A   1      41.125  29.559  31.157  1.00  0.00    -0.248 NA
ATOM     79  C   UNL A   1      39.359  28.056  31.151  1.00  0.00    -0.034 C 
ATOM     80  C   UNL A   1      40.833  28.672  26.591  1.00  0.00    -0.036 A 
ATOM     81  N   UNL A   1      42.282  28.381  28.245  1.00  0.00    -0.354 N 
ATOM     82  C   UNL A   1      40.975  29.029  32.436  1.00  0.00     0.074 A 
ATOM     83  C   UNL A   1      39.788  28.217  32.405  1.00  0.00    -0.034 C 
ATOM     84  H   UNL A   1      38.586  27.472  30.796  1.00  0.00     0.065 H 
ATOM     85  C   UNL A   1      41.896  28.014  26.076  1.00  0.00    -0.036 A 
ATOM     86  H   UNL A   1      40.037  29.040  26.047  1.00  0.00     0.065 H 
ATOM     87  C   UNL A   1      42.875  27.806  27.129  1.00  0.00     0.049 A 
ATOM     88  H   UNL A   1      42.750  28.489  29.105  1.00  0.00     0.167 HD
ATOM     89  C   UNL A   1      41.995  29.105  33.333  1.00  0.00     0.037 A 
ATOM     90  H   UNL A   1      39.329  27.816  33.238  1.00  0.00     0.065 H 
ATOM     91  H   UNL A   1      41.994  27.708  25.095  1.00  0.00     0.065 H 
ATOM     92  C   UNL A   1      44.074  27.177  27.082  1.00  0.00     0.037 A 
ATOM     93  C   UNL A   1      42.957  30.099  32.936  1.00  0.00     0.049 A 
ATOM     94  C   UNL A   1      44.902  27.699  28.193  1.00  0.00     0.074 A 
ATOM     95  C   UNL A   1      43.092  31.466  33.017  1.00  0.00    -0.036 A 
ATOM     96  N   UNL A   1      43.846  29.656  31.998  1.00  0.00    -0.354 N 
ATOM     97  N   UNL A   1      45.344  28.924  28.249  1.00  0.00    -0.248 NA
ATOM     98  C   UNL A   1      45.013  26.934  29.431  1.00  0.00    -0.034 C 
ATOM     99  C   UNL A   1      44.007  31.842  31.986  1.00  0.00    -0.036 A 
ATOM    100  H   UNL A   1      42.624  32.095  33.689  1.00  0.00     0.065 H 
ATOM    101  C   UNL A   1      44.427  30.693  31.323  1.00  0.00     0.049 A 
ATOM    102  H   UNL A   1      44.044  28.706  31.829  1.00  0.00     0.167 HD
ATOM    103  C   UNL A   1      45.379  29.206  29.597  1.00  0.00     0.074 A 
ATOM    104  C   UNL A   1      45.357  27.915  30.269  1.00  0.00    -0.034 C 
ATOM    105  H   UNL A   1      44.869  25.927  29.608  1.00  0.00     0.065 H 
ATOM    106  H   UNL A   1      44.306  32.805  31.769  1.00  0.00     0.065 H 
ATOM    107  C   UNL A   1      45.071  30.452  30.054  1.00  0.00     0.037 A 
ATOM    108  H   UNL A   1      45.580  27.775  31.267  1.00  0.00     0.065 H 
BRANCH  89 109
ATOM    109  C   UNL A   1      42.404  27.971  34.252  1.00  0.00     0.064 A 
ATOM    110  C   UNL A   1      43.006  26.821  33.695  1.00  0.00     0.173 A 
ATOM    111  C   UNL A   1      41.928  27.821  35.573  1.00  0.00     0.173 A 
ATOM    112  F   UNL A   1      43.477  26.836  32.439  1.00  0.00    -0.203 F 
ATOM    113  C   UNL A   1      43.051  25.602  34.380  1.00  0.00     0.198 A 
ATOM    114  C   UNL A   1      42.019  26.616  36.270  1.00  0.00     0.198 A 
ATOM    115  F   UNL A   1      41.252  28.789  36.202  1.00  0.00    -0.203 F 
ATOM    116  F   UNL A   1      43.522  24.508  33.764  1.00  0.00    -0.200 F 
ATOM    117  C   UNL A   1      42.552  25.499  35.664  1.00  0.00     0.200 A 
ATOM    118  F   UNL A   1      41.504  26.531  37.505  1.00  0.00    -0.200 F 
ATOM    119  F   UNL A   1      42.539  24.321  36.300  1.00  0.00    -0.200 F 
ENDBRANCH  89 109
BRANCH  92 120
ATOM    120  C   UNL A   1      44.455  25.956  26.333  1.00  0.00     0.064 A 
ATOM    121  C   UNL A   1      45.604  25.944  25.523  1.00  0.00     0.173 A 
ATOM    122  C   UNL A   1      43.901  24.702  26.652  1.00  0.00     0.173 A 
ATOM    123  F   UNL A   1      46.209  27.095  25.191  1.00  0.00    -0.203 F 
ATOM    124  C   UNL A   1      46.204  24.749  25.118  1.00  0.00     0.198 A 
ATOM    125  C   UNL A   1      44.497  23.509  26.240  1.00  0.00     0.198 A 
ATOM    126  F   UNL A   1      42.832  24.605  27.455  1.00  0.00    -0.203 F 
ATOM    127  F   UNL A   1      47.351  24.779  24.424  1.00  0.00    -0.200 F 
ATOM    128  C   UNL A   1      45.661  23.532  25.494  1.00  0.00     0.200 A 
ATOM    129  F   UNL A   1      43.979  22.338  26.634  1.00  0.00    -0.200 F 
ATOM    130  F   UNL A   1      46.283  22.387  25.180  1.00  0.00    -0.200 F 
ENDBRANCH  92 120
BRANCH 107 131
ATOM    131  C   UNL A   1      45.251  31.598  29.114  1.00  0.00     0.064 A 
ATOM    132  C   UNL A   1      44.293  32.015  28.177  1.00  0.00     0.173 A 
ATOM    133  C   UNL A   1      46.426  32.353  29.228  1.00  0.00     0.173 A 
ATOM    134  F   UNL A   1      43.117  31.383  28.064  1.00  0.00    -0.203 F 
ATOM    135  C   UNL A   1      44.521  33.128  27.369  1.00  0.00     0.198 A 
ATOM    136  C   UNL A   1      46.635  33.482  28.445  1.00  0.00     0.198 A 
ATOM    137  F   UNL A   1      47.357  32.014  30.133  1.00  0.00    -0.203 F 
ATOM    138  F   UNL A   1      43.600  33.506  26.470  1.00  0.00    -0.200 F 
ATOM    139  C   UNL A   1      45.687  33.864  27.510  1.00  0.00     0.200 A 
ATOM    140  F   UNL A   1      47.745  34.213  28.615  1.00  0.00    -0.200 F 
ATOM    141  F   UNL A   1      45.888  34.958  26.761  1.00  0.00    -0.200 F 
ENDBRANCH 107 131
ENDBRANCH  72  75
ENDBRANCH  62  65
ENDBRANCH  58  61
ENDBRANCH  55  58
ENDBRANCH  52  55
ENDBRANCH   1  52
TORSDOF 18
ENDMDL
MODEL 7
REMARK VINA RESULT:     -11.4      2.544      3.811
REMARK SMILES CCc1cccc2c3c([nH]c12)[C@](CC)(CC(=O)NCCCCCCNC(=O)c1ccc(-c2c4nc(c(-c5c(F)c(F)c(F)c(F)c5F)c5ccc([nH]5)c(-c5c(F)c(F)c(F)c(F)c5F)c5nc(c(-c6c(F)c(F)c(F)c(F)c6F)c6ccc2[nH]6)C=C5)C=C4)cc1)OCC3
REMARK SMILES IDX 21 1 20 4 19 7 18 10 16 11 17 12 15 14 12 17 3 18 4 19 11 20
REMARK SMILES IDX 5 21 7 23 10 24 6 25 8 27 9 28 93 31 92 32 91 35 2 38 1 41
REMARK SMILES IDX 13 45 14 48 22 52 23 55 24 58 25 61 26 62 27 64 28 65 29 66
REMARK SMILES IDX 90 67 30 68 89 70 31 72 32 75 33 76 83 77 34 78 88 79 82 80
REMARK SMILES IDX 84 81 35 82 87 83 81 85 80 87 36 89 68 92 48 93 67 94 49 95
REMARK SMILES IDX 52 96 66 97 85 98 50 99 51 101 65 103 86 104 53 107 37 109
REMARK SMILES IDX 38 110 46 111 39 112 40 113 44 114 47 115 41 116 42 117
REMARK SMILES IDX 45 118 43 119 69 120 70 121 78 122 71 123 72 124 76 125
REMARK SMILES IDX 79 126 73 127 74 128 77 129 75 130 54 131 55 132 63 133
REMARK SMILES IDX 56 134 57 135 61 136 64 137 58 138 59 139 62 140 60 141
REMARK H PARENT 21 2 21 3 20 5 20 6 19 8 19 9 18 13 15 15 15 16 4 22 5 26
REMARK H PARENT 10 29 6 30 93 33 93 34 92 36 92 37 2 39 2 40 1 42 1 43 1 44
REMARK H PARENT 13 46 13 47 14 49 14 50 14 51 22 53 22 54 23 56 23 57 24 59
REMARK H PARENT 24 60 25 63 29 69 90 71 30 73 89 74 88 84 82 86 84 88 87 90
REMARK H PARENT 81 91 49 100 52 102 85 105 50 106 86 108
REMARK Flexibility Score: inf
ROOT
ATOM      1  C   UNL A   1      34.978  21.097  25.359  1.00  0.00    -0.052 C 
ATOM      2  H   UNL A   1      35.530  20.438  25.995  1.00  0.00     0.027 H 
ATOM      3  H   UNL A   1      34.441  21.849  25.897  1.00  0.00     0.027 H 
ENDROOT
BRANCH   1   4
ATOM      4  C   UNL A   1      33.924  20.263  24.606  1.00  0.00    -0.036 C 
ATOM      5  H   UNL A   1      34.071  20.420  23.557  1.00  0.00     0.028 H 
ATOM      6  H   UNL A   1      34.076  19.253  24.924  1.00  0.00     0.028 H 
BRANCH   4   7
ATOM      7  C   UNL A   1      32.455  20.580  24.926  1.00  0.00     0.017 C 
ATOM      8  H   UNL A   1      32.062  21.176  24.130  1.00  0.00     0.049 H 
ATOM      9  H   UNL A   1      31.962  19.636  25.033  1.00  0.00     0.049 H 
BRANCH   7  10
ATOM     10  N   UNL A   1      32.238  21.296  26.176  1.00  0.00    -0.356 N 
ATOM     11  C   UNL A   1      31.686  22.517  26.453  1.00  0.00     0.223 C 
ATOM     12  O   UNL A   1      31.703  22.902  27.623  1.00  0.00    -0.275 OA
ATOM     13  H   UNL A   1      32.546  20.808  26.974  1.00  0.00     0.163 HD
BRANCH  11  14
ATOM     14  C   UNL A   1      31.018  23.327  25.368  1.00  0.00     0.061 C 
ATOM     15  H   UNL A   1      30.540  22.633  24.711  1.00  0.00     0.040 H 
ATOM     16  H   UNL A   1      30.385  23.997  25.909  1.00  0.00     0.040 H 
BRANCH  14  17
ATOM     17  C   UNL A   1      31.876  24.266  24.485  1.00  0.00     0.117 C 
ATOM     18  C   UNL A   1      29.988  28.929  23.691  1.00  0.00    -0.024 A 
ATOM     19  C   UNL A   1      30.376  30.184  24.218  1.00  0.00    -0.057 A 
ATOM     20  C   UNL A   1      30.670  27.809  24.218  1.00  0.00     0.049 A 
ATOM     21  C   UNL A   1      31.358  30.323  25.195  1.00  0.00    -0.061 A 
ATOM     22  H   UNL A   1      29.909  31.034  23.864  1.00  0.00     0.063 H 
ATOM     23  C   UNL A   1      31.687  27.942  25.162  1.00  0.00     0.003 A 
ATOM     24  N   UNL A   1      30.557  26.450  23.945  1.00  0.00    -0.356 N 
ATOM     25  C   UNL A   1      32.027  29.205  25.671  1.00  0.00    -0.053 A 
ATOM     26  H   UNL A   1      31.590  31.259  25.564  1.00  0.00     0.062 H 
ATOM     27  C   UNL A   1      32.250  26.665  25.338  1.00  0.00    -0.014 A 
ATOM     28  C   UNL A   1      31.531  25.739  24.613  1.00  0.00     0.052 A 
ATOM     29  H   UNL A   1      29.874  26.050  23.358  1.00  0.00     0.166 HD
ATOM     30  H   UNL A   1      32.764  29.300  26.387  1.00  0.00     0.063 H 
ATOM     31  C   UNL A   1      33.491  26.340  26.045  1.00  0.00    -0.002 C 
ATOM     32  C   UNL A   1      33.803  24.864  25.904  1.00  0.00     0.052 C 
ATOM     33  H   UNL A   1      33.381  26.580  27.081  1.00  0.00     0.034 H 
ATOM     34  H   UNL A   1      34.292  26.907  25.620  1.00  0.00     0.034 H 
ATOM     35  O   UNL A   1      33.298  24.175  24.748  1.00  0.00    -0.368 OA
ATOM     36  H   UNL A   1      34.868  24.764  25.895  1.00  0.00     0.057 H 
ATOM     37  H   UNL A   1      33.301  24.405  26.731  1.00  0.00     0.057 H 
BRANCH  18  38
ATOM     38  C   UNL A   1      28.947  28.797  22.606  1.00  0.00    -0.029 C 
ATOM     39  H   UNL A   1      29.389  29.125  21.689  1.00  0.00     0.031 H 
ATOM     40  H   UNL A   1      28.655  27.769  22.614  1.00  0.00     0.031 H 
BRANCH  38  41
ATOM     41  C   UNL A   1      27.658  29.587  22.808  1.00  0.00    -0.061 C 
ATOM     42  H   UNL A   1      27.675  30.057  23.770  1.00  0.00     0.023 H 
ATOM     43  H   UNL A   1      26.820  28.924  22.750  1.00  0.00     0.023 H 
ATOM     44  H   UNL A   1      27.574  30.335  22.048  1.00  0.00     0.023 H 
ENDBRANCH  38  41
ENDBRANCH  18  38
BRANCH  17  45
ATOM     45  C   UNL A   1      31.723  23.812  22.995  1.00  0.00    -0.020 C 
ATOM     46  H   UNL A   1      31.466  24.673  22.414  1.00  0.00     0.030 H 
ATOM     47  H   UNL A   1      30.971  23.051  22.996  1.00  0.00     0.030 H 
BRANCH  45  48
ATOM     48  C   UNL A   1      32.968  23.173  22.369  1.00  0.00    -0.062 C 
ATOM     49  H   UNL A   1      33.792  23.260  23.045  1.00  0.00     0.023 H 
ATOM     50  H   UNL A   1      33.203  23.673  21.453  1.00  0.00     0.023 H 
ATOM     51  H   UNL A   1      32.777  22.139  22.171  1.00  0.00     0.023 H 
ENDBRANCH  45  48
ENDBRANCH  17  45
ENDBRANCH  14  17
ENDBRANCH  11  14
ENDBRANCH   7  10
ENDBRANCH   4   7
ENDBRANCH   1   4
BRANCH   1  52
ATOM     52  C   UNL A   1      35.964  21.829  24.464  1.00  0.00    -0.052 C 
ATOM     53  H   UNL A   1      35.877  22.879  24.659  1.00  0.00     0.027 H 
ATOM     54  H   UNL A   1      35.716  21.573  23.456  1.00  0.00     0.027 H 
BRANCH  52  55
ATOM     55  C   UNL A   1      37.422  21.423  24.673  1.00  0.00    -0.036 C 
ATOM     56  H   UNL A   1      37.946  21.582  23.754  1.00  0.00     0.028 H 
ATOM     57  H   UNL A   1      37.406  20.399  24.982  1.00  0.00     0.028 H 
BRANCH  55  58
ATOM     58  C   UNL A   1      38.155  22.194  25.779  1.00  0.00     0.018 C 
ATOM     59  H   UNL A   1      37.734  21.912  26.721  1.00  0.00     0.049 H 
ATOM     60  H   UNL A   1      38.028  23.235  25.567  1.00  0.00     0.049 H 
BRANCH  58  61
ATOM     61  N   UNL A   1      39.580  21.944  25.824  1.00  0.00    -0.352 N 
ATOM     62  C   UNL A   1      40.622  22.587  26.439  1.00  0.00     0.251 C 
ATOM     63  H   UNL A   1      39.858  21.152  25.308  1.00  0.00     0.163 HD
ATOM     64  O   UNL A   1      41.730  22.045  26.379  1.00  0.00    -0.269 OA
BRANCH  62  65
ATOM     65  C   UNL A   1      40.514  23.922  27.088  1.00  0.00     0.039 A 
ATOM     66  C   UNL A   1      39.523  24.862  26.823  1.00  0.00    -0.049 A 
ATOM     67  C   UNL A   1      41.538  24.270  27.990  1.00  0.00    -0.049 A 
ATOM     68  C   UNL A   1      39.644  26.160  27.286  1.00  0.00    -0.053 A 
ATOM     69  H   UNL A   1      38.691  24.589  26.277  1.00  0.00     0.063 H 
ATOM     70  C   UNL A   1      41.622  25.552  28.526  1.00  0.00    -0.053 A 
ATOM     71  H   UNL A   1      42.238  23.561  28.258  1.00  0.00     0.063 H 
ATOM     72  C   UNL A   1      40.708  26.515  28.122  1.00  0.00    -0.014 A 
ATOM     73  H   UNL A   1      38.947  26.871  27.013  1.00  0.00     0.063 H 
ATOM     74  H   UNL A   1      42.357  25.783  29.212  1.00  0.00     0.063 H 
BRANCH  72  75
ATOM     75  C   UNL A   1      40.701  27.884  28.631  1.00  0.00     0.031 A 
ATOM     76  C   UNL A   1      41.823  28.712  28.112  1.00  0.00     0.074 A 
ATOM     77  C   UNL A   1      39.781  28.395  29.473  1.00  0.00     0.049 A 
ATOM     78  N   UNL A   1      42.817  29.190  28.784  1.00  0.00    -0.248 NA
ATOM     79  C   UNL A   1      41.941  28.898  26.658  1.00  0.00    -0.034 C 
ATOM     80  C   UNL A   1      38.501  27.804  29.869  1.00  0.00    -0.036 A 
ATOM     81  N   UNL A   1      39.768  29.610  30.102  1.00  0.00    -0.354 N 
ATOM     82  C   UNL A   1      43.594  29.899  27.871  1.00  0.00     0.074 A 
ATOM     83  C   UNL A   1      43.092  29.569  26.565  1.00  0.00    -0.034 C 
ATOM     84  H   UNL A   1      41.303  28.591  25.907  1.00  0.00     0.065 H 
ATOM     85  C   UNL A   1      37.741  28.747  30.468  1.00  0.00    -0.036 A 
ATOM     86  H   UNL A   1      38.225  26.822  29.716  1.00  0.00     0.065 H 
ATOM     87  C   UNL A   1      38.537  29.950  30.646  1.00  0.00     0.049 A 
ATOM     88  H   UNL A   1      40.560  30.192  30.163  1.00  0.00     0.167 HD
ATOM     89  C   UNL A   1      44.416  30.895  28.300  1.00  0.00     0.037 A 
ATOM     90  H   UNL A   1      43.557  29.817  25.677  1.00  0.00     0.065 H 
ATOM     91  H   UNL A   1      36.755  28.631  30.753  1.00  0.00     0.065 H 
ATOM     92  C   UNL A   1      38.188  31.147  31.175  1.00  0.00     0.037 A 
ATOM     93  C   UNL A   1      44.653  30.794  29.716  1.00  0.00     0.049 A 
ATOM     94  C   UNL A   1      39.426  31.817  31.632  1.00  0.00     0.074 A 
ATOM     95  C   UNL A   1      45.471  30.074  30.556  1.00  0.00    -0.036 A 
ATOM     96  N   UNL A   1      43.651  31.325  30.478  1.00  0.00    -0.354 N 
ATOM     97  N   UNL A   1      40.154  31.387  32.625  1.00  0.00    -0.248 NA
ATOM     98  C   UNL A   1      40.048  32.836  30.792  1.00  0.00    -0.034 C 
ATOM     99  C   UNL A   1      44.839  30.082  31.837  1.00  0.00    -0.036 A 
ATOM    100  H   UNL A   1      46.364  29.619  30.309  1.00  0.00     0.065 H 
ATOM    101  C   UNL A   1      43.669  30.830  31.752  1.00  0.00     0.049 A 
ATOM    102  H   UNL A   1      42.996  31.983  30.150  1.00  0.00     0.167 HD
ATOM    103  C   UNL A   1      41.438  31.748  32.278  1.00  0.00     0.074 A 
ATOM    104  C   UNL A   1      41.295  32.785  31.266  1.00  0.00    -0.034 C 
ATOM    105  H   UNL A   1      39.642  33.424  30.047  1.00  0.00     0.065 H 
ATOM    106  H   UNL A   1      45.192  29.612  32.685  1.00  0.00     0.065 H 
ATOM    107  C   UNL A   1      42.492  30.941  32.581  1.00  0.00     0.037 A 
ATOM    108  H   UNL A   1      42.061  33.403  30.955  1.00  0.00     0.065 H 
BRANCH  89 109
ATOM    109  C   UNL A   1      44.577  32.226  27.592  1.00  0.00     0.064 A 
ATOM    110  C   UNL A   1      45.734  32.451  26.813  1.00  0.00     0.173 A 
ATOM    111  C   UNL A   1      43.837  33.383  27.918  1.00  0.00     0.173 A 
ATOM    112  F   UNL A   1      46.530  31.430  26.459  1.00  0.00    -0.203 F 
ATOM    113  C   UNL A   1      46.152  33.739  26.461  1.00  0.00     0.198 A 
ATOM    114  C   UNL A   1      44.232  34.661  27.523  1.00  0.00     0.198 A 
ATOM    115  F   UNL A   1      42.771  33.344  28.725  1.00  0.00    -0.203 F 
ATOM    116  F   UNL A   1      47.320  33.911  25.826  1.00  0.00    -0.200 F 
ATOM    117  C   UNL A   1      45.404  34.843  26.822  1.00  0.00     0.200 A 
ATOM    118  F   UNL A   1      43.506  35.721  27.907  1.00  0.00    -0.200 F 
ATOM    119  F   UNL A   1      45.831  36.080  26.539  1.00  0.00    -0.200 F 
ENDBRANCH  89 109
BRANCH  92 120
ATOM    120  C   UNL A   1      36.904  31.879  31.054  1.00  0.00     0.064 A 
ATOM    121  C   UNL A   1      36.072  32.052  32.175  1.00  0.00     0.173 A 
ATOM    122  C   UNL A   1      36.631  32.694  29.940  1.00  0.00     0.173 A 
ATOM    123  F   UNL A   1      36.278  31.331  33.287  1.00  0.00    -0.203 F 
ATOM    124  C   UNL A   1      35.077  33.033  32.205  1.00  0.00     0.198 A 
ATOM    125  C   UNL A   1      35.631  33.668  29.969  1.00  0.00     0.198 A 
ATOM    126  F   UNL A   1      37.396  32.637  28.840  1.00  0.00    -0.203 F 
ATOM    127  F   UNL A   1      34.366  33.229  33.325  1.00  0.00    -0.200 F 
ATOM    128  C   UNL A   1      34.871  33.853  31.108  1.00  0.00     0.200 A 
ATOM    129  F   UNL A   1      35.461  34.475  28.913  1.00  0.00    -0.200 F 
ATOM    130  F   UNL A   1      33.976  34.849  31.167  1.00  0.00    -0.200 F 
ENDBRANCH  92 120
BRANCH 107 131
ATOM    131  C   UNL A   1      42.336  30.001  33.731  1.00  0.00     0.064 A 
ATOM    132  C   UNL A   1      41.850  28.689  33.624  1.00  0.00     0.173 A 
ATOM    133  C   UNL A   1      42.776  30.434  34.988  1.00  0.00     0.173 A 
ATOM    134  F   UNL A   1      41.478  28.184  32.440  1.00  0.00    -0.203 F 
ATOM    135  C   UNL A   1      41.781  27.859  34.742  1.00  0.00     0.198 A 
ATOM    136  C   UNL A   1      42.739  29.593  36.094  1.00  0.00     0.198 A 
ATOM    137  F   UNL A   1      43.282  31.669  35.134  1.00  0.00    -0.203 F 
ATOM    138  F   UNL A   1      41.302  26.612  34.625  1.00  0.00    -0.200 F 
ATOM    139  C   UNL A   1      42.234  28.309  35.973  1.00  0.00     0.200 A 
ATOM    140  F   UNL A   1      43.217  30.020  37.271  1.00  0.00    -0.200 F 
ATOM    141  F   UNL A   1      42.206  27.497  37.039  1.00  0.00    -0.200 F 
ENDBRANCH 107 131
ENDBRANCH  72  75
ENDBRANCH  62  65
ENDBRANCH  58  61
ENDBRANCH  55  58
ENDBRANCH  52  55
ENDBRANCH   1  52
TORSDOF 18
ENDMDL
MODEL 8
REMARK VINA RESULT:     -11.4      2.361      3.620
REMARK SMILES CCc1cccc2c3c([nH]c12)[C@](CC)(CC(=O)NCCCCCCNC(=O)c1ccc(-c2c4nc(c(-c5c(F)c(F)c(F)c(F)c5F)c5ccc([nH]5)c(-c5c(F)c(F)c(F)c(F)c5F)c5nc(c(-c6c(F)c(F)c(F)c(F)c6F)c6ccc2[nH]6)C=C5)C=C4)cc1)OCC3
REMARK SMILES IDX 21 1 20 4 19 7 18 10 16 11 17 12 15 14 12 17 3 18 4 19 11 20
REMARK SMILES IDX 5 21 7 23 10 24 6 25 8 27 9 28 93 31 92 32 91 35 2 38 1 41
REMARK SMILES IDX 13 45 14 48 22 52 23 55 24 58 25 61 26 62 27 64 28 65 29 66
REMARK SMILES IDX 90 67 30 68 89 70 31 72 32 75 33 76 83 77 34 78 88 79 82 80
REMARK SMILES IDX 84 81 35 82 87 83 81 85 80 87 36 89 68 92 48 93 67 94 49 95
REMARK SMILES IDX 52 96 66 97 85 98 50 99 51 101 65 103 86 104 53 107 37 109
REMARK SMILES IDX 38 110 46 111 39 112 40 113 44 114 47 115 41 116 42 117
REMARK SMILES IDX 45 118 43 119 69 120 70 121 78 122 71 123 72 124 76 125
REMARK SMILES IDX 79 126 73 127 74 128 77 129 75 130 54 131 55 132 63 133
REMARK SMILES IDX 56 134 57 135 61 136 64 137 58 138 59 139 62 140 60 141
REMARK H PARENT 21 2 21 3 20 5 20 6 19 8 19 9 18 13 15 15 15 16 4 22 5 26
REMARK H PARENT 10 29 6 30 93 33 93 34 92 36 92 37 2 39 2 40 1 42 1 43 1 44
REMARK H PARENT 13 46 13 47 14 49 14 50 14 51 22 53 22 54 23 56 23 57 24 59
REMARK H PARENT 24 60 25 63 29 69 90 71 30 73 89 74 88 84 82 86 84 88 87 90
REMARK H PARENT 81 91 49 100 52 102 85 105 50 106 86 108
REMARK Flexibility Score: inf
ROOT
ATOM      1  C   UNL A   1      35.129  20.877  25.411  1.00  0.00    -0.052 C 
ATOM      2  H   UNL A   1      35.080  20.172  26.214  1.00  0.00     0.027 H 
ATOM      3  H   UNL A   1      34.793  21.854  25.688  1.00  0.00     0.027 H 
ENDROOT
BRANCH   1   4
ATOM      4  C   UNL A   1      34.190  20.394  24.290  1.00  0.00    -0.036 C 
ATOM      5  H   UNL A   1      34.746  20.391  23.375  1.00  0.00     0.028 H 
ATOM      6  H   UNL A   1      33.848  19.428  24.599  1.00  0.00     0.028 H 
BRANCH   4   7
ATOM      7  C   UNL A   1      32.920  21.228  24.065  1.00  0.00     0.017 C 
ATOM      8  H   UNL A   1      32.102  20.554  23.917  1.00  0.00     0.049 H 
ATOM      9  H   UNL A   1      32.810  21.846  24.930  1.00  0.00     0.049 H 
BRANCH   7  10
ATOM     10  N   UNL A   1      32.971  22.132  22.923  1.00  0.00    -0.356 N 
ATOM     11  C   UNL A   1      33.345  23.442  22.804  1.00  0.00     0.223 C 
ATOM     12  O   UNL A   1      33.212  23.978  21.703  1.00  0.00    -0.275 OA
ATOM     13  H   UNL A   1      32.684  21.721  22.076  1.00  0.00     0.163 HD
BRANCH  11  14
ATOM     14  C   UNL A   1      33.964  24.178  23.967  1.00  0.00     0.061 C 
ATOM     15  H   UNL A   1      34.726  23.545  24.367  1.00  0.00     0.040 H 
ATOM     16  H   UNL A   1      34.282  25.106  23.537  1.00  0.00     0.040 H 
BRANCH  14  17
ATOM     17  C   UNL A   1      33.070  24.613  25.154  1.00  0.00     0.117 C 
ATOM     18  C   UNL A   1      33.794  29.347  26.885  1.00  0.00    -0.024 A 
ATOM     19  C   UNL A   1      33.003  30.513  26.744  1.00  0.00    -0.057 A 
ATOM     20  C   UNL A   1      33.341  28.214  26.173  1.00  0.00     0.049 A 
ATOM     21  C   UNL A   1      31.856  30.558  25.956  1.00  0.00    -0.061 A 
ATOM     22  H   UNL A   1      33.290  31.368  27.246  1.00  0.00     0.063 H 
ATOM     23  C   UNL A   1      32.169  28.236  25.419  1.00  0.00     0.003 A 
ATOM     24  N   UNL A   1      33.852  26.923  26.075  1.00  0.00    -0.356 N 
ATOM     25  C   UNL A   1      31.425  29.419  25.292  1.00  0.00    -0.053 A 
ATOM     26  H   UNL A   1      31.325  31.439  25.867  1.00  0.00     0.062 H 
ATOM     27  C   UNL A   1      31.935  26.917  24.990  1.00  0.00    -0.014 A 
ATOM     28  C   UNL A   1      32.990  26.114  25.366  1.00  0.00     0.052 A 
ATOM     29  H   UNL A   1      34.711  26.629  26.458  1.00  0.00     0.166 HD
ATOM     30  H   UNL A   1      30.570  29.441  24.714  1.00  0.00     0.063 H 
ATOM     31  C   UNL A   1      30.713  26.396  24.373  1.00  0.00    -0.002 C 
ATOM     32  C   UNL A   1      30.826  24.899  24.168  1.00  0.00     0.052 C 
ATOM     33  H   UNL A   1      30.565  26.871  23.426  1.00  0.00     0.034 H 
ATOM     34  H   UNL A   1      29.884  26.597  25.018  1.00  0.00     0.034 H 
ATOM     35  O   UNL A   1      31.697  24.162  25.043  1.00  0.00    -0.368 OA
ATOM     36  H   UNL A   1      29.844  24.488  24.275  1.00  0.00     0.057 H 
ATOM     37  H   UNL A   1      31.270  24.795  23.199  1.00  0.00     0.057 H 
BRANCH  18  38
ATOM     38  C   UNL A   1      35.014  29.304  27.772  1.00  0.00    -0.029 C 
ATOM     39  H   UNL A   1      34.678  29.221  28.784  1.00  0.00     0.031 H 
ATOM     40  H   UNL A   1      35.588  28.470  27.427  1.00  0.00     0.031 H 
BRANCH  38  41
ATOM     41  C   UNL A   1      35.951  30.504  27.690  1.00  0.00    -0.061 C 
ATOM     42  H   UNL A   1      36.400  30.673  28.646  1.00  0.00     0.023 H 
ATOM     43  H   UNL A   1      35.395  31.372  27.400  1.00  0.00     0.023 H 
ATOM     44  H   UNL A   1      36.715  30.313  26.966  1.00  0.00     0.023 H 
ENDBRANCH  38  41
ENDBRANCH  18  38
BRANCH  17  45
ATOM     45  C   UNL A   1      33.606  23.920  26.450  1.00  0.00    -0.020 C 
ATOM     46  H   UNL A   1      33.914  24.687  27.130  1.00  0.00     0.030 H 
ATOM     47  H   UNL A   1      34.403  23.279  26.133  1.00  0.00     0.030 H 
BRANCH  45  48
ATOM     48  C   UNL A   1      32.604  23.017  27.179  1.00  0.00    -0.062 C 
ATOM     49  H   UNL A   1      33.012  22.033  27.271  1.00  0.00     0.023 H 
ATOM     50  H   UNL A   1      31.692  22.975  26.621  1.00  0.00     0.023 H 
ATOM     51  H   UNL A   1      32.408  23.414  28.153  1.00  0.00     0.023 H 
ENDBRANCH  45  48
ENDBRANCH  17  45
ENDBRANCH  14  17
ENDBRANCH  11  14
ENDBRANCH   7  10
ENDBRANCH   4   7
ENDBRANCH   1   4
BRANCH   1  52
ATOM     52  C   UNL A   1      36.585  21.025  24.998  1.00  0.00    -0.052 C 
ATOM     53  H   UNL A   1      36.711  20.558  24.043  1.00  0.00     0.027 H 
ATOM     54  H   UNL A   1      37.171  20.566  25.766  1.00  0.00     0.027 H 
BRANCH  52  55
ATOM     55  C   UNL A   1      37.062  22.473  24.890  1.00  0.00    -0.036 C 
ATOM     56  H   UNL A   1      36.199  23.106  24.867  1.00  0.00     0.028 H 
ATOM     57  H   UNL A   1      37.652  22.528  24.000  1.00  0.00     0.028 H 
BRANCH  55  58
ATOM     58  C   UNL A   1      37.968  22.942  26.035  1.00  0.00     0.018 C 
ATOM     59  H   UNL A   1      37.502  22.679  26.962  1.00  0.00     0.049 H 
ATOM     60  H   UNL A   1      38.088  23.999  25.922  1.00  0.00     0.049 H 
BRANCH  58  61
ATOM     61  N   UNL A   1      39.294  22.363  26.011  1.00  0.00    -0.352 N 
ATOM     62  C   UNL A   1      40.509  22.790  26.481  1.00  0.00     0.251 C 
ATOM     63  H   UNL A   1      39.332  21.485  25.568  1.00  0.00     0.163 HD
ATOM     64  O   UNL A   1      41.450  21.995  26.406  1.00  0.00    -0.269 OA
BRANCH  62  65
ATOM     65  C   UNL A   1      40.773  24.165  26.985  1.00  0.00     0.039 A 
ATOM     66  C   UNL A   1      41.603  24.477  28.058  1.00  0.00    -0.049 A 
ATOM     67  C   UNL A   1      40.073  25.213  26.358  1.00  0.00    -0.049 A 
ATOM     68  C   UNL A   1      41.593  25.748  28.607  1.00  0.00    -0.053 A 
ATOM     69  H   UNL A   1      42.231  23.756  28.447  1.00  0.00     0.063 H 
ATOM     70  C   UNL A   1      40.121  26.512  26.856  1.00  0.00    -0.053 A 
ATOM     71  H   UNL A   1      39.514  25.013  25.514  1.00  0.00     0.063 H 
ATOM     72  C   UNL A   1      40.834  26.764  28.020  1.00  0.00    -0.014 A 
ATOM     73  H   UNL A   1      42.148  25.946  29.454  1.00  0.00     0.063 H 
ATOM     74  H   UNL A   1      39.631  27.277  26.366  1.00  0.00     0.063 H 
BRANCH  72  75
ATOM     75  C   UNL A   1      40.957  28.091  28.618  1.00  0.00     0.031 A 
ATOM     76  C   UNL A   1      42.191  28.812  28.205  1.00  0.00     0.074 A 
ATOM     77  C   UNL A   1      40.059  28.654  29.451  1.00  0.00     0.049 A 
ATOM     78  N   UNL A   1      43.198  29.128  28.952  1.00  0.00    -0.248 NA
ATOM     79  C   UNL A   1      42.405  29.071  26.774  1.00  0.00    -0.034 C 
ATOM     80  C   UNL A   1      38.701  28.194  29.749  1.00  0.00    -0.036 A 
ATOM     81  N   UNL A   1      40.152  29.821  30.158  1.00  0.00    -0.354 N 
ATOM     82  C   UNL A   1      44.097  29.795  28.123  1.00  0.00     0.074 A 
ATOM     83  C   UNL A   1      43.628  29.607  26.777  1.00  0.00    -0.034 C 
ATOM     84  H   UNL A   1      41.776  28.887  25.976  1.00  0.00     0.065 H 
ATOM     85  C   UNL A   1      38.024  29.182  30.376  1.00  0.00    -0.036 A 
ATOM     86  H   UNL A   1      38.323  27.263  29.519  1.00  0.00     0.065 H 
ATOM     87  C   UNL A   1      38.941  30.270  30.668  1.00  0.00     0.049 A 
ATOM     88  H   UNL A   1      41.001  30.301  30.293  1.00  0.00     0.167 HD
ATOM     89  C   UNL A   1      45.003  30.660  28.654  1.00  0.00     0.037 A 
ATOM     90  H   UNL A   1      44.164  29.852  25.929  1.00  0.00     0.065 H 
ATOM     91  H   UNL A   1      37.018  29.165  30.608  1.00  0.00     0.065 H 
ATOM     92  C   UNL A   1      38.705  31.465  31.260  1.00  0.00     0.037 A 
ATOM     93  C   UNL A   1      45.154  30.446  30.069  1.00  0.00     0.049 A 
ATOM     94  C   UNL A   1      39.986  31.956  31.815  1.00  0.00     0.074 A 
ATOM     95  C   UNL A   1      45.840  29.585  30.894  1.00  0.00    -0.036 A 
ATOM     96  N   UNL A   1      44.181  31.043  30.820  1.00  0.00    -0.354 N 
ATOM     97  N   UNL A   1      40.608  31.383  32.808  1.00  0.00    -0.248 NA
ATOM     98  C   UNL A   1      40.763  32.944  31.073  1.00  0.00    -0.034 C 
ATOM     99  C   UNL A   1      45.148  29.589  32.144  1.00  0.00    -0.036 A 
ATOM    100  H   UNL A   1      46.687  29.044  30.658  1.00  0.00     0.065 H 
ATOM    101  C   UNL A   1      44.076  30.472  32.057  1.00  0.00     0.049 A 
ATOM    102  H   UNL A   1      43.623  31.792  30.507  1.00  0.00     0.167 HD
ATOM    103  C   UNL A   1      41.940  31.612  32.544  1.00  0.00     0.074 A 
ATOM    104  C   UNL A   1      41.970  32.719  31.598  1.00  0.00    -0.034 C 
ATOM    105  H   UNL A   1      40.466  33.620  30.352  1.00  0.00     0.065 H 
ATOM    106  H   UNL A   1      45.400  29.029  32.974  1.00  0.00     0.065 H 
ATOM    107  C   UNL A   1      42.879  30.670  32.838  1.00  0.00     0.037 A 
ATOM    108  H   UNL A   1      42.816  33.260  31.363  1.00  0.00     0.065 H 
BRANCH  89 109
ATOM    109  C   UNL A   1      45.352  32.003  28.044  1.00  0.00     0.064 A 
ATOM    110  C   UNL A   1      44.319  32.936  27.804  1.00  0.00     0.173 A 
ATOM    111  C   UNL A   1      46.569  32.271  27.381  1.00  0.00     0.173 A 
ATOM    112  F   UNL A   1      43.110  32.776  28.363  1.00  0.00    -0.203 F 
ATOM    113  C   UNL A   1      44.474  34.002  26.912  1.00  0.00     0.198 A 
ATOM    114  C   UNL A   1      46.734  33.363  26.529  1.00  0.00     0.198 A 
ATOM    115  F   UNL A   1      47.610  31.432  27.432  1.00  0.00    -0.203 F 
ATOM    116  F   UNL A   1      43.428  34.790  26.625  1.00  0.00    -0.200 F 
ATOM    117  C   UNL A   1      45.679  34.210  26.270  1.00  0.00     0.200 A 
ATOM    118  F   UNL A   1      47.905  33.532  25.895  1.00  0.00    -0.200 F 
ATOM    119  F   UNL A   1      45.814  35.193  25.370  1.00  0.00    -0.200 F 
ENDBRANCH  89 109
BRANCH  92 120
ATOM    120  C   UNL A   1      37.521  32.348  31.131  1.00  0.00     0.064 A 
ATOM    121  C   UNL A   1      37.296  33.073  29.946  1.00  0.00     0.173 A 
ATOM    122  C   UNL A   1      36.433  32.244  32.017  1.00  0.00     0.173 A 
ATOM    123  F   UNL A   1      38.274  33.200  29.037  1.00  0.00    -0.203 F 
ATOM    124  C   UNL A   1      36.039  33.597  29.635  1.00  0.00     0.198 A 
ATOM    125  C   UNL A   1      35.179  32.776  31.707  1.00  0.00     0.198 A 
ATOM    126  F   UNL A   1      36.532  31.536  33.151  1.00  0.00    -0.203 F 
ATOM    127  F   UNL A   1      35.842  34.201  28.454  1.00  0.00    -0.200 F 
ATOM    128  C   UNL A   1      34.977  33.431  30.507  1.00  0.00     0.200 A 
ATOM    129  F   UNL A   1      34.152  32.583  32.545  1.00  0.00    -0.200 F 
ATOM    130  F   UNL A   1      33.751  33.857  30.170  1.00  0.00    -0.200 F 
ENDBRANCH  92 120
BRANCH 107 131
ATOM    131  C   UNL A   1      42.557  29.686  33.915  1.00  0.00     0.064 A 
ATOM    132  C   UNL A   1      41.895  28.467  33.705  1.00  0.00     0.173 A 
ATOM    133  C   UNL A   1      43.014  29.967  35.209  1.00  0.00     0.173 A 
ATOM    134  F   UNL A   1      41.493  28.101  32.481  1.00  0.00    -0.203 F 
ATOM    135  C   UNL A   1      41.676  27.581  34.759  1.00  0.00     0.198 A 
ATOM    136  C   UNL A   1      42.826  29.067  36.251  1.00  0.00     0.198 A 
ATOM    137  F   UNL A   1      43.683  31.105  35.453  1.00  0.00    -0.203 F 
ATOM    138  F   UNL A   1      41.031  26.425  34.544  1.00  0.00    -0.200 F 
ATOM    139  C   UNL A   1      42.149  27.878  36.029  1.00  0.00     0.200 A 
ATOM    140  F   UNL A   1      43.321  29.341  37.465  1.00  0.00    -0.200 F 
ATOM    141  F   UNL A   1      41.975  27.009  37.034  1.00  0.00    -0.200 F 
ENDBRANCH 107 131
ENDBRANCH  72  75
ENDBRANCH  62  65
ENDBRANCH  58  61
ENDBRANCH  55  58
ENDBRANCH  52  55
ENDBRANCH   1  52
TORSDOF 18
ENDMDL
MODEL 9
REMARK VINA RESULT:     -11.4      2.930      8.815
REMARK SMILES CCc1cccc2c3c([nH]c12)[C@](CC)(CC(=O)NCCCCCCNC(=O)c1ccc(-c2c4nc(c(-c5c(F)c(F)c(F)c(F)c5F)c5ccc([nH]5)c(-c5c(F)c(F)c(F)c(F)c5F)c5nc(c(-c6c(F)c(F)c(F)c(F)c6F)c6ccc2[nH]6)C=C5)C=C4)cc1)OCC3
REMARK SMILES IDX 21 1 20 4 19 7 18 10 16 11 17 12 15 14 12 17 3 18 4 19 11 20
REMARK SMILES IDX 5 21 7 23 10 24 6 25 8 27 9 28 93 31 92 32 91 35 2 38 1 41
REMARK SMILES IDX 13 45 14 48 22 52 23 55 24 58 25 61 26 62 27 64 28 65 29 66
REMARK SMILES IDX 90 67 30 68 89 70 31 72 32 75 33 76 83 77 34 78 88 79 82 80
REMARK SMILES IDX 84 81 35 82 87 83 81 85 80 87 36 89 68 92 48 93 67 94 49 95
REMARK SMILES IDX 52 96 66 97 85 98 50 99 51 101 65 103 86 104 53 107 37 109
REMARK SMILES IDX 38 110 46 111 39 112 40 113 44 114 47 115 41 116 42 117
REMARK SMILES IDX 45 118 43 119 69 120 70 121 78 122 71 123 72 124 76 125
REMARK SMILES IDX 79 126 73 127 74 128 77 129 75 130 54 131 55 132 63 133
REMARK SMILES IDX 56 134 57 135 61 136 64 137 58 138 59 139 62 140 60 141
REMARK H PARENT 21 2 21 3 20 5 20 6 19 8 19 9 18 13 15 15 15 16 4 22 5 26
REMARK H PARENT 10 29 6 30 93 33 93 34 92 36 92 37 2 39 2 40 1 42 1 43 1 44
REMARK H PARENT 13 46 13 47 14 49 14 50 14 51 22 53 22 54 23 56 23 57 24 59
REMARK H PARENT 24 60 25 63 29 69 90 71 30 73 89 74 88 84 82 86 84 88 87 90
REMARK H PARENT 81 91 49 100 52 102 85 105 50 106 86 108
REMARK Flexibility Score: inf
ROOT
ATOM      1  C   UNL A   1      31.949  29.284  24.875  1.00  0.00    -0.052 C 
ATOM      2  H   UNL A   1      32.333  30.282  24.880  1.00  0.00     0.027 H 
ATOM      3  H   UNL A   1      32.624  28.576  24.441  1.00  0.00     0.027 H 
ENDROOT
BRANCH   1   4
ATOM      4  C   UNL A   1      30.677  29.263  24.007  1.00  0.00    -0.036 C 
ATOM      5  H   UNL A   1      29.854  29.000  24.638  1.00  0.00     0.028 H 
ATOM      6  H   UNL A   1      30.606  30.242  23.579  1.00  0.00     0.028 H 
BRANCH   4   7
ATOM      7  C   UNL A   1      30.686  28.292  22.816  1.00  0.00     0.017 C 
ATOM      8  H   UNL A   1      30.267  27.363  23.142  1.00  0.00     0.049 H 
ATOM      9  H   UNL A   1      30.120  28.764  22.041  1.00  0.00     0.049 H 
BRANCH   7  10
ATOM     10  N   UNL A   1      32.001  28.021  22.252  1.00  0.00    -0.356 N 
ATOM     11  C   UNL A   1      32.704  26.861  22.074  1.00  0.00     0.223 C 
ATOM     12  O   UNL A   1      33.849  26.947  21.628  1.00  0.00    -0.275 OA
ATOM     13  H   UNL A   1      32.475  28.826  21.938  1.00  0.00     0.163 HD
BRANCH  11  14
ATOM     14  C   UNL A   1      32.066  25.521  22.348  1.00  0.00     0.061 C 
ATOM     15  H   UNL A   1      31.042  25.598  22.055  1.00  0.00     0.040 H 
ATOM     16  H   UNL A   1      32.677  24.835  21.800  1.00  0.00     0.040 H 
BRANCH  14  17
ATOM     17  C   UNL A   1      32.082  24.954  23.789  1.00  0.00     0.117 C 
ATOM     18  C   UNL A   1      33.467  20.075  24.257  1.00  0.00    -0.024 A 
ATOM     19  C   UNL A   1      34.664  19.498  24.743  1.00  0.00    -0.057 A 
ATOM     20  C   UNL A   1      33.463  21.485  24.166  1.00  0.00     0.049 A 
ATOM     21  C   UNL A   1      35.776  20.255  25.106  1.00  0.00    -0.061 A 
ATOM     22  H   UNL A   1      34.717  18.471  24.832  1.00  0.00     0.063 H 
ATOM     23  C   UNL A   1      34.554  22.254  24.569  1.00  0.00     0.003 A 
ATOM     24  N   UNL A   1      32.484  22.378  23.741  1.00  0.00    -0.356 N 
ATOM     25  C   UNL A   1      35.729  21.638  25.029  1.00  0.00    -0.053 A 
ATOM     26  H   UNL A   1      36.635  19.785  25.433  1.00  0.00     0.062 H 
ATOM     27  C   UNL A   1      34.153  23.600  24.498  1.00  0.00    -0.014 A 
ATOM     28  C   UNL A   1      32.889  23.678  23.955  1.00  0.00     0.052 A 
ATOM     29  H   UNL A   1      31.622  22.117  23.341  1.00  0.00     0.166 HD
ATOM     30  H   UNL A   1      36.544  22.207  25.304  1.00  0.00     0.063 H 
ATOM     31  C   UNL A   1      34.864  24.760  25.040  1.00  0.00    -0.002 C 
ATOM     32  C   UNL A   1      34.038  26.016  24.853  1.00  0.00     0.052 C 
ATOM     33  H   UNL A   1      35.797  24.873  24.530  1.00  0.00     0.034 H 
ATOM     34  H   UNL A   1      35.033  24.607  26.085  1.00  0.00     0.034 H 
ATOM     35  O   UNL A   1      32.609  25.878  24.773  1.00  0.00    -0.368 OA
ATOM     36  H   UNL A   1      34.250  26.662  25.679  1.00  0.00     0.057 H 
ATOM     37  H   UNL A   1      34.326  26.385  23.890  1.00  0.00     0.057 H 
BRANCH  18  38
ATOM     38  C   UNL A   1      32.257  19.244  23.903  1.00  0.00    -0.029 C 
ATOM     39  H   UNL A   1      32.022  18.634  24.750  1.00  0.00     0.031 H 
ATOM     40  H   UNL A   1      31.496  19.947  23.639  1.00  0.00     0.031 H 
BRANCH  38  41
ATOM     41  C   UNL A   1      32.400  18.326  22.694  1.00  0.00    -0.061 C 
ATOM     42  H   UNL A   1      33.053  17.514  22.939  1.00  0.00     0.023 H 
ATOM     43  H   UNL A   1      32.810  18.877  21.873  1.00  0.00     0.023 H 
ATOM     44  H   UNL A   1      31.439  17.942  22.422  1.00  0.00     0.023 H 
ENDBRANCH  38  41
ENDBRANCH  18  38
BRANCH  17  45
ATOM     45  C   UNL A   1      30.602  24.709  24.235  1.00  0.00    -0.020 C 
ATOM     46  H   UNL A   1      30.522  23.696  24.569  1.00  0.00     0.030 H 
ATOM     47  H   UNL A   1      29.998  24.931  23.380  1.00  0.00     0.030 H 
BRANCH  45  48
ATOM     48  C   UNL A   1      30.093  25.619  25.359  1.00  0.00    -0.062 C 
ATOM     49  H   UNL A   1      30.028  25.060  26.269  1.00  0.00     0.023 H 
ATOM     50  H   UNL A   1      29.125  25.995  25.102  1.00  0.00     0.023 H 
ATOM     51  H   UNL A   1      30.770  26.437  25.490  1.00  0.00     0.023 H 
ENDBRANCH  45  48
ENDBRANCH  17  45
ENDBRANCH  14  17
ENDBRANCH  11  14
ENDBRANCH   7  10
ENDBRANCH   4   7
ENDBRANCH   1   4
BRANCH   1  52
ATOM     52  C   UNL A   1      31.740  28.850  26.316  1.00  0.00    -0.052 C 
ATOM     53  H   UNL A   1      31.630  27.784  26.333  1.00  0.00     0.027 H 
ATOM     54  H   UNL A   1      30.869  29.361  26.670  1.00  0.00     0.027 H 
BRANCH  52  55
ATOM     55  C   UNL A   1      32.883  29.228  27.257  1.00  0.00    -0.036 C 
ATOM     56  H   UNL A   1      33.579  28.416  27.277  1.00  0.00     0.028 H 
ATOM     57  H   UNL A   1      32.435  29.426  28.208  1.00  0.00     0.028 H 
BRANCH  55  58
ATOM     58  C   UNL A   1      33.646  30.500  26.868  1.00  0.00     0.018 C 
ATOM     59  H   UNL A   1      33.087  31.010  26.111  1.00  0.00     0.049 H 
ATOM     60  H   UNL A   1      34.611  30.190  26.527  1.00  0.00     0.049 H 
BRANCH  58  61
ATOM     61  N   UNL A   1      33.863  31.416  27.969  1.00  0.00    -0.352 N 
ATOM     62  C   UNL A   1      34.955  31.700  28.746  1.00  0.00     0.251 C 
ATOM     63  H   UNL A   1      33.065  31.941  28.207  1.00  0.00     0.163 HD
ATOM     64  O   UNL A   1      34.848  32.637  29.543  1.00  0.00    -0.269 OA
BRANCH  62  65
ATOM     65  C   UNL A   1      36.211  30.901  28.747  1.00  0.00     0.039 A 
ATOM     66  C   UNL A   1      36.301  29.552  28.415  1.00  0.00    -0.049 A 
ATOM     67  C   UNL A   1      37.377  31.560  29.180  1.00  0.00    -0.049 A 
ATOM     68  C   UNL A   1      37.456  28.840  28.682  1.00  0.00    -0.053 A 
ATOM     69  H   UNL A   1      35.500  29.081  27.966  1.00  0.00     0.063 H 
ATOM     70  C   UNL A   1      38.568  30.865  29.375  1.00  0.00    -0.053 A 
ATOM     71  H   UNL A   1      37.348  32.576  29.356  1.00  0.00     0.063 H 
ATOM     72  C   UNL A   1      38.587  29.490  29.185  1.00  0.00    -0.014 A 
ATOM     73  H   UNL A   1      37.483  27.822  28.512  1.00  0.00     0.063 H 
ATOM     74  H   UNL A   1      39.424  31.366  29.659  1.00  0.00     0.063 H 
BRANCH  72  75
ATOM     75  C   UNL A   1      39.784  28.670  29.350  1.00  0.00     0.031 A 
ATOM     76  C   UNL A   1      40.156  28.449  30.774  1.00  0.00     0.074 A 
ATOM     77  C   UNL A   1      40.502  28.131  28.345  1.00  0.00     0.049 A 
ATOM     78  N   UNL A   1      41.203  28.895  31.386  1.00  0.00    -0.248 NA
ATOM     79  C   UNL A   1      39.180  27.797  31.659  1.00  0.00    -0.034 C 
ATOM     80  C   UNL A   1      40.136  28.042  26.930  1.00  0.00    -0.036 A 
ATOM     81  N   UNL A   1      41.699  27.471  28.397  1.00  0.00    -0.354 N 
ATOM     82  C   UNL A   1      41.116  28.421  32.693  1.00  0.00     0.074 A 
ATOM     83  C   UNL A   1      39.793  27.877  32.843  1.00  0.00    -0.034 C 
ATOM     84  H   UNL A   1      38.263  27.384  31.427  1.00  0.00     0.065 H 
ATOM     85  C   UNL A   1      40.963  27.170  26.310  1.00  0.00    -0.036 A 
ATOM     86  H   UNL A   1      39.370  28.564  26.477  1.00  0.00     0.065 H 
ATOM     87  C   UNL A   1      42.008  26.773  27.237  1.00  0.00     0.049 A 
ATOM     88  H   UNL A   1      42.288  27.487  29.186  1.00  0.00     0.167 HD
ATOM     89  C   UNL A   1      42.239  28.291  33.450  1.00  0.00     0.037 A 
ATOM     90  H   UNL A   1      39.375  27.590  33.741  1.00  0.00     0.065 H 
ATOM     91  H   UNL A   1      40.866  26.841  25.336  1.00  0.00     0.065 H 
ATOM     92  C   UNL A   1      43.034  25.906  27.063  1.00  0.00     0.037 A 
ATOM     93  C   UNL A   1      43.325  29.057  32.897  1.00  0.00     0.049 A 
ATOM     94  C   UNL A   1      44.090  26.253  28.040  1.00  0.00     0.074 A 
ATOM     95  C   UNL A   1      43.749  30.366  32.909  1.00  0.00    -0.036 A 
ATOM     96  N   UNL A   1      43.972  28.428  31.872  1.00  0.00    -0.354 N 
ATOM     97  N   UNL A   1      44.780  27.359  27.993  1.00  0.00    -0.248 NA
ATOM     98  C   UNL A   1      44.203  25.494  29.282  1.00  0.00    -0.034 C 
ATOM     99  C   UNL A   1      44.578  30.531  31.758  1.00  0.00    -0.036 A 
ATOM    100  H   UNL A   1      43.514  31.086  33.611  1.00  0.00     0.065 H 
ATOM    101  C   UNL A   1      44.661  29.312  31.090  1.00  0.00     0.049 A 
ATOM    102  H   UNL A   1      43.945  27.456  31.715  1.00  0.00     0.167 HD
ATOM    103  C   UNL A   1      45.049  27.641  29.314  1.00  0.00     0.074 A 
ATOM    104  C   UNL A   1      44.850  26.390  30.032  1.00  0.00    -0.034 C 
ATOM    105  H   UNL A   1      43.878  24.543  29.514  1.00  0.00     0.065 H 
ATOM    106  H   UNL A   1      45.040  31.407  31.468  1.00  0.00     0.065 H 
ATOM    107  C   UNL A   1      45.068  28.928  29.760  1.00  0.00     0.037 A 
ATOM    108  H   UNL A   1      45.167  26.217  30.999  1.00  0.00     0.065 H 
BRANCH  89 109
ATOM    109  C   UNL A   1      42.522  27.106  34.352  1.00  0.00     0.064 A 
ATOM    110  C   UNL A   1      42.248  27.216  35.733  1.00  0.00     0.173 A 
ATOM    111  C   UNL A   1      43.351  26.024  33.988  1.00  0.00     0.173 A 
ATOM    112  F   UNL A   1      41.488  28.217  36.203  1.00  0.00    -0.203 F 
ATOM    113  C   UNL A   1      42.825  26.357  36.675  1.00  0.00     0.198 A 
ATOM    114  C   UNL A   1      43.886  25.140  34.925  1.00  0.00     0.198 A 
ATOM    115  F   UNL A   1      43.776  25.841  32.732  1.00  0.00    -0.203 F 
ATOM    116  F   UNL A   1      42.632  26.575  37.983  1.00  0.00    -0.200 F 
ATOM    117  C   UNL A   1      43.649  25.324  36.270  1.00  0.00     0.200 A 
ATOM    118  F   UNL A   1      44.704  24.161  34.514  1.00  0.00    -0.200 F 
ATOM    119  F   UNL A   1      44.250  24.537  37.171  1.00  0.00    -0.200 F 
ENDBRANCH  89 109
BRANCH  92 120
ATOM    120  C   UNL A   1      43.052  24.624  26.318  1.00  0.00     0.064 A 
ATOM    121  C   UNL A   1      43.877  24.465  25.190  1.00  0.00     0.173 A 
ATOM    122  C   UNL A   1      42.526  23.446  26.880  1.00  0.00     0.173 A 
ATOM    123  F   UNL A   1      44.438  25.535  24.608  1.00  0.00    -0.203 F 
ATOM    124  C   UNL A   1      44.215  23.200  24.701  1.00  0.00     0.198 A 
ATOM    125  C   UNL A   1      42.858  22.183  26.385  1.00  0.00     0.198 A 
ATOM    126  F   UNL A   1      41.766  23.488  27.984  1.00  0.00    -0.203 F 
ATOM    127  F   UNL A   1      45.078  23.087  23.681  1.00  0.00    -0.200 F 
ATOM    128  C   UNL A   1      43.720  22.060  25.312  1.00  0.00     0.200 A 
ATOM    129  F   UNL A   1      42.397  21.087  27.002  1.00  0.00    -0.200 F 
ATOM    130  F   UNL A   1      44.111  20.846  24.898  1.00  0.00    -0.200 F 
ENDBRANCH  92 120
BRANCH 107 131
ATOM    131  C   UNL A   1      45.356  30.001  28.762  1.00  0.00     0.064 A 
ATOM    132  C   UNL A   1      44.380  30.656  27.996  1.00  0.00     0.173 A 
ATOM    133  C   UNL A   1      46.683  30.434  28.639  1.00  0.00     0.173 A 
ATOM    134  F   UNL A   1      43.083  30.342  28.115  1.00  0.00    -0.203 F 
ATOM    135  C   UNL A   1      44.729  31.683  27.120  1.00  0.00     0.198 A 
ATOM    136  C   UNL A   1      47.023  31.482  27.791  1.00  0.00     0.198 A 
ATOM    137  F   UNL A   1      47.648  29.862  29.376  1.00  0.00    -0.203 F 
ATOM    138  F   UNL A   1      43.785  32.291  26.386  1.00  0.00    -0.200 F 
ATOM    139  C   UNL A   1      46.048  32.100  27.026  1.00  0.00     0.200 A 
ATOM    140  F   UNL A   1      48.292  31.907  27.736  1.00  0.00    -0.200 F 
ATOM    141  F   UNL A   1      46.378  33.115  26.214  1.00  0.00    -0.200 F 
ENDBRANCH 107 131
ENDBRANCH  72  75
ENDBRANCH  62  65
ENDBRANCH  58  61
ENDBRANCH  55  58
ENDBRANCH  52  55
ENDBRANCH   1  52
TORSDOF 18
ENDMDL
MODEL 10
REMARK VINA RESULT:     -11.4      2.260      3.218
REMARK SMILES CCc1cccc2c3c([nH]c12)[C@](CC)(CC(=O)NCCCCCCNC(=O)c1ccc(-c2c4nc(c(-c5c(F)c(F)c(F)c(F)c5F)c5ccc([nH]5)c(-c5c(F)c(F)c(F)c(F)c5F)c5nc(c(-c6c(F)c(F)c(F)c(F)c6F)c6ccc2[nH]6)C=C5)C=C4)cc1)OCC3
REMARK SMILES IDX 21 1 20 4 19 7 18 10 16 11 17 12 15 14 12 17 3 18 4 19 11 20
REMARK SMILES IDX 5 21 7 23 10 24 6 25 8 27 9 28 93 31 92 32 91 35 2 38 1 41
REMARK SMILES IDX 13 45 14 48 22 52 23 55 24 58 25 61 26 62 27 64 28 65 29 66
REMARK SMILES IDX 90 67 30 68 89 70 31 72 32 75 33 76 83 77 34 78 88 79 82 80
REMARK SMILES IDX 84 81 35 82 87 83 81 85 80 87 36 89 68 92 48 93 67 94 49 95
REMARK SMILES IDX 52 96 66 97 85 98 50 99 51 101 65 103 86 104 53 107 37 109
REMARK SMILES IDX 38 110 46 111 39 112 40 113 44 114 47 115 41 116 42 117
REMARK SMILES IDX 45 118 43 119 69 120 70 121 78 122 71 123 72 124 76 125
REMARK SMILES IDX 79 126 73 127 74 128 77 129 75 130 54 131 55 132 63 133
REMARK SMILES IDX 56 134 57 135 61 136 64 137 58 138 59 139 62 140 60 141
REMARK H PARENT 21 2 21 3 20 5 20 6 19 8 19 9 18 13 15 15 15 16 4 22 5 26
REMARK H PARENT 10 29 6 30 93 33 93 34 92 36 92 37 2 39 2 40 1 42 1 43 1 44
REMARK H PARENT 13 46 13 47 14 49 14 50 14 51 22 53 22 54 23 56 23 57 24 59
REMARK H PARENT 24 60 25 63 29 69 90 71 30 73 89 74 88 84 82 86 84 88 87 90
REMARK H PARENT 81 91 49 100 52 102 85 105 50 106 86 108
REMARK Flexibility Score: inf
ROOT
ATOM      1  C   UNL A   1      39.232  24.692  27.827  1.00  0.00    -0.052 C 
ATOM      2  H   UNL A   1      38.421  24.271  28.383  1.00  0.00     0.027 H 
ATOM      3  H   UNL A   1      39.340  25.746  27.975  1.00  0.00     0.027 H 
ENDROOT
BRANCH   1   4
ATOM      4  C   UNL A   1      38.941  24.489  26.329  1.00  0.00    -0.036 C 
ATOM      5  H   UNL A   1      38.865  25.457  25.876  1.00  0.00     0.028 H 
ATOM      6  H   UNL A   1      39.750  23.894  25.958  1.00  0.00     0.028 H 
BRANCH   4   7
ATOM      7  C   UNL A   1      37.663  23.710  25.986  1.00  0.00     0.017 C 
ATOM      8  H   UNL A   1      37.758  22.722  26.387  1.00  0.00     0.049 H 
ATOM      9  H   UNL A   1      36.852  24.263  26.409  1.00  0.00     0.049 H 
BRANCH   7  10
ATOM     10  N   UNL A   1      37.376  23.592  24.562  1.00  0.00    -0.356 N 
ATOM     11  C   UNL A   1      36.414  22.909  23.871  1.00  0.00     0.223 C 
ATOM     12  O   UNL A   1      36.463  22.937  22.641  1.00  0.00    -0.275 OA
ATOM     13  H   UNL A   1      37.992  24.103  23.988  1.00  0.00     0.163 HD
BRANCH  11  14
ATOM     14  C   UNL A   1      35.293  22.206  24.597  1.00  0.00     0.061 C 
ATOM     15  H   UNL A   1      35.174  21.249  24.136  1.00  0.00     0.040 H 
ATOM     16  H   UNL A   1      35.611  22.214  25.619  1.00  0.00     0.040 H 
BRANCH  14  17
ATOM     17  C   UNL A   1      33.891  22.861  24.645  1.00  0.00     0.117 C 
ATOM     18  C   UNL A   1      33.808  27.939  25.029  1.00  0.00    -0.024 A 
ATOM     19  C   UNL A   1      33.493  28.932  24.071  1.00  0.00    -0.057 A 
ATOM     20  C   UNL A   1      33.835  26.612  24.545  1.00  0.00     0.049 A 
ATOM     21  C   UNL A   1      33.232  28.639  22.735  1.00  0.00    -0.061 A 
ATOM     22  H   UNL A   1      33.457  29.918  24.375  1.00  0.00     0.063 H 
ATOM     23  C   UNL A   1      33.530  26.303  23.220  1.00  0.00     0.003 A 
ATOM     24  N   UNL A   1      34.101  25.404  25.183  1.00  0.00    -0.356 N 
ATOM     25  C   UNL A   1      33.241  27.322  22.299  1.00  0.00    -0.053 A 
ATOM     26  H   UNL A   1      33.029  29.401  22.069  1.00  0.00     0.062 H 
ATOM     27  C   UNL A   1      33.493  24.900  23.126  1.00  0.00    -0.014 A 
ATOM     28  C   UNL A   1      33.879  24.346  24.328  1.00  0.00     0.052 A 
ATOM     29  H   UNL A   1      34.408  25.317  26.115  1.00  0.00     0.166 HD
ATOM     30  H   UNL A   1      33.038  27.094  21.313  1.00  0.00     0.063 H 
ATOM     31  C   UNL A   1      32.988  24.107  22.004  1.00  0.00    -0.002 C 
ATOM     32  C   UNL A   1      33.019  22.631  22.348  1.00  0.00     0.052 C 
ATOM     33  H   UNL A   1      33.599  24.281  21.144  1.00  0.00     0.034 H 
ATOM     34  H   UNL A   1      31.978  24.394  21.801  1.00  0.00     0.034 H 
ATOM     35  O   UNL A   1      32.936  22.261  23.735  1.00  0.00    -0.368 OA
ATOM     36  H   UNL A   1      32.196  22.170  21.845  1.00  0.00     0.057 H 
ATOM     37  H   UNL A   1      33.993  22.306  22.042  1.00  0.00     0.057 H 
BRANCH  18  38
ATOM     38  C   UNL A   1      34.053  28.269  26.481  1.00  0.00    -0.029 C 
ATOM     39  H   UNL A   1      34.636  27.477  26.901  1.00  0.00     0.031 H 
ATOM     40  H   UNL A   1      34.536  29.223  26.479  1.00  0.00     0.031 H 
BRANCH  38  41
ATOM     41  C   UNL A   1      32.813  28.444  27.352  1.00  0.00    -0.061 C 
ATOM     42  H   UNL A   1      33.053  29.055  28.196  1.00  0.00     0.023 H 
ATOM     43  H   UNL A   1      32.476  27.485  27.690  1.00  0.00     0.023 H 
ATOM     44  H   UNL A   1      32.038  28.912  26.781  1.00  0.00     0.023 H 
ENDBRANCH  38  41
ENDBRANCH  18  38
BRANCH  17  45
ATOM     45  C   UNL A   1      33.284  22.617  26.067  1.00  0.00    -0.020 C 
ATOM     46  H   UNL A   1      32.564  21.829  25.986  1.00  0.00     0.030 H 
ATOM     47  H   UNL A   1      32.867  23.554  26.373  1.00  0.00     0.030 H 
BRANCH  45  48
ATOM     48  C   UNL A   1      34.290  22.227  27.156  1.00  0.00    -0.062 C 
ATOM     49  H   UNL A   1      35.274  22.510  26.850  1.00  0.00     0.023 H 
ATOM     50  H   UNL A   1      34.254  21.169  27.312  1.00  0.00     0.023 H 
ATOM     51  H   UNL A   1      34.041  22.730  28.067  1.00  0.00     0.023 H 
ENDBRANCH  45  48
ENDBRANCH  17  45
ENDBRANCH  14  17
ENDBRANCH  11  14
ENDBRANCH   7  10
ENDBRANCH   4   7
ENDBRANCH   1   4
BRANCH   1  52
ATOM     52  C   UNL A   1      40.523  24.055  28.315  1.00  0.00    -0.052 C 
ATOM     53  H   UNL A   1      40.429  23.871  29.366  1.00  0.00     0.027 H 
ATOM     54  H   UNL A   1      41.311  24.740  28.083  1.00  0.00     0.027 H 
BRANCH  52  55
ATOM     55  C   UNL A   1      40.870  22.736  27.627  1.00  0.00    -0.036 C 
ATOM     56  H   UNL A   1      40.448  22.753  26.644  1.00  0.00     0.028 H 
ATOM     57  H   UNL A   1      40.472  21.961  28.247  1.00  0.00     0.028 H 
BRANCH  55  58
ATOM     58  C   UNL A   1      42.372  22.452  27.496  1.00  0.00     0.018 C 
ATOM     59  H   UNL A   1      42.530  21.404  27.644  1.00  0.00     0.049 H 
ATOM     60  H   UNL A   1      42.866  23.050  28.232  1.00  0.00     0.049 H 
BRANCH  58  61
ATOM     61  N   UNL A   1      42.931  22.820  26.212  1.00  0.00    -0.352 N 
ATOM     62  C   UNL A   1      43.348  24.012  25.681  1.00  0.00     0.251 C 
ATOM     63  H   UNL A   1      43.032  22.060  25.594  1.00  0.00     0.163 HD
ATOM     64  O   UNL A   1      43.897  23.974  24.576  1.00  0.00    -0.269 OA
BRANCH  62  65
ATOM     65  C   UNL A   1      43.100  25.339  26.310  1.00  0.00     0.039 A 
ATOM     66  C   UNL A   1      43.715  25.801  27.470  1.00  0.00    -0.049 A 
ATOM     67  C   UNL A   1      42.118  26.148  25.709  1.00  0.00    -0.049 A 
ATOM     68  C   UNL A   1      43.243  26.933  28.111  1.00  0.00    -0.053 A 
ATOM     69  H   UNL A   1      44.530  25.297  27.853  1.00  0.00     0.063 H 
ATOM     70  C   UNL A   1      41.693  27.332  26.307  1.00  0.00    -0.053 A 
ATOM     71  H   UNL A   1      41.706  25.859  24.808  1.00  0.00     0.063 H 
ATOM     72  C   UNL A   1      42.215  27.690  27.542  1.00  0.00    -0.014 A 
ATOM     73  H   UNL A   1      43.651  27.219  29.015  1.00  0.00     0.063 H 
ATOM     74  H   UNL A   1      40.999  27.934  25.838  1.00  0.00     0.063 H 
BRANCH  72  75
ATOM     75  C   UNL A   1      41.846  28.914  28.249  1.00  0.00     0.031 A 
ATOM     76  C   UNL A   1      42.846  30.006  28.098  1.00  0.00     0.074 A 
ATOM     77  C   UNL A   1      40.716  29.089  28.962  1.00  0.00     0.049 A 
ATOM     78  N   UNL A   1      43.598  30.509  29.021  1.00  0.00    -0.248 NA
ATOM     79  C   UNL A   1      43.161  30.485  26.744  1.00  0.00    -0.034 C 
ATOM     80  C   UNL A   1      39.536  28.223  28.999  1.00  0.00    -0.036 A 
ATOM     81  N   UNL A   1      40.353  30.140  29.759  1.00  0.00    -0.354 N 
ATOM     82  C   UNL A   1      44.353  31.502  28.403  1.00  0.00     0.074 A 
ATOM     83  C   UNL A   1      44.150  31.348  26.987  1.00  0.00    -0.034 C 
ATOM     84  H   UNL A   1      42.731  30.223  25.843  1.00  0.00     0.065 H 
ATOM     85  C   UNL A   1      38.512  28.889  29.577  1.00  0.00    -0.036 A 
ATOM     86  H   UNL A   1      39.494  27.256  28.642  1.00  0.00     0.065 H 
ATOM     87  C   UNL A   1      39.006  30.153  30.095  1.00  0.00     0.049 A 
ATOM     88  H   UNL A   1      40.989  30.826  30.066  1.00  0.00     0.167 HD
ATOM     89  C   UNL A   1      44.873  32.523  29.137  1.00  0.00     0.037 A 
ATOM     90  H   UNL A   1      44.694  31.838  26.260  1.00  0.00     0.065 H 
ATOM     91  H   UNL A   1      37.537  28.554  29.640  1.00  0.00     0.065 H 
ATOM     92  C   UNL A   1      38.339  31.149  30.727  1.00  0.00     0.037 A 
ATOM     93  C   UNL A   1      44.891  32.194  30.537  1.00  0.00     0.049 A 
ATOM     94  C   UNL A   1      39.322  31.920  31.519  1.00  0.00     0.074 A 
ATOM     95  C   UNL A   1      45.689  31.477  31.399  1.00  0.00    -0.036 A 
ATOM     96  N   UNL A   1      43.690  32.389  31.161  1.00  0.00    -0.354 N 
ATOM     97  N   UNL A   1      39.950  31.439  32.556  1.00  0.00    -0.248 NA
ATOM     98  C   UNL A   1      39.854  33.173  30.989  1.00  0.00    -0.034 C 
ATOM     99  C   UNL A   1      44.867  31.130  32.515  1.00  0.00    -0.036 A 
ATOM    100  H   UNL A   1      46.684  31.237  31.265  1.00  0.00     0.065 H 
ATOM    101  C   UNL A   1      43.599  31.669  32.319  1.00  0.00     0.049 A 
ATOM    102  H   UNL A   1      42.978  32.976  30.817  1.00  0.00     0.167 HD
ATOM    103  C   UNL A   1      41.172  32.074  32.531  1.00  0.00     0.074 A 
ATOM    104  C   UNL A   1      40.990  33.246  31.687  1.00  0.00    -0.034 C 
ATOM    105  H   UNL A   1      39.465  33.815  30.281  1.00  0.00     0.065 H 
ATOM    106  H   UNL A   1      45.164  30.573  33.331  1.00  0.00     0.065 H 
ATOM    107  C   UNL A   1      42.305  31.416  32.905  1.00  0.00     0.037 A 
ATOM    108  H   UNL A   1      41.654  34.034  31.634  1.00  0.00     0.065 H 
BRANCH  89 109
ATOM    109  C   UNL A   1      44.875  33.972  28.693  1.00  0.00     0.064 A 
ATOM    110  C   UNL A   1      43.642  34.608  28.424  1.00  0.00     0.173 A 
ATOM    111  C   UNL A   1      46.016  34.640  28.197  1.00  0.00     0.173 A 
ATOM    112  F   UNL A   1      42.487  34.057  28.827  1.00  0.00    -0.203 F 
ATOM    113  C   UNL A   1      43.560  35.773  27.654  1.00  0.00     0.198 A 
ATOM    114  C   UNL A   1      45.933  35.827  27.471  1.00  0.00     0.198 A 
ATOM    115  F   UNL A   1      47.244  34.118  28.290  1.00  0.00    -0.203 F 
ATOM    116  F   UNL A   1      42.361  36.271  27.324  1.00  0.00    -0.200 F 
ATOM    117  C   UNL A   1      44.705  36.377  27.172  1.00  0.00     0.200 A 
ATOM    118  F   UNL A   1      47.055  36.383  26.990  1.00  0.00    -0.200 F 
ATOM    119  F   UNL A   1      44.628  37.458  26.385  1.00  0.00    -0.200 F 
ENDBRANCH  89 109
BRANCH  92 120
ATOM    120  C   UNL A   1      36.971  31.660  30.471  1.00  0.00     0.064 A 
ATOM    121  C   UNL A   1      36.033  31.744  31.515  1.00  0.00     0.173 A 
ATOM    122  C   UNL A   1      36.666  32.374  29.296  1.00  0.00     0.173 A 
ATOM    123  F   UNL A   1      36.257  31.112  32.677  1.00  0.00    -0.203 F 
ATOM    124  C   UNL A   1      34.897  32.553  31.418  1.00  0.00     0.198 A 
ATOM    125  C   UNL A   1      35.527  33.175  29.198  1.00  0.00     0.198 A 
ATOM    126  F   UNL A   1      37.519  32.394  28.262  1.00  0.00    -0.203 F 
ATOM    127  F   UNL A   1      34.075  32.679  32.469  1.00  0.00    -0.200 F 
ATOM    128  C   UNL A   1      34.656  33.283  30.266  1.00  0.00     0.200 A 
ATOM    129  F   UNL A   1      35.320  33.900  28.091  1.00  0.00    -0.200 F 
ATOM    130  F   UNL A   1      33.615  34.125  30.204  1.00  0.00    -0.200 F 
ENDBRANCH  92 120
BRANCH 107 131
ATOM    131  C   UNL A   1      42.157  30.260  33.839  1.00  0.00     0.064 A 
ATOM    132  C   UNL A   1      41.804  28.960  33.445  1.00  0.00     0.173 A 
ATOM    133  C   UNL A   1      42.464  30.473  35.190  1.00  0.00     0.173 A 
ATOM    134  F   UNL A   1      41.566  28.669  32.159  1.00  0.00    -0.203 F 
ATOM    135  C   UNL A   1      41.735  27.925  34.376  1.00  0.00     0.198 A 
ATOM    136  C   UNL A   1      42.428  29.431  36.109  1.00  0.00     0.198 A 
ATOM    137  F   UNL A   1      42.840  31.691  35.609  1.00  0.00    -0.203 F 
ATOM    138  F   UNL A   1      41.384  26.691  33.985  1.00  0.00    -0.200 F 
ATOM    139  C   UNL A   1      42.055  28.160  35.704  1.00  0.00     0.200 A 
ATOM    140  F   UNL A   1      42.779  29.656  37.382  1.00  0.00    -0.200 F 
ATOM    141  F   UNL A   1      42.028  27.156  36.592  1.00  0.00    -0.200 F 
ENDBRANCH 107 131
ENDBRANCH  72  75
ENDBRANCH  62  65
ENDBRANCH  58  61
ENDBRANCH  55  58
ENDBRANCH  52  55
ENDBRANCH   1  52
TORSDOF 18
ENDMDL
