MODEL 1
REMARK VINA RESULT:     -11.7      0.000      0.000
REMARK SMILES Cc1cc(C)c2c(=O)n(CCCC(=O)NCCCCCCNC(=O)c3ccc(-c4c5nc(c(-c6c(F)c(F)c(F)c(F)c6F)c6ccc([nH]6)c(-c6c(F)c(F)c(F)c(F)c6F)c6nc(c(-c7c(F)c(F)c(F)c(F)c7F)c7ccc4[nH]7)C=C6)C=C5)cc3)sc2n1
REMARK SMILES IDX 17 1 16 4 15 7 13 8 14 9 12 11 11 14 10 17 9 20 2 21 3 22
REMARK SMILES IDX 90 23 4 24 89 26 6 27 88 28 7 29 8 30 1 31 5 35 18 39 19 42
REMARK SMILES IDX 20 45 21 48 22 51 23 52 24 54 25 55 26 56 87 57 27 58 86 60
REMARK SMILES IDX 28 62 29 65 30 66 80 67 31 68 85 69 79 70 81 71 32 72 84 73
REMARK SMILES IDX 78 75 77 77 33 79 65 82 45 83 64 84 46 85 49 86 63 87 82 88
REMARK SMILES IDX 47 89 48 91 62 93 83 94 50 97 34 99 35 100 43 101 36 102
REMARK SMILES IDX 37 103 41 104 44 105 38 106 39 107 42 108 40 109 66 110
REMARK SMILES IDX 67 111 75 112 68 113 69 114 73 115 76 116 70 117 71 118
REMARK SMILES IDX 74 119 72 120 51 121 52 122 60 123 53 124 54 125 58 126
REMARK SMILES IDX 61 127 55 128 56 129 59 130 57 131
REMARK H PARENT 17 2 17 3 16 5 16 6 15 10 12 12 12 13 11 15 11 16 10 18 10 19
REMARK H PARENT 3 25 1 32 1 33 1 34 5 36 5 37 5 38 18 40 18 41 19 43 19 44
REMARK H PARENT 20 46 20 47 21 49 21 50 22 53 26 59 87 61 27 63 86 64 85 74
REMARK H PARENT 79 76 81 78 84 80 78 81 46 90 49 92 82 95 47 96 83 98
REMARK Flexibility Score: inf
ROOT
ATOM      1  C   UNL A   1      39.156  21.442  26.124  1.00  0.00    -0.036 C 
ATOM      2  H   UNL A   1      39.146  20.933  25.183  1.00  0.00     0.028 H 
ATOM      3  H   UNL A   1      38.671  20.876  26.892  1.00  0.00     0.028 H 
ENDROOT
BRANCH   1   4
ATOM      4  C   UNL A   1      38.388  22.755  25.976  1.00  0.00     0.017 C 
ATOM      5  H   UNL A   1      37.618  22.800  26.718  1.00  0.00     0.049 H 
ATOM      6  H   UNL A   1      39.067  23.572  26.104  1.00  0.00     0.049 H 
BRANCH   4   7
ATOM      7  N   UNL A   1      37.791  22.842  24.664  1.00  0.00    -0.356 N 
ATOM      8  C   UNL A   1      36.586  23.323  24.269  1.00  0.00     0.220 C 
ATOM      9  O   UNL A   1      36.271  23.167  23.087  1.00  0.00    -0.275 OA
ATOM     10  H   UNL A   1      38.352  22.492  23.935  1.00  0.00     0.163 HD
BRANCH   8  11
ATOM     11  C   UNL A   1      35.703  24.134  25.200  1.00  0.00     0.028 C 
ATOM     12  H   UNL A   1      35.644  23.589  26.119  1.00  0.00     0.037 H 
ATOM     13  H   UNL A   1      36.185  25.089  25.220  1.00  0.00     0.037 H 
BRANCH  11  14
ATOM     14  C   UNL A   1      34.264  24.478  24.797  1.00  0.00    -0.025 C 
ATOM     15  H   UNL A   1      33.806  23.556  24.505  1.00  0.00     0.029 H 
ATOM     16  H   UNL A   1      33.901  24.985  25.667  1.00  0.00     0.029 H 
BRANCH  14  17
ATOM     17  C   UNL A   1      33.951  25.488  23.679  1.00  0.00     0.037 C 
ATOM     18  H   UNL A   1      34.765  26.181  23.660  1.00  0.00     0.051 H 
ATOM     19  H   UNL A   1      33.800  24.854  22.830  1.00  0.00     0.051 H 
BRANCH  17  20
ATOM     20  N   UNL A   1      32.729  26.286  23.699  1.00  0.00    -0.262 N 
ATOM     21  C   UNL A   1      29.385  29.428  22.625  1.00  0.00     0.039 A 
ATOM     22  C   UNL A   1      29.954  30.100  23.716  1.00  0.00    -0.037 A 
ATOM     23  N   UNL A   1      29.787  28.195  22.238  1.00  0.00    -0.241 NA
ATOM     24  C   UNL A   1      31.011  29.511  24.433  1.00  0.00    -0.033 A 
ATOM     25  H   UNL A   1      29.597  31.028  23.993  1.00  0.00     0.064 H 
ATOM     26  C   UNL A   1      30.801  27.664  22.940  1.00  0.00     0.146 A 
ATOM     27  C   UNL A   1      31.476  28.285  23.972  1.00  0.00     0.081 A 
ATOM     28  S   UNL A   1      31.392  26.022  22.667  1.00  0.00    -0.035 S 
ATOM     29  C   UNL A   1      32.669  27.507  24.380  1.00  0.00     0.270 A 
ATOM     30  O   UNL A   1      33.520  27.954  25.137  1.00  0.00    -0.268 OA
BRANCH  21  31
ATOM     31  C   UNL A   1      28.312  30.067  21.796  1.00  0.00    -0.022 C 
ATOM     32  H   UNL A   1      28.133  31.061  22.149  1.00  0.00     0.030 H 
ATOM     33  H   UNL A   1      27.412  29.493  21.874  1.00  0.00     0.030 H 
ATOM     34  H   UNL A   1      28.624  30.103  20.774  1.00  0.00     0.030 H 
ENDBRANCH  21  31
BRANCH  24  35
ATOM     35  C   UNL A   1      31.570  30.171  25.654  1.00  0.00    -0.039 C 
ATOM     36  H   UNL A   1      31.463  29.517  26.494  1.00  0.00     0.028 H 
ATOM     37  H   UNL A   1      31.042  31.082  25.840  1.00  0.00     0.028 H 
ATOM     38  H   UNL A   1      32.607  30.385  25.500  1.00  0.00     0.028 H 
ENDBRANCH  24  35
ENDBRANCH  17  20
ENDBRANCH  14  17
ENDBRANCH  11  14
ENDBRANCH   8  11
ENDBRANCH   4   7
ENDBRANCH   1   4
BRANCH   1  39
ATOM     39  C   UNL A   1      40.612  21.638  26.556  1.00  0.00    -0.052 C 
ATOM     40  H   UNL A   1      40.696  22.606  27.005  1.00  0.00     0.027 H 
ATOM     41  H   UNL A   1      41.203  21.525  25.671  1.00  0.00     0.027 H 
BRANCH  39  42
ATOM     42  C   UNL A   1      41.143  20.600  27.560  1.00  0.00    -0.052 C 
ATOM     43  H   UNL A   1      40.324  19.974  27.845  1.00  0.00     0.027 H 
ATOM     44  H   UNL A   1      41.565  21.170  28.361  1.00  0.00     0.027 H 
BRANCH  42  45
ATOM     45  C   UNL A   1      42.277  19.691  27.064  1.00  0.00    -0.036 C 
ATOM     46  H   UNL A   1      42.113  18.703  27.442  1.00  0.00     0.028 H 
ATOM     47  H   UNL A   1      43.198  20.108  27.417  1.00  0.00     0.028 H 
BRANCH  45  48
ATOM     48  C   UNL A   1      42.366  19.619  25.551  1.00  0.00     0.018 C 
ATOM     49  H   UNL A   1      41.899  20.490  25.139  1.00  0.00     0.049 H 
ATOM     50  H   UNL A   1      41.873  18.721  25.239  1.00  0.00     0.049 H 
BRANCH  48  51
ATOM     51  N   UNL A   1      43.748  19.556  25.068  1.00  0.00    -0.352 N 
ATOM     52  C   UNL A   1      44.621  20.591  24.775  1.00  0.00     0.251 C 
ATOM     53  H   UNL A   1      44.108  18.649  24.932  1.00  0.00     0.163 HD
ATOM     54  O   UNL A   1      45.613  20.410  24.094  1.00  0.00    -0.269 OA
BRANCH  52  55
ATOM     55  C   UNL A   1      44.322  21.928  25.318  1.00  0.00     0.039 A 
ATOM     56  C   UNL A   1      43.484  22.833  24.663  1.00  0.00    -0.049 A 
ATOM     57  C   UNL A   1      44.906  22.259  26.533  1.00  0.00    -0.049 A 
ATOM     58  C   UNL A   1      43.222  24.055  25.278  1.00  0.00    -0.053 A 
ATOM     59  H   UNL A   1      43.070  22.602  23.746  1.00  0.00     0.063 H 
ATOM     60  C   UNL A   1      44.437  23.317  27.248  1.00  0.00    -0.053 A 
ATOM     61  H   UNL A   1      45.697  21.702  26.894  1.00  0.00     0.063 H 
ATOM     62  C   UNL A   1      43.711  24.281  26.574  1.00  0.00    -0.014 A 
ATOM     63  H   UNL A   1      42.676  24.782  24.789  1.00  0.00     0.063 H 
ATOM     64  H   UNL A   1      44.617  23.397  28.260  1.00  0.00     0.063 H 
BRANCH  62  65
ATOM     65  C   UNL A   1      43.487  25.526  27.286  1.00  0.00     0.031 A 
ATOM     66  C   UNL A   1      44.458  26.598  26.966  1.00  0.00     0.074 A 
ATOM     67  C   UNL A   1      42.361  25.740  28.002  1.00  0.00     0.049 A 
ATOM     68  N   UNL A   1      45.336  27.127  27.751  1.00  0.00    -0.248 NA
ATOM     69  C   UNL A   1      44.561  27.040  25.567  1.00  0.00    -0.034 C 
ATOM     70  C   UNL A   1      41.164  24.891  28.127  1.00  0.00    -0.036 A 
ATOM     71  N   UNL A   1      42.014  26.835  28.724  1.00  0.00    -0.354 N 
ATOM     72  C   UNL A   1      45.994  28.093  26.995  1.00  0.00     0.074 A 
ATOM     73  C   UNL A   1      45.594  27.881  25.629  1.00  0.00    -0.034 C 
ATOM     74  H   UNL A   1      43.987  26.770  24.753  1.00  0.00     0.065 H 
ATOM     75  C   UNL A   1      40.156  25.595  28.687  1.00  0.00    -0.036 A 
ATOM     76  H   UNL A   1      41.104  23.904  27.829  1.00  0.00     0.065 H 
ATOM     77  C   UNL A   1      40.687  26.866  29.134  1.00  0.00     0.049 A 
ATOM     78  H   UNL A   1      42.653  27.553  28.940  1.00  0.00     0.167 HD
ATOM     79  C   UNL A   1      46.647  29.125  27.595  1.00  0.00     0.037 A 
ATOM     80  H   UNL A   1      46.045  28.321  24.810  1.00  0.00     0.065 H 
ATOM     81  H   UNL A   1      39.178  25.281  28.781  1.00  0.00     0.065 H 
ATOM     82  C   UNL A   1      40.077  27.885  29.785  1.00  0.00     0.037 A 
ATOM     83  C   UNL A   1      46.854  28.856  28.996  1.00  0.00     0.049 A 
ATOM     84  C   UNL A   1      41.156  28.700  30.396  1.00  0.00     0.074 A 
ATOM     85  C   UNL A   1      47.615  27.958  29.715  1.00  0.00    -0.036 A 
ATOM     86  N   UNL A   1      45.902  29.328  29.863  1.00  0.00    -0.354 N 
ATOM     87  N   UNL A   1      41.945  28.273  31.343  1.00  0.00    -0.248 NA
ATOM     88  C   UNL A   1      41.643  29.843  29.643  1.00  0.00    -0.034 C 
ATOM     89  C   UNL A   1      46.814  27.611  30.846  1.00  0.00    -0.036 A 
ATOM     90  H   UNL A   1      48.559  27.610  29.486  1.00  0.00     0.065 H 
ATOM     91  C   UNL A   1      45.635  28.356  30.794  1.00  0.00     0.049 A 
ATOM     92  H   UNL A   1      45.479  30.216  29.824  1.00  0.00     0.167 HD
ATOM     93  C   UNL A   1      43.189  28.810  31.039  1.00  0.00     0.074 A 
ATOM     94  C   UNL A   1      42.915  29.849  30.049  1.00  0.00    -0.034 C 
ATOM     95  H   UNL A   1      41.150  30.468  28.987  1.00  0.00     0.065 H 
ATOM     96  H   UNL A   1      47.066  26.927  31.577  1.00  0.00     0.065 H 
ATOM     97  C   UNL A   1      44.336  28.168  31.409  1.00  0.00     0.037 A 
ATOM     98  H   UNL A   1      43.625  30.513  29.703  1.00  0.00     0.065 H 
BRANCH  79  99
ATOM     99  C   UNL A   1      46.781  30.511  27.014  1.00  0.00     0.064 A 
ATOM    100  C   UNL A   1      48.039  31.146  27.024  1.00  0.00     0.173 A 
ATOM    101  C   UNL A   1      45.685  31.347  26.706  1.00  0.00     0.173 A 
ATOM    102  F   UNL A   1      49.149  30.458  27.330  1.00  0.00    -0.203 F 
ATOM    103  C   UNL A   1      48.178  32.519  26.799  1.00  0.00     0.198 A 
ATOM    104  C   UNL A   1      45.833  32.705  26.429  1.00  0.00     0.198 A 
ATOM    105  F   UNL A   1      44.420  30.915  26.769  1.00  0.00    -0.203 F 
ATOM    106  F   UNL A   1      49.380  33.097  26.931  1.00  0.00    -0.200 F 
ATOM    107  C   UNL A   1      47.074  33.298  26.503  1.00  0.00     0.200 A 
ATOM    108  F   UNL A   1      44.747  33.445  26.165  1.00  0.00    -0.200 F 
ATOM    109  F   UNL A   1      47.197  34.621  26.337  1.00  0.00    -0.200 F 
ENDBRANCH  79  99
BRANCH  82 110
ATOM    110  C   UNL A   1      38.710  28.417  29.574  1.00  0.00     0.064 A 
ATOM    111  C   UNL A   1      37.875  28.695  30.668  1.00  0.00     0.173 A 
ATOM    112  C   UNL A   1      38.322  28.962  28.334  1.00  0.00     0.173 A 
ATOM    113  F   UNL A   1      38.196  28.245  31.890  1.00  0.00    -0.203 F 
ATOM    114  C   UNL A   1      36.745  29.511  30.542  1.00  0.00     0.198 A 
ATOM    115  C   UNL A   1      37.193  29.775  28.208  1.00  0.00     0.198 A 
ATOM    116  F   UNL A   1      39.086  28.804  27.244  1.00  0.00    -0.203 F 
ATOM    117  F   UNL A   1      36.017  29.818  31.624  1.00  0.00    -0.200 F 
ATOM    118  C   UNL A   1      36.415  30.064  29.315  1.00  0.00     0.200 A 
ATOM    119  F   UNL A   1      36.905  30.334  27.024  1.00  0.00    -0.200 F 
ATOM    120  F   UNL A   1      35.380  30.908  29.208  1.00  0.00    -0.200 F 
ENDBRANCH  82 110
BRANCH  97 121
ATOM    121  C   UNL A   1      44.207  27.033  32.394  1.00  0.00     0.064 A 
ATOM    122  C   UNL A   1      44.205  25.671  32.044  1.00  0.00     0.173 A 
ATOM    123  C   UNL A   1      44.218  27.337  33.762  1.00  0.00     0.173 A 
ATOM    124  F   UNL A   1      44.284  25.287  30.766  1.00  0.00    -0.203 F 
ATOM    125  C   UNL A   1      44.177  24.667  33.014  1.00  0.00     0.198 A 
ATOM    126  C   UNL A   1      44.227  26.335  34.730  1.00  0.00     0.198 A 
ATOM    127  F   UNL A   1      44.268  28.617  34.164  1.00  0.00    -0.203 F 
ATOM    128  F   UNL A   1      44.164  23.377  32.648  1.00  0.00    -0.200 F 
ATOM    129  C   UNL A   1      44.198  25.001  34.356  1.00  0.00     0.200 A 
ATOM    130  F   UNL A   1      44.294  26.664  36.027  1.00  0.00    -0.200 F 
ATOM    131  F   UNL A   1      44.215  24.039  35.290  1.00  0.00    -0.200 F 
ENDBRANCH  97 121
ENDBRANCH  62  65
ENDBRANCH  52  55
ENDBRANCH  48  51
ENDBRANCH  45  48
ENDBRANCH  42  45
ENDBRANCH  39  42
ENDBRANCH   1  39
TORSDOF 18
ENDMDL
MODEL 2
REMARK VINA RESULT:     -11.5      2.073      3.483
REMARK SMILES Cc1cc(C)c2c(=O)n(CCCC(=O)NCCCCCCNC(=O)c3ccc(-c4c5nc(c(-c6c(F)c(F)c(F)c(F)c6F)c6ccc([nH]6)c(-c6c(F)c(F)c(F)c(F)c6F)c6nc(c(-c7c(F)c(F)c(F)c(F)c7F)c7ccc4[nH]7)C=C6)C=C5)cc3)sc2n1
REMARK SMILES IDX 17 1 16 4 15 7 13 8 14 9 12 11 11 14 10 17 9 20 2 21 3 22
REMARK SMILES IDX 90 23 4 24 89 26 6 27 88 28 7 29 8 30 1 31 5 35 18 39 19 42
REMARK SMILES IDX 20 45 21 48 22 51 23 52 24 54 25 55 26 56 87 57 27 58 86 60
REMARK SMILES IDX 28 62 29 65 30 66 80 67 31 68 85 69 79 70 81 71 32 72 84 73
REMARK SMILES IDX 78 75 77 77 33 79 65 82 45 83 64 84 46 85 49 86 63 87 82 88
REMARK SMILES IDX 47 89 48 91 62 93 83 94 50 97 34 99 35 100 43 101 36 102
REMARK SMILES IDX 37 103 41 104 44 105 38 106 39 107 42 108 40 109 66 110
REMARK SMILES IDX 67 111 75 112 68 113 69 114 73 115 76 116 70 117 71 118
REMARK SMILES IDX 74 119 72 120 51 121 52 122 60 123 53 124 54 125 58 126
REMARK SMILES IDX 61 127 55 128 56 129 59 130 57 131
REMARK H PARENT 17 2 17 3 16 5 16 6 15 10 12 12 12 13 11 15 11 16 10 18 10 19
REMARK H PARENT 3 25 1 32 1 33 1 34 5 36 5 37 5 38 18 40 18 41 19 43 19 44
REMARK H PARENT 20 46 20 47 21 49 21 50 22 53 26 59 87 61 27 63 86 64 85 74
REMARK H PARENT 79 76 81 78 84 80 78 81 46 90 49 92 82 95 47 96 83 98
REMARK Flexibility Score: inf
ROOT
ATOM      1  C   UNL A   1      39.184  22.498  26.374  1.00  0.00    -0.036 C 
ATOM      2  H   UNL A   1      38.982  22.551  27.423  1.00  0.00     0.028 H 
ATOM      3  H   UNL A   1      39.145  23.459  25.906  1.00  0.00     0.028 H 
ENDROOT
BRANCH   1   4
ATOM      4  C   UNL A   1      38.111  21.630  25.715  1.00  0.00     0.017 C 
ATOM      5  H   UNL A   1      38.535  20.683  25.451  1.00  0.00     0.049 H 
ATOM      6  H   UNL A   1      37.304  21.491  26.403  1.00  0.00     0.049 H 
BRANCH   4   7
ATOM      7  N   UNL A   1      37.608  22.273  24.524  1.00  0.00    -0.356 N 
ATOM      8  C   UNL A   1      36.550  23.103  24.344  1.00  0.00     0.220 C 
ATOM      9  O   UNL A   1      36.266  23.420  23.187  1.00  0.00    -0.275 OA
ATOM     10  H   UNL A   1      38.119  22.077  23.705  1.00  0.00     0.163 HD
BRANCH   8  11
ATOM     11  C   UNL A   1      35.811  23.723  25.515  1.00  0.00     0.028 C 
ATOM     12  H   UNL A   1      35.272  22.931  25.992  1.00  0.00     0.037 H 
ATOM     13  H   UNL A   1      36.592  24.197  26.071  1.00  0.00     0.037 H 
BRANCH  11  14
ATOM     14  C   UNL A   1      34.809  24.861  25.282  1.00  0.00    -0.025 C 
ATOM     15  H   UNL A   1      34.764  25.412  26.198  1.00  0.00     0.029 H 
ATOM     16  H   UNL A   1      35.206  25.336  24.410  1.00  0.00     0.029 H 
BRANCH  14  17
ATOM     17  C   UNL A   1      33.352  24.590  24.869  1.00  0.00     0.037 C 
ATOM     18  H   UNL A   1      32.736  25.122  25.565  1.00  0.00     0.051 H 
ATOM     19  H   UNL A   1      33.342  24.894  23.843  1.00  0.00     0.051 H 
BRANCH  17  20
ATOM     20  N   UNL A   1      32.822  23.232  24.803  1.00  0.00    -0.262 N 
ATOM     21  C   UNL A   1      32.476  18.534  24.707  1.00  0.00     0.039 A 
ATOM     22  C   UNL A   1      32.266  18.782  23.344  1.00  0.00    -0.037 A 
ATOM     23  N   UNL A   1      32.616  19.526  25.616  1.00  0.00    -0.241 NA
ATOM     24  C   UNL A   1      32.233  20.104  22.865  1.00  0.00    -0.033 A 
ATOM     25  H   UNL A   1      32.136  17.994  22.690  1.00  0.00     0.064 H 
ATOM     26  C   UNL A   1      32.586  20.777  25.125  1.00  0.00     0.146 A 
ATOM     27  C   UNL A   1      32.468  21.113  23.791  1.00  0.00     0.081 A 
ATOM     28  S   UNL A   1      32.636  22.207  26.159  1.00  0.00    -0.035 S 
ATOM     29  C   UNL A   1      32.682  22.564  23.582  1.00  0.00     0.270 A 
ATOM     30  O   UNL A   1      32.816  23.057  22.470  1.00  0.00    -0.268 OA
BRANCH  21  31
ATOM     31  C   UNL A   1      32.593  17.133  25.230  1.00  0.00    -0.022 C 
ATOM     32  H   UNL A   1      32.343  16.441  24.454  1.00  0.00     0.030 H 
ATOM     33  H   UNL A   1      31.924  17.003  26.055  1.00  0.00     0.030 H 
ATOM     34  H   UNL A   1      33.598  16.957  25.554  1.00  0.00     0.030 H 
ENDBRANCH  21  31
BRANCH  24  35
ATOM     35  C   UNL A   1      31.921  20.393  21.430  1.00  0.00    -0.039 C 
ATOM     36  H   UNL A   1      32.832  20.541  20.890  1.00  0.00     0.028 H 
ATOM     37  H   UNL A   1      31.320  21.275  21.366  1.00  0.00     0.028 H 
ATOM     38  H   UNL A   1      31.388  19.566  21.009  1.00  0.00     0.028 H 
ENDBRANCH  24  35
ENDBRANCH  17  20
ENDBRANCH  14  17
ENDBRANCH  11  14
ENDBRANCH   8  11
ENDBRANCH   4   7
ENDBRANCH   1   4
BRANCH   1  39
ATOM     39  C   UNL A   1      40.603  21.955  26.179  1.00  0.00    -0.052 C 
ATOM     40  H   UNL A   1      41.246  22.782  25.964  1.00  0.00     0.027 H 
ATOM     41  H   UNL A   1      40.543  21.242  25.385  1.00  0.00     0.027 H 
BRANCH  39  42
ATOM     42  C   UNL A   1      41.186  21.200  27.387  1.00  0.00    -0.052 C 
ATOM     43  H   UNL A   1      40.372  20.743  27.908  1.00  0.00     0.027 H 
ATOM     44  H   UNL A   1      41.717  21.937  27.953  1.00  0.00     0.027 H 
BRANCH  42  45
ATOM     45  C   UNL A   1      42.216  20.105  27.073  1.00  0.00    -0.036 C 
ATOM     46  H   UNL A   1      41.920  19.206  27.571  1.00  0.00     0.028 H 
ATOM     47  H   UNL A   1      43.169  20.457  27.411  1.00  0.00     0.028 H 
BRANCH  45  48
ATOM     48  C   UNL A   1      42.345  19.814  25.589  1.00  0.00     0.018 C 
ATOM     49  H   UNL A   1      41.859  20.597  25.044  1.00  0.00     0.049 H 
ATOM     50  H   UNL A   1      41.892  18.863  25.405  1.00  0.00     0.049 H 
BRANCH  48  51
ATOM     51  N   UNL A   1      43.740  19.734  25.148  1.00  0.00    -0.352 N 
ATOM     52  C   UNL A   1      44.632  20.758  24.876  1.00  0.00     0.251 C 
ATOM     53  H   UNL A   1      44.093  18.822  25.027  1.00  0.00     0.163 HD
ATOM     54  O   UNL A   1      45.642  20.562  24.225  1.00  0.00    -0.269 OA
BRANCH  52  55
ATOM     55  C   UNL A   1      44.333  22.100  25.404  1.00  0.00     0.039 A 
ATOM     56  C   UNL A   1      43.555  23.025  24.703  1.00  0.00    -0.049 A 
ATOM     57  C   UNL A   1      44.853  22.417  26.652  1.00  0.00    -0.049 A 
ATOM     58  C   UNL A   1      43.285  24.252  25.305  1.00  0.00    -0.053 A 
ATOM     59  H   UNL A   1      43.190  22.805  23.763  1.00  0.00     0.063 H 
ATOM     60  C   UNL A   1      44.366  23.485  27.340  1.00  0.00    -0.053 A 
ATOM     61  H   UNL A   1      45.608  21.842  27.057  1.00  0.00     0.063 H 
ATOM     62  C   UNL A   1      43.704  24.465  26.627  1.00  0.00    -0.014 A 
ATOM     63  H   UNL A   1      42.786  24.992  24.786  1.00  0.00     0.063 H 
ATOM     64  H   UNL A   1      44.490  23.560  28.361  1.00  0.00     0.063 H 
BRANCH  62  65
ATOM     65  C   UNL A   1      43.467  25.715  27.327  1.00  0.00     0.031 A 
ATOM     66  C   UNL A   1      44.414  26.800  26.982  1.00  0.00     0.074 A 
ATOM     67  C   UNL A   1      42.346  25.917  28.056  1.00  0.00     0.049 A 
ATOM     68  N   UNL A   1      45.292  27.354  27.749  1.00  0.00    -0.248 NA
ATOM     69  C   UNL A   1      44.490  27.227  25.577  1.00  0.00    -0.034 C 
ATOM     70  C   UNL A   1      41.167  25.049  28.207  1.00  0.00    -0.036 A 
ATOM     71  N   UNL A   1      41.990  27.015  28.770  1.00  0.00    -0.354 N 
ATOM     72  C   UNL A   1      45.923  28.322  26.973  1.00  0.00     0.074 A 
ATOM     73  C   UNL A   1      45.509  28.088  25.615  1.00  0.00    -0.034 C 
ATOM     74  H   UNL A   1      43.911  26.937  24.773  1.00  0.00     0.065 H 
ATOM     75  C   UNL A   1      40.154  25.742  28.772  1.00  0.00    -0.036 A 
ATOM     76  H   UNL A   1      41.120  24.058  27.921  1.00  0.00     0.065 H 
ATOM     77  C   UNL A   1      40.668  27.027  29.197  1.00  0.00     0.049 A 
ATOM     78  H   UNL A   1      42.619  27.746  28.969  1.00  0.00     0.167 HD
ATOM     79  C   UNL A   1      46.565  29.373  27.552  1.00  0.00     0.037 A 
ATOM     80  H   UNL A   1      45.941  28.525  24.785  1.00  0.00     0.065 H 
ATOM     81  H   UNL A   1      39.183  25.411  28.883  1.00  0.00     0.065 H 
ATOM     82  C   UNL A   1      40.049  28.042  29.845  1.00  0.00     0.037 A 
ATOM     83  C   UNL A   1      46.796  29.124  28.953  1.00  0.00     0.049 A 
ATOM     84  C   UNL A   1      41.120  28.884  30.431  1.00  0.00     0.074 A 
ATOM     85  C   UNL A   1      47.582  28.248  29.672  1.00  0.00    -0.036 A 
ATOM     86  N   UNL A   1      45.847  29.589  29.827  1.00  0.00    -0.354 N 
ATOM     87  N   UNL A   1      41.930  28.482  31.372  1.00  0.00    -0.248 NA
ATOM     88  C   UNL A   1      41.577  30.026  29.659  1.00  0.00    -0.034 C 
ATOM     89  C   UNL A   1      46.803  27.901  30.818  1.00  0.00    -0.036 A 
ATOM     90  H   UNL A   1      48.529  27.915  29.434  1.00  0.00     0.065 H 
ATOM     91  C   UNL A   1      45.610  28.624  30.773  1.00  0.00     0.049 A 
ATOM     92  H   UNL A   1      45.408  30.469  29.784  1.00  0.00     0.167 HD
ATOM     93  C   UNL A   1      43.159  29.037  31.046  1.00  0.00     0.074 A 
ATOM     94  C   UNL A   1      42.854  30.059  30.047  1.00  0.00    -0.034 C 
ATOM     95  H   UNL A   1      41.064  30.635  29.002  1.00  0.00     0.065 H 
ATOM     96  H   UNL A   1      47.076  27.231  31.554  1.00  0.00     0.065 H 
ATOM     97  C   UNL A   1      44.323  28.421  31.408  1.00  0.00     0.037 A 
ATOM     98  H   UNL A   1      43.548  30.732  29.684  1.00  0.00     0.065 H 
BRANCH  79  99
ATOM     99  C   UNL A   1      46.667  30.754  26.953  1.00  0.00     0.064 A 
ATOM    100  C   UNL A   1      47.911  31.416  26.948  1.00  0.00     0.173 A 
ATOM    101  C   UNL A   1      45.552  31.563  26.641  1.00  0.00     0.173 A 
ATOM    102  F   UNL A   1      49.038  30.755  27.256  1.00  0.00    -0.203 F 
ATOM    103  C   UNL A   1      48.020  32.789  26.705  1.00  0.00     0.198 A 
ATOM    104  C   UNL A   1      45.669  32.920  26.346  1.00  0.00     0.198 A 
ATOM    105  F   UNL A   1      44.296  31.105  26.717  1.00  0.00    -0.203 F 
ATOM    106  F   UNL A   1      49.210  33.393  26.823  1.00  0.00    -0.200 F 
ATOM    107  C   UNL A   1      46.898  33.540  26.406  1.00  0.00     0.200 A 
ATOM    108  F   UNL A   1      44.567  33.634  26.079  1.00  0.00    -0.200 F 
ATOM    109  F   UNL A   1      46.992  34.863  26.223  1.00  0.00    -0.200 F 
ENDBRANCH  79  99
BRANCH  82 110
ATOM    110  C   UNL A   1      38.669  28.548  29.646  1.00  0.00     0.064 A 
ATOM    111  C   UNL A   1      37.856  28.858  30.748  1.00  0.00     0.173 A 
ATOM    112  C   UNL A   1      38.244  29.038  28.395  1.00  0.00     0.173 A 
ATOM    113  F   UNL A   1      38.212  28.460  31.979  1.00  0.00    -0.203 F 
ATOM    114  C   UNL A   1      36.713  29.653  30.617  1.00  0.00     0.198 A 
ATOM    115  C   UNL A   1      37.101  29.830  28.265  1.00  0.00     0.198 A 
ATOM    116  F   UNL A   1      38.985  28.847  27.294  1.00  0.00    -0.203 F 
ATOM    117  F   UNL A   1      36.005  29.992  31.704  1.00  0.00    -0.200 F 
ATOM    118  C   UNL A   1      36.346  30.153  29.378  1.00  0.00     0.200 A 
ATOM    119  F   UNL A   1      36.777  30.338  27.067  1.00  0.00    -0.200 F 
ATOM    120  F   UNL A   1      35.297  30.978  29.263  1.00  0.00    -0.200 F 
ENDBRANCH  82 110
BRANCH  97 121
ATOM    121  C   UNL A   1      44.228  27.295  32.408  1.00  0.00     0.064 A 
ATOM    122  C   UNL A   1      44.018  27.472  33.787  1.00  0.00     0.173 A 
ATOM    123  C   UNL A   1      44.219  25.979  31.928  1.00  0.00     0.173 A 
ATOM    124  F   UNL A   1      43.922  28.695  34.320  1.00  0.00    -0.203 F 
ATOM    125  C   UNL A   1      43.846  26.384  34.646  1.00  0.00     0.198 A 
ATOM    126  C   UNL A   1      44.010  24.895  32.778  1.00  0.00     0.198 A 
ATOM    127  F   UNL A   1      44.366  25.744  30.614  1.00  0.00    -0.203 F 
ATOM    128  F   UNL A   1      43.659  26.584  35.958  1.00  0.00    -0.200 F 
ATOM    129  C   UNL A   1      43.833  25.098  34.137  1.00  0.00     0.200 A 
ATOM    130  F   UNL A   1      43.952  23.656  32.274  1.00  0.00    -0.200 F 
ATOM    131  F   UNL A   1      43.625  24.053  34.952  1.00  0.00    -0.200 F 
ENDBRANCH  97 121
ENDBRANCH  62  65
ENDBRANCH  52  55
ENDBRANCH  48  51
ENDBRANCH  45  48
ENDBRANCH  42  45
ENDBRANCH  39  42
ENDBRANCH   1  39
TORSDOF 18
ENDMDL
MODEL 3
REMARK VINA RESULT:     -11.4      2.912      4.899
REMARK SMILES Cc1cc(C)c2c(=O)n(CCCC(=O)NCCCCCCNC(=O)c3ccc(-c4c5nc(c(-c6c(F)c(F)c(F)c(F)c6F)c6ccc([nH]6)c(-c6c(F)c(F)c(F)c(F)c6F)c6nc(c(-c7c(F)c(F)c(F)c(F)c7F)c7ccc4[nH]7)C=C6)C=C5)cc3)sc2n1
REMARK SMILES IDX 17 1 16 4 15 7 13 8 14 9 12 11 11 14 10 17 9 20 2 21 3 22
REMARK SMILES IDX 90 23 4 24 89 26 6 27 88 28 7 29 8 30 1 31 5 35 18 39 19 42
REMARK SMILES IDX 20 45 21 48 22 51 23 52 24 54 25 55 26 56 87 57 27 58 86 60
REMARK SMILES IDX 28 62 29 65 30 66 80 67 31 68 85 69 79 70 81 71 32 72 84 73
REMARK SMILES IDX 78 75 77 77 33 79 65 82 45 83 64 84 46 85 49 86 63 87 82 88
REMARK SMILES IDX 47 89 48 91 62 93 83 94 50 97 34 99 35 100 43 101 36 102
REMARK SMILES IDX 37 103 41 104 44 105 38 106 39 107 42 108 40 109 66 110
REMARK SMILES IDX 67 111 75 112 68 113 69 114 73 115 76 116 70 117 71 118
REMARK SMILES IDX 74 119 72 120 51 121 52 122 60 123 53 124 54 125 58 126
REMARK SMILES IDX 61 127 55 128 56 129 59 130 57 131
REMARK H PARENT 17 2 17 3 16 5 16 6 15 10 12 12 12 13 11 15 11 16 10 18 10 19
REMARK H PARENT 3 25 1 32 1 33 1 34 5 36 5 37 5 38 18 40 18 41 19 43 19 44
REMARK H PARENT 20 46 20 47 21 49 21 50 22 53 26 59 87 61 27 63 86 64 85 74
REMARK H PARENT 79 76 81 78 84 80 78 81 46 90 49 92 82 95 47 96 83 98
REMARK Flexibility Score: inf
ROOT
ATOM      1  C   UNL A   1      34.507  25.141  24.510  1.00  0.00    -0.036 C 
ATOM      2  H   UNL A   1      35.023  25.419  23.616  1.00  0.00     0.028 H 
ATOM      3  H   UNL A   1      33.657  24.523  24.309  1.00  0.00     0.028 H 
ENDROOT
BRANCH   1   4
ATOM      4  C   UNL A   1      33.994  26.411  25.191  1.00  0.00     0.017 C 
ATOM      5  H   UNL A   1      33.116  26.178  25.757  1.00  0.00     0.049 H 
ATOM      6  H   UNL A   1      34.756  26.792  25.837  1.00  0.00     0.049 H 
BRANCH   4   7
ATOM      7  N   UNL A   1      33.670  27.413  24.203  1.00  0.00    -0.356 N 
ATOM      8  C   UNL A   1      32.496  28.030  23.917  1.00  0.00     0.220 C 
ATOM      9  O   UNL A   1      32.467  28.771  22.932  1.00  0.00    -0.275 OA
ATOM     10  H   UNL A   1      34.428  27.696  23.643  1.00  0.00     0.163 HD
BRANCH   8  11
ATOM     11  C   UNL A   1      31.291  27.921  24.834  1.00  0.00     0.028 C 
ATOM     12  H   UNL A   1      31.655  27.574  25.779  1.00  0.00     0.037 H 
ATOM     13  H   UNL A   1      30.868  28.903  24.796  1.00  0.00     0.037 H 
BRANCH  11  14
ATOM     14  C   UNL A   1      30.111  27.018  24.456  1.00  0.00    -0.025 C 
ATOM     15  H   UNL A   1      29.226  27.590  24.637  1.00  0.00     0.029 H 
ATOM     16  H   UNL A   1      30.352  26.740  23.451  1.00  0.00     0.029 H 
BRANCH  14  17
ATOM     17  C   UNL A   1      29.885  25.651  25.125  1.00  0.00     0.037 C 
ATOM     18  H   UNL A   1      29.794  25.839  26.175  1.00  0.00     0.051 H 
ATOM     19  H   UNL A   1      29.034  25.272  24.598  1.00  0.00     0.051 H 
BRANCH  17  20
ATOM     20  N   UNL A   1      30.853  24.567  24.983  1.00  0.00    -0.262 N 
ATOM     21  C   UNL A   1      32.810  20.295  24.642  1.00  0.00     0.039 A 
ATOM     22  C   UNL A   1      33.196  20.592  25.956  1.00  0.00    -0.037 A 
ATOM     23  N   UNL A   1      32.154  21.180  23.858  1.00  0.00    -0.241 NA
ATOM     24  C   UNL A   1      32.868  21.837  26.523  1.00  0.00    -0.033 A 
ATOM     25  H   UNL A   1      33.721  19.897  26.510  1.00  0.00     0.064 H 
ATOM     26  C   UNL A   1      31.850  22.357  24.430  1.00  0.00     0.146 A 
ATOM     27  C   UNL A   1      32.115  22.704  25.740  1.00  0.00     0.081 A 
ATOM     28  S   UNL A   1      31.099  23.684  23.540  1.00  0.00    -0.035 S 
ATOM     29  C   UNL A   1      31.461  23.984  26.099  1.00  0.00     0.270 A 
ATOM     30  O   UNL A   1      31.395  24.389  27.252  1.00  0.00    -0.268 OA
BRANCH  21  31
ATOM     31  C   UNL A   1      33.079  18.947  24.043  1.00  0.00    -0.022 C 
ATOM     32  H   UNL A   1      32.174  18.553  23.630  1.00  0.00     0.030 H 
ATOM     33  H   UNL A   1      33.443  18.286  24.801  1.00  0.00     0.030 H 
ATOM     34  H   UNL A   1      33.812  19.041  23.269  1.00  0.00     0.030 H 
ENDBRANCH  21  31
BRANCH  24  35
ATOM     35  C   UNL A   1      33.348  22.208  27.891  1.00  0.00    -0.039 C 
ATOM     36  H   UNL A   1      32.541  22.633  28.449  1.00  0.00     0.028 H 
ATOM     37  H   UNL A   1      34.141  22.921  27.810  1.00  0.00     0.028 H 
ATOM     38  H   UNL A   1      33.705  21.332  28.392  1.00  0.00     0.028 H 
ENDBRANCH  24  35
ENDBRANCH  17  20
ENDBRANCH  14  17
ENDBRANCH  11  14
ENDBRANCH   8  11
ENDBRANCH   4   7
ENDBRANCH   1   4
BRANCH   1  39
ATOM     39  C   UNL A   1      35.461  24.328  25.390  1.00  0.00    -0.052 C 
ATOM     40  H   UNL A   1      34.998  24.193  26.344  1.00  0.00     0.027 H 
ATOM     41  H   UNL A   1      36.374  24.885  25.433  1.00  0.00     0.027 H 
BRANCH  39  42
ATOM     42  C   UNL A   1      35.835  22.940  24.841  1.00  0.00    -0.052 C 
ATOM     43  H   UNL A   1      35.399  22.847  23.868  1.00  0.00     0.027 H 
ATOM     44  H   UNL A   1      35.464  22.241  25.561  1.00  0.00     0.027 H 
BRANCH  42  45
ATOM     45  C   UNL A   1      37.335  22.639  24.713  1.00  0.00    -0.036 C 
ATOM     46  H   UNL A   1      37.702  23.106  23.823  1.00  0.00     0.028 H 
ATOM     47  H   UNL A   1      37.445  21.575  24.681  1.00  0.00     0.028 H 
BRANCH  45  48
ATOM     48  C   UNL A   1      38.148  23.141  25.891  1.00  0.00     0.018 C 
ATOM     49  H   UNL A   1      37.590  22.969  26.789  1.00  0.00     0.049 H 
ATOM     50  H   UNL A   1      38.336  24.183  25.736  1.00  0.00     0.049 H 
BRANCH  48  51
ATOM     51  N   UNL A   1      39.445  22.470  26.011  1.00  0.00    -0.352 N 
ATOM     52  C   UNL A   1      40.675  22.999  26.367  1.00  0.00     0.251 C 
ATOM     53  H   UNL A   1      39.442  21.506  25.810  1.00  0.00     0.163 HD
ATOM     54  O   UNL A   1      41.712  22.411  26.126  1.00  0.00    -0.269 OA
BRANCH  52  55
ATOM     55  C   UNL A   1      40.698  24.300  27.059  1.00  0.00     0.039 A 
ATOM     56  C   UNL A   1      41.295  24.472  28.310  1.00  0.00    -0.049 A 
ATOM     57  C   UNL A   1      40.103  25.371  26.406  1.00  0.00    -0.049 A 
ATOM     58  C   UNL A   1      41.310  25.751  28.864  1.00  0.00    -0.053 A 
ATOM     59  H   UNL A   1      41.713  23.673  28.812  1.00  0.00     0.063 H 
ATOM     60  C   UNL A   1      40.360  26.644  26.815  1.00  0.00    -0.053 A 
ATOM     61  H   UNL A   1      39.466  25.202  25.612  1.00  0.00     0.063 H 
ATOM     62  C   UNL A   1      40.833  26.827  28.100  1.00  0.00    -0.014 A 
ATOM     63  H   UNL A   1      41.666  25.903  29.821  1.00  0.00     0.063 H 
ATOM     64  H   UNL A   1      40.206  27.445  26.184  1.00  0.00     0.063 H 
BRANCH  62  65
ATOM     65  C   UNL A   1      40.810  28.189  28.602  1.00  0.00     0.031 A 
ATOM     66  C   UNL A   1      41.907  29.047  28.096  1.00  0.00     0.074 A 
ATOM     67  C   UNL A   1      39.752  28.672  29.291  1.00  0.00     0.049 A 
ATOM     68  N   UNL A   1      42.878  29.564  28.770  1.00  0.00    -0.248 NA
ATOM     69  C   UNL A   1      42.015  29.241  26.642  1.00  0.00    -0.034 C 
ATOM     70  C   UNL A   1      38.456  28.032  29.571  1.00  0.00    -0.036 A 
ATOM     71  N   UNL A   1      39.588  29.906  29.829  1.00  0.00    -0.354 N 
ATOM     72  C   UNL A   1      43.633  30.294  27.857  1.00  0.00     0.074 A 
ATOM     73  C   UNL A   1      43.156  29.926  26.550  1.00  0.00    -0.034 C 
ATOM     74  H   UNL A   1      41.379  28.929  25.892  1.00  0.00     0.065 H 
ATOM     75  C   UNL A   1      37.577  28.953  30.025  1.00  0.00    -0.036 A 
ATOM     76  H   UNL A   1      38.249  27.029  29.440  1.00  0.00     0.065 H 
ATOM     77  C   UNL A   1      38.295  30.190  30.250  1.00  0.00     0.049 A 
ATOM     78  H   UNL A   1      40.328  30.551  29.916  1.00  0.00     0.167 HD
ATOM     79  C   UNL A   1      44.445  31.305  28.269  1.00  0.00     0.037 A 
ATOM     80  H   UNL A   1      43.631  30.161  25.663  1.00  0.00     0.065 H 
ATOM     81  H   UNL A   1      36.569  28.800  30.184  1.00  0.00     0.065 H 
ATOM     82  C   UNL A   1      37.856  31.376  30.735  1.00  0.00     0.037 A 
ATOM     83  C   UNL A   1      44.667  31.236  29.692  1.00  0.00     0.049 A 
ATOM     84  C   UNL A   1      39.059  32.117  31.188  1.00  0.00     0.074 A 
ATOM     85  C   UNL A   1      45.324  30.366  30.536  1.00  0.00    -0.036 A 
ATOM     86  N   UNL A   1      43.822  31.971  30.485  1.00  0.00    -0.354 N 
ATOM     87  N   UNL A   1      39.818  31.738  32.179  1.00  0.00    -0.248 NA
ATOM     88  C   UNL A   1      39.670  33.044  30.251  1.00  0.00    -0.034 C 
ATOM     89  C   UNL A   1      44.528  30.322  31.721  1.00  0.00    -0.036 A 
ATOM     90  H   UNL A   1      46.202  29.855  30.352  1.00  0.00     0.065 H 
ATOM     91  C   UNL A   1      43.460  31.208  31.566  1.00  0.00     0.049 A 
ATOM     92  H   UNL A   1      43.525  32.893  30.308  1.00  0.00     0.167 HD
ATOM     93  C   UNL A   1      41.111  32.038  31.772  1.00  0.00     0.074 A 
ATOM     94  C   UNL A   1      40.945  32.934  30.630  1.00  0.00    -0.034 C 
ATOM     95  H   UNL A   1      39.243  33.620  29.509  1.00  0.00     0.065 H 
ATOM     96  H   UNL A   1      44.710  29.734  32.550  1.00  0.00     0.065 H 
ATOM     97  C   UNL A   1      42.173  31.307  32.224  1.00  0.00     0.037 A 
ATOM     98  H   UNL A   1      41.726  33.426  30.169  1.00  0.00     0.065 H 
BRANCH  79  99
ATOM     99  C   UNL A   1      44.746  32.548  27.468  1.00  0.00     0.064 A 
ATOM    100  C   UNL A   1      45.975  32.649  26.785  1.00  0.00     0.173 A 
ATOM    101  C   UNL A   1      44.009  33.749  27.568  1.00  0.00     0.173 A 
ATOM    102  F   UNL A   1      46.772  31.579  26.651  1.00  0.00    -0.203 F 
ATOM    103  C   UNL A   1      46.450  33.868  26.292  1.00  0.00     0.198 A 
ATOM    104  C   UNL A   1      44.461  34.952  27.028  1.00  0.00     0.198 A 
ATOM    105  F   UNL A   1      42.881  33.835  28.283  1.00  0.00    -0.203 F 
ATOM    106  F   UNL A   1      47.674  33.935  25.751  1.00  0.00    -0.200 F 
ATOM    107  C   UNL A   1      45.694  35.019  26.416  1.00  0.00     0.200 A 
ATOM    108  F   UNL A   1      43.722  36.059  27.178  1.00  0.00    -0.200 F 
ATOM    109  F   UNL A   1      46.168  36.197  25.991  1.00  0.00    -0.200 F 
ENDBRANCH  79  99
BRANCH  82 110
ATOM    110  C   UNL A   1      36.568  32.057  30.461  1.00  0.00     0.064 A 
ATOM    111  C   UNL A   1      35.727  32.445  31.517  1.00  0.00     0.173 A 
ATOM    112  C   UNL A   1      36.295  32.622  29.200  1.00  0.00     0.173 A 
ATOM    113  F   UNL A   1      35.945  31.981  32.756  1.00  0.00    -0.203 F 
ATOM    114  C   UNL A   1      34.704  33.382  31.334  1.00  0.00     0.198 A 
ATOM    115  C   UNL A   1      35.271  33.556  29.019  1.00  0.00     0.198 A 
ATOM    116  F   UNL A   1      37.079  32.361  28.145  1.00  0.00    -0.203 F 
ATOM    117  F   UNL A   1      33.972  33.786  32.382  1.00  0.00    -0.200 F 
ATOM    118  C   UNL A   1      34.489  33.949  30.088  1.00  0.00     0.200 A 
ATOM    119  F   UNL A   1      35.097  34.125  27.817  1.00  0.00    -0.200 F 
ATOM    120  F   UNL A   1      33.561  34.903  29.929  1.00  0.00    -0.200 F 
ENDBRANCH  82 110
BRANCH  97 121
ATOM    121  C   UNL A   1      41.927  30.374  33.384  1.00  0.00     0.064 A 
ATOM    122  C   UNL A   1      41.602  29.012  33.254  1.00  0.00     0.173 A 
ATOM    123  C   UNL A   1      42.160  30.851  34.681  1.00  0.00     0.173 A 
ATOM    124  F   UNL A   1      41.449  28.450  32.050  1.00  0.00    -0.203 F 
ATOM    125  C   UNL A   1      41.479  28.180  34.369  1.00  0.00     0.198 A 
ATOM    126  C   UNL A   1      42.074  30.012  35.790  1.00  0.00     0.198 A 
ATOM    127  F   UNL A   1      42.521  32.130  34.869  1.00  0.00    -0.203 F 
ATOM    128  F   UNL A   1      41.156  26.888  34.214  1.00  0.00    -0.200 F 
ATOM    129  C   UNL A   1      41.725  28.681  35.635  1.00  0.00     0.200 A 
ATOM    130  F   UNL A   1      42.359  30.491  37.009  1.00  0.00    -0.200 F 
ATOM    131  F   UNL A   1      41.651  27.875  36.705  1.00  0.00    -0.200 F 
ENDBRANCH  97 121
ENDBRANCH  62  65
ENDBRANCH  52  55
ENDBRANCH  48  51
ENDBRANCH  45  48
ENDBRANCH  42  45
ENDBRANCH  39  42
ENDBRANCH   1  39
TORSDOF 18
ENDMDL
MODEL 4
REMARK VINA RESULT:     -11.4      3.043      9.024
REMARK SMILES Cc1cc(C)c2c(=O)n(CCCC(=O)NCCCCCCNC(=O)c3ccc(-c4c5nc(c(-c6c(F)c(F)c(F)c(F)c6F)c6ccc([nH]6)c(-c6c(F)c(F)c(F)c(F)c6F)c6nc(c(-c7c(F)c(F)c(F)c(F)c7F)c7ccc4[nH]7)C=C6)C=C5)cc3)sc2n1
REMARK SMILES IDX 17 1 16 4 15 7 13 8 14 9 12 11 11 14 10 17 9 20 2 21 3 22
REMARK SMILES IDX 90 23 4 24 89 26 6 27 88 28 7 29 8 30 1 31 5 35 18 39 19 42
REMARK SMILES IDX 20 45 21 48 22 51 23 52 24 54 25 55 26 56 87 57 27 58 86 60
REMARK SMILES IDX 28 62 29 65 30 66 80 67 31 68 85 69 79 70 81 71 32 72 84 73
REMARK SMILES IDX 78 75 77 77 33 79 65 82 45 83 64 84 46 85 49 86 63 87 82 88
REMARK SMILES IDX 47 89 48 91 62 93 83 94 50 97 34 99 35 100 43 101 36 102
REMARK SMILES IDX 37 103 41 104 44 105 38 106 39 107 42 108 40 109 66 110
REMARK SMILES IDX 67 111 75 112 68 113 69 114 73 115 76 116 70 117 71 118
REMARK SMILES IDX 74 119 72 120 51 121 52 122 60 123 53 124 54 125 58 126
REMARK SMILES IDX 61 127 55 128 56 129 59 130 57 131
REMARK H PARENT 17 2 17 3 16 5 16 6 15 10 12 12 12 13 11 15 11 16 10 18 10 19
REMARK H PARENT 3 25 1 32 1 33 1 34 5 36 5 37 5 38 18 40 18 41 19 43 19 44
REMARK H PARENT 20 46 20 47 21 49 21 50 22 53 26 59 87 61 27 63 86 64 85 74
REMARK H PARENT 79 76 81 78 84 80 78 81 46 90 49 92 82 95 47 96 83 98
REMARK Flexibility Score: inf
ROOT
ATOM      1  C   UNL A   1      32.938  29.332  25.095  1.00  0.00    -0.036 C 
ATOM      2  H   UNL A   1      33.371  30.309  25.143  1.00  0.00     0.028 H 
ATOM      3  H   UNL A   1      33.259  28.791  24.230  1.00  0.00     0.028 H 
ENDROOT
BRANCH   1   4
ATOM      4  C   UNL A   1      31.418  29.477  25.001  1.00  0.00     0.017 C 
ATOM      5  H   UNL A   1      30.953  28.633  25.467  1.00  0.00     0.049 H 
ATOM      6  H   UNL A   1      31.123  30.378  25.497  1.00  0.00     0.049 H 
BRANCH   4   7
ATOM      7  N   UNL A   1      31.006  29.545  23.619  1.00  0.00    -0.356 N 
ATOM      8  C   UNL A   1      30.128  28.785  22.917  1.00  0.00     0.220 C 
ATOM      9  O   UNL A   1      30.047  28.983  21.703  1.00  0.00    -0.275 OA
ATOM     10  H   UNL A   1      31.434  30.262  23.098  1.00  0.00     0.163 HD
BRANCH   8  11
ATOM     11  C   UNL A   1      29.186  27.812  23.602  1.00  0.00     0.028 C 
ATOM     12  H   UNL A   1      28.936  28.243  24.550  1.00  0.00     0.037 H 
ATOM     13  H   UNL A   1      28.398  27.694  22.889  1.00  0.00     0.037 H 
BRANCH  11  14
ATOM     14  C   UNL A   1      29.628  26.369  23.876  1.00  0.00    -0.025 C 
ATOM     15  H   UNL A   1      28.757  25.760  23.750  1.00  0.00     0.029 H 
ATOM     16  H   UNL A   1      30.446  26.252  23.197  1.00  0.00     0.029 H 
BRANCH  14  17
ATOM     17  C   UNL A   1      30.256  25.951  25.216  1.00  0.00     0.037 C 
ATOM     18  H   UNL A   1      30.216  26.811  25.852  1.00  0.00     0.051 H 
ATOM     19  H   UNL A   1      29.678  25.090  25.484  1.00  0.00     0.051 H 
BRANCH  17  20
ATOM     20  N   UNL A   1      31.625  25.448  25.289  1.00  0.00    -0.262 N 
ATOM     21  C   UNL A   1      35.513  22.867  24.641  1.00  0.00     0.039 A 
ATOM     22  C   UNL A   1      35.181  22.417  25.926  1.00  0.00    -0.037 A 
ATOM     23  N   UNL A   1      34.821  23.842  24.009  1.00  0.00    -0.241 NA
ATOM     24  C   UNL A   1      34.066  22.955  26.596  1.00  0.00    -0.033 A 
ATOM     25  H   UNL A   1      35.754  21.690  26.383  1.00  0.00     0.064 H 
ATOM     26  C   UNL A   1      33.760  24.330  24.672  1.00  0.00     0.146 A 
ATOM     27  C   UNL A   1      33.310  23.891  25.901  1.00  0.00     0.081 A 
ATOM     28  S   UNL A   1      32.799  25.684  24.069  1.00  0.00    -0.035 S 
ATOM     29  C   UNL A   1      32.000  24.496  26.242  1.00  0.00     0.270 A 
ATOM     30  O   UNL A   1      31.322  24.110  27.185  1.00  0.00    -0.268 OA
BRANCH  21  31
ATOM     31  C   UNL A   1      36.648  22.254  23.876  1.00  0.00    -0.022 C 
ATOM     32  H   UNL A   1      37.305  23.026  23.534  1.00  0.00     0.030 H 
ATOM     33  H   UNL A   1      36.262  21.716  23.036  1.00  0.00     0.030 H 
ATOM     34  H   UNL A   1      37.186  21.584  24.513  1.00  0.00     0.030 H 
ENDBRANCH  21  31
BRANCH  24  35
ATOM     35  C   UNL A   1      33.749  22.553  28.002  1.00  0.00    -0.039 C 
ATOM     36  H   UNL A   1      34.633  22.617  28.599  1.00  0.00     0.028 H 
ATOM     37  H   UNL A   1      33.383  21.548  28.011  1.00  0.00     0.028 H 
ATOM     38  H   UNL A   1      33.002  23.209  28.399  1.00  0.00     0.028 H 
ENDBRANCH  24  35
ENDBRANCH  17  20
ENDBRANCH  14  17
ENDBRANCH  11  14
ENDBRANCH   8  11
ENDBRANCH   4   7
ENDBRANCH   1   4
BRANCH   1  39
ATOM     39  C   UNL A   1      33.393  28.537  26.322  1.00  0.00    -0.052 C 
ATOM     40  H   UNL A   1      33.968  27.702  25.981  1.00  0.00     0.027 H 
ATOM     41  H   UNL A   1      32.502  28.257  26.844  1.00  0.00     0.027 H 
BRANCH  39  42
ATOM     42  C   UNL A   1      34.249  29.323  27.331  1.00  0.00    -0.052 C 
ATOM     43  H   UNL A   1      35.269  29.256  27.014  1.00  0.00     0.027 H 
ATOM     44  H   UNL A   1      34.049  28.876  28.282  1.00  0.00     0.027 H 
BRANCH  42  45
ATOM     45  C   UNL A   1      33.908  30.811  27.499  1.00  0.00    -0.036 C 
ATOM     46  H   UNL A   1      33.217  30.914  28.310  1.00  0.00     0.028 H 
ATOM     47  H   UNL A   1      33.492  31.149  26.572  1.00  0.00     0.028 H 
BRANCH  45  48
ATOM     48  C   UNL A   1      35.122  31.674  27.787  1.00  0.00     0.018 C 
ATOM     49  H   UNL A   1      35.227  32.391  26.999  1.00  0.00     0.049 H 
ATOM     50  H   UNL A   1      35.973  31.027  27.849  1.00  0.00     0.049 H 
BRANCH  48  51
ATOM     51  N   UNL A   1      35.018  32.391  29.061  1.00  0.00    -0.352 N 
ATOM     52  C   UNL A   1      35.588  32.085  30.286  1.00  0.00     0.251 C 
ATOM     53  H   UNL A   1      34.464  33.205  29.044  1.00  0.00     0.163 HD
ATOM     54  O   UNL A   1      35.172  32.578  31.319  1.00  0.00    -0.269 OA
BRANCH  52  55
ATOM     55  C   UNL A   1      36.723  31.147  30.311  1.00  0.00     0.039 A 
ATOM     56  C   UNL A   1      36.550  29.761  30.333  1.00  0.00    -0.049 A 
ATOM     57  C   UNL A   1      37.997  31.700  30.301  1.00  0.00    -0.049 A 
ATOM     58  C   UNL A   1      37.686  28.953  30.306  1.00  0.00    -0.053 A 
ATOM     59  H   UNL A   1      35.606  29.346  30.369  1.00  0.00     0.063 H 
ATOM     60  C   UNL A   1      39.073  30.923  30.000  1.00  0.00    -0.053 A 
ATOM     61  H   UNL A   1      38.127  32.699  30.523  1.00  0.00     0.063 H 
ATOM     62  C   UNL A   1      38.943  29.555  30.142  1.00  0.00    -0.014 A 
ATOM     63  H   UNL A   1      37.603  27.929  30.405  1.00  0.00     0.063 H 
ATOM     64  H   UNL A   1      39.958  31.344  29.677  1.00  0.00     0.063 H 
BRANCH  62  65
ATOM     65  C   UNL A   1      40.175  28.788  30.106  1.00  0.00     0.031 A 
ATOM     66  C   UNL A   1      40.805  28.580  31.431  1.00  0.00     0.074 A 
ATOM     67  C   UNL A   1      40.577  28.145  28.987  1.00  0.00     0.049 A 
ATOM     68  N   UNL A   1      41.934  29.044  31.849  1.00  0.00    -0.248 NA
ATOM     69  C   UNL A   1      40.022  27.884  32.464  1.00  0.00    -0.034 C 
ATOM     70  C   UNL A   1      39.876  27.991  27.702  1.00  0.00    -0.036 A 
ATOM     71  N   UNL A   1      41.698  27.405  28.796  1.00  0.00    -0.354 N 
ATOM     72  C   UNL A   1      42.091  28.561  33.145  1.00  0.00     0.074 A 
ATOM     73  C   UNL A   1      40.822  27.999  33.525  1.00  0.00    -0.034 C 
ATOM     74  H   UNL A   1      39.099  27.430  32.389  1.00  0.00     0.065 H 
ATOM     75  C   UNL A   1      40.479  27.037  26.960  1.00  0.00    -0.036 A 
ATOM     76  H   UNL A   1      39.046  28.531  27.411  1.00  0.00     0.065 H 
ATOM     77  C   UNL A   1      41.708  26.656  27.626  1.00  0.00     0.049 A 
ATOM     78  H   UNL A   1      42.447  27.399  29.436  1.00  0.00     0.167 HD
ATOM     79  C   UNL A   1      43.324  28.474  33.715  1.00  0.00     0.037 A 
ATOM     80  H   UNL A   1      40.567  27.722  34.487  1.00  0.00     0.065 H 
ATOM     81  H   UNL A   1      40.127  26.648  26.072  1.00  0.00     0.065 H 
ATOM     82  C   UNL A   1      42.665  25.775  27.251  1.00  0.00     0.037 A 
ATOM     83  C   UNL A   1      44.286  29.252  32.976  1.00  0.00     0.049 A 
ATOM     84  C   UNL A   1      43.880  26.116  28.030  1.00  0.00     0.074 A 
ATOM     85  C   UNL A   1      44.486  30.599  32.751  1.00  0.00    -0.036 A 
ATOM     86  N   UNL A   1      44.999  28.594  32.007  1.00  0.00    -0.354 N 
ATOM     87  N   UNL A   1      44.543  27.232  27.897  1.00  0.00    -0.248 NA
ATOM     88  C   UNL A   1      44.104  25.402  29.276  1.00  0.00    -0.034 C 
ATOM     89  C   UNL A   1      44.952  30.687  31.403  1.00  0.00    -0.036 A 
ATOM     90  H   UNL A   1      44.333  31.375  33.413  1.00  0.00     0.065 H 
ATOM     91  C   UNL A   1      45.068  29.392  30.893  1.00  0.00     0.049 A 
ATOM     92  H   UNL A   1      45.396  27.698  32.095  1.00  0.00     0.167 HD
ATOM     93  C   UNL A   1      44.932  27.572  29.185  1.00  0.00     0.074 A 
ATOM     94  C   UNL A   1      44.727  26.357  29.970  1.00  0.00    -0.034 C 
ATOM     95  H   UNL A   1      43.854  24.438  29.545  1.00  0.00     0.065 H 
ATOM     96  H   UNL A   1      45.165  31.559  30.893  1.00  0.00     0.065 H 
ATOM     97  C   UNL A   1      45.112  28.879  29.538  1.00  0.00     0.037 A 
ATOM     98  H   UNL A   1      45.030  26.250  30.950  1.00  0.00     0.065 H 
BRANCH  79  99
ATOM     99  C   UNL A   1      43.738  27.420  34.712  1.00  0.00     0.064 A 
ATOM    100  C   UNL A   1      43.748  26.066  34.321  1.00  0.00     0.173 A 
ATOM    101  C   UNL A   1      43.854  27.649  36.100  1.00  0.00     0.173 A 
ATOM    102  F   UNL A   1      43.617  25.725  33.031  1.00  0.00    -0.203 F 
ATOM    103  C   UNL A   1      43.813  25.026  35.255  1.00  0.00     0.198 A 
ATOM    104  C   UNL A   1      43.973  26.612  37.024  1.00  0.00     0.198 A 
ATOM    105  F   UNL A   1      43.746  28.873  36.631  1.00  0.00    -0.203 F 
ATOM    106  F   UNL A   1      43.705  23.755  34.844  1.00  0.00    -0.200 F 
ATOM    107  C   UNL A   1      43.923  25.301  36.606  1.00  0.00     0.200 A 
ATOM    108  F   UNL A   1      44.058  26.900  38.330  1.00  0.00    -0.200 F 
ATOM    109  F   UNL A   1      43.934  24.308  37.505  1.00  0.00    -0.200 F 
ENDBRANCH  79  99
BRANCH  82 110
ATOM    110  C   UNL A   1      42.489  24.452  26.605  1.00  0.00     0.064 A 
ATOM    111  C   UNL A   1      43.216  24.118  25.451  1.00  0.00     0.173 A 
ATOM    112  C   UNL A   1      41.860  23.387  27.282  1.00  0.00     0.173 A 
ATOM    113  F   UNL A   1      43.875  25.069  24.773  1.00  0.00    -0.203 F 
ATOM    114  C   UNL A   1      43.349  22.792  25.026  1.00  0.00     0.198 A 
ATOM    115  C   UNL A   1      41.992  22.064  26.854  1.00  0.00     0.198 A 
ATOM    116  F   UNL A   1      41.195  23.597  28.426  1.00  0.00    -0.203 F 
ATOM    117  F   UNL A   1      44.115  22.504  23.964  1.00  0.00    -0.200 F 
ATOM    118  C   UNL A   1      42.751  21.764  25.738  1.00  0.00     0.200 A 
ATOM    119  F   UNL A   1      41.439  21.076  27.572  1.00  0.00    -0.200 F 
ATOM    120  F   UNL A   1      42.942  20.489  25.376  1.00  0.00    -0.200 F 
ENDBRANCH  82 110
BRANCH  97 121
ATOM    121  C   UNL A   1      45.159  29.897  28.426  1.00  0.00     0.064 A 
ATOM    122  C   UNL A   1      44.044  30.614  27.955  1.00  0.00     0.173 A 
ATOM    123  C   UNL A   1      46.409  30.254  27.905  1.00  0.00     0.173 A 
ATOM    124  F   UNL A   1      42.824  30.402  28.460  1.00  0.00    -0.203 F 
ATOM    125  C   UNL A   1      44.172  31.611  26.986  1.00  0.00     0.198 A 
ATOM    126  C   UNL A   1      46.542  31.274  26.965  1.00  0.00     0.198 A 
ATOM    127  F   UNL A   1      47.519  29.641  28.347  1.00  0.00    -0.203 F 
ATOM    128  F   UNL A   1      43.089  32.269  26.549  1.00  0.00    -0.200 F 
ATOM    129  C   UNL A   1      45.423  31.945  26.499  1.00  0.00     0.200 A 
ATOM    130  F   UNL A   1      47.760  31.625  26.532  1.00  0.00    -0.200 F 
ATOM    131  F   UNL A   1      45.555  32.931  25.600  1.00  0.00    -0.200 F 
ENDBRANCH  97 121
ENDBRANCH  62  65
ENDBRANCH  52  55
ENDBRANCH  48  51
ENDBRANCH  45  48
ENDBRANCH  42  45
ENDBRANCH  39  42
ENDBRANCH   1  39
TORSDOF 18
ENDMDL
MODEL 5
REMARK VINA RESULT:     -11.3      4.931     11.092
REMARK SMILES Cc1cc(C)c2c(=O)n(CCCC(=O)NCCCCCCNC(=O)c3ccc(-c4c5nc(c(-c6c(F)c(F)c(F)c(F)c6F)c6ccc([nH]6)c(-c6c(F)c(F)c(F)c(F)c6F)c6nc(c(-c7c(F)c(F)c(F)c(F)c7F)c7ccc4[nH]7)C=C6)C=C5)cc3)sc2n1
REMARK SMILES IDX 17 1 16 4 15 7 13 8 14 9 12 11 11 14 10 17 9 20 2 21 3 22
REMARK SMILES IDX 90 23 4 24 89 26 6 27 88 28 7 29 8 30 1 31 5 35 18 39 19 42
REMARK SMILES IDX 20 45 21 48 22 51 23 52 24 54 25 55 26 56 87 57 27 58 86 60
REMARK SMILES IDX 28 62 29 65 30 66 80 67 31 68 85 69 79 70 81 71 32 72 84 73
REMARK SMILES IDX 78 75 77 77 33 79 65 82 45 83 64 84 46 85 49 86 63 87 82 88
REMARK SMILES IDX 47 89 48 91 62 93 83 94 50 97 34 99 35 100 43 101 36 102
REMARK SMILES IDX 37 103 41 104 44 105 38 106 39 107 42 108 40 109 66 110
REMARK SMILES IDX 67 111 75 112 68 113 69 114 73 115 76 116 70 117 71 118
REMARK SMILES IDX 74 119 72 120 51 121 52 122 60 123 53 124 54 125 58 126
REMARK SMILES IDX 61 127 55 128 56 129 59 130 57 131
REMARK H PARENT 17 2 17 3 16 5 16 6 15 10 12 12 12 13 11 15 11 16 10 18 10 19
REMARK H PARENT 3 25 1 32 1 33 1 34 5 36 5 37 5 38 18 40 18 41 19 43 19 44
REMARK H PARENT 20 46 20 47 21 49 21 50 22 53 26 59 87 61 27 63 86 64 85 74
REMARK H PARENT 79 76 81 78 84 80 78 81 46 90 49 92 82 95 47 96 83 98
REMARK Flexibility Score: inf
ROOT
ATOM      1  C   UNL A   1      38.172  31.186  32.900  1.00  0.00    -0.036 C 
ATOM      2  H   UNL A   1      38.220  30.289  32.320  1.00  0.00     0.028 H 
ATOM      3  H   UNL A   1      38.560  32.030  32.370  1.00  0.00     0.028 H 
ENDROOT
BRANCH   1   4
ATOM      4  C   UNL A   1      39.031  31.002  34.151  1.00  0.00     0.017 C 
ATOM      5  H   UNL A   1      39.710  30.189  33.997  1.00  0.00     0.049 H 
ATOM      6  H   UNL A   1      39.576  31.904  34.335  1.00  0.00     0.049 H 
BRANCH   4   7
ATOM      7  N   UNL A   1      38.198  30.715  35.295  1.00  0.00    -0.356 N 
ATOM      8  C   UNL A   1      38.150  31.288  36.524  1.00  0.00     0.220 C 
ATOM      9  O   UNL A   1      37.417  30.767  37.367  1.00  0.00    -0.275 OA
ATOM     10  H   UNL A   1      37.556  29.981  35.160  1.00  0.00     0.163 HD
BRANCH   8  11
ATOM     11  C   UNL A   1      38.869  32.589  36.828  1.00  0.00     0.028 C 
ATOM     12  H   UNL A   1      38.922  32.668  37.894  1.00  0.00     0.037 H 
ATOM     13  H   UNL A   1      39.789  32.490  36.292  1.00  0.00     0.037 H 
BRANCH  11  14
ATOM     14  C   UNL A   1      38.307  33.921  36.315  1.00  0.00    -0.025 C 
ATOM     15  H   UNL A   1      37.464  33.675  35.704  1.00  0.00     0.029 H 
ATOM     16  H   UNL A   1      38.150  34.465  37.223  1.00  0.00     0.029 H 
BRANCH  14  17
ATOM     17  C   UNL A   1      39.162  34.902  35.494  1.00  0.00     0.037 C 
ATOM     18  H   UNL A   1      38.477  35.538  34.973  1.00  0.00     0.051 H 
ATOM     19  H   UNL A   1      39.796  35.336  36.238  1.00  0.00     0.051 H 
BRANCH  17  20
ATOM     20  N   UNL A   1      40.119  34.426  34.500  1.00  0.00    -0.262 N 
ATOM     21  C   UNL A   1      43.698  34.198  31.443  1.00  0.00     0.039 A 
ATOM     22  C   UNL A   1      42.647  34.296  30.521  1.00  0.00    -0.037 A 
ATOM     23  N   UNL A   1      43.491  34.112  32.777  1.00  0.00    -0.241 NA
ATOM     24  C   UNL A   1      41.316  34.347  30.972  1.00  0.00    -0.033 A 
ATOM     25  H   UNL A   1      42.850  34.331  29.509  1.00  0.00     0.064 H 
ATOM     26  C   UNL A   1      42.209  34.170  33.175  1.00  0.00     0.146 A 
ATOM     27  C   UNL A   1      41.119  34.349  32.347  1.00  0.00     0.081 A 
ATOM     28  S   UNL A   1      41.724  33.959  34.860  1.00  0.00    -0.035 S 
ATOM     29  C   UNL A   1      39.881  34.577  33.130  1.00  0.00     0.270 A 
ATOM     30  O   UNL A   1      38.836  34.949  32.615  1.00  0.00    -0.268 OA
BRANCH  21  31
ATOM     31  C   UNL A   1      45.128  34.222  30.993  1.00  0.00    -0.022 C 
ATOM     32  H   UNL A   1      45.395  35.217  30.705  1.00  0.00     0.030 H 
ATOM     33  H   UNL A   1      45.250  33.564  30.158  1.00  0.00     0.030 H 
ATOM     34  H   UNL A   1      45.760  33.901  31.795  1.00  0.00     0.030 H 
ENDBRANCH  21  31
BRANCH  24  35
ATOM     35  C   UNL A   1      40.177  34.360  30.001  1.00  0.00    -0.039 C 
ATOM     36  H   UNL A   1      40.016  33.371  29.626  1.00  0.00     0.028 H 
ATOM     37  H   UNL A   1      40.409  35.016  29.189  1.00  0.00     0.028 H 
ATOM     38  H   UNL A   1      39.292  34.702  30.495  1.00  0.00     0.028 H 
ENDBRANCH  24  35
ENDBRANCH  17  20
ENDBRANCH  14  17
ENDBRANCH  11  14
ENDBRANCH   8  11
ENDBRANCH   4   7
ENDBRANCH   1   4
BRANCH   1  39
ATOM     39  C   UNL A   1      36.703  31.483  33.215  1.00  0.00    -0.052 C 
ATOM     40  H   UNL A   1      36.497  31.125  34.201  1.00  0.00     0.027 H 
ATOM     41  H   UNL A   1      36.131  30.994  32.454  1.00  0.00     0.027 H 
BRANCH  39  42
ATOM     42  C   UNL A   1      36.309  32.970  33.156  1.00  0.00    -0.052 C 
ATOM     43  H   UNL A   1      37.208  33.547  33.217  1.00  0.00     0.027 H 
ATOM     44  H   UNL A   1      35.632  33.116  33.971  1.00  0.00     0.027 H 
BRANCH  42  45
ATOM     45  C   UNL A   1      35.546  33.422  31.903  1.00  0.00    -0.036 C 
ATOM     46  H   UNL A   1      36.248  33.822  31.201  1.00  0.00     0.028 H 
ATOM     47  H   UNL A   1      34.829  34.154  32.213  1.00  0.00     0.028 H 
BRANCH  45  48
ATOM     48  C   UNL A   1      34.779  32.299  31.231  1.00  0.00     0.018 C 
ATOM     49  H   UNL A   1      33.831  32.194  31.717  1.00  0.00     0.049 H 
ATOM     50  H   UNL A   1      35.368  31.409  31.315  1.00  0.00     0.049 H 
BRANCH  48  51
ATOM     51  N   UNL A   1      34.549  32.544  29.805  1.00  0.00    -0.352 N 
ATOM     52  C   UNL A   1      35.386  32.300  28.728  1.00  0.00     0.251 C 
ATOM     53  H   UNL A   1      33.675  32.939  29.579  1.00  0.00     0.163 HD
ATOM     54  O   UNL A   1      35.203  32.832  27.649  1.00  0.00    -0.269 OA
BRANCH  52  55
ATOM     55  C   UNL A   1      36.510  31.366  28.919  1.00  0.00     0.039 A 
ATOM     56  C   UNL A   1      36.394  29.995  28.677  1.00  0.00    -0.049 A 
ATOM     57  C   UNL A   1      37.714  31.908  29.346  1.00  0.00    -0.049 A 
ATOM     58  C   UNL A   1      37.525  29.198  28.838  1.00  0.00    -0.053 A 
ATOM     59  H   UNL A   1      35.493  29.583  28.386  1.00  0.00     0.063 H 
ATOM     60  C   UNL A   1      38.862  31.186  29.236  1.00  0.00    -0.053 A 
ATOM     61  H   UNL A   1      37.738  32.859  29.747  1.00  0.00     0.063 H 
ATOM     62  C   UNL A   1      38.753  29.813  29.122  1.00  0.00    -0.014 A 
ATOM     63  H   UNL A   1      37.460  28.171  28.750  1.00  0.00     0.063 H 
ATOM     64  H   UNL A   1      39.784  31.650  29.238  1.00  0.00     0.063 H 
BRANCH  62  65
ATOM     65  C   UNL A   1      39.979  29.057  29.309  1.00  0.00     0.031 A 
ATOM     66  C   UNL A   1      40.248  28.663  30.711  1.00  0.00     0.074 A 
ATOM     67  C   UNL A   1      40.682  28.578  28.259  1.00  0.00     0.049 A 
ATOM     68  N   UNL A   1      41.211  29.062  31.472  1.00  0.00    -0.248 NA
ATOM     69  C   UNL A   1      39.248  27.830  31.397  1.00  0.00    -0.034 C 
ATOM     70  C   UNL A   1      40.347  28.607  26.825  1.00  0.00    -0.036 A 
ATOM     71  N   UNL A   1      41.840  27.870  28.271  1.00  0.00    -0.354 N 
ATOM     72  C   UNL A   1      41.041  28.401  32.685  1.00  0.00     0.074 A 
ATOM     73  C   UNL A   1      39.738  27.793  32.637  1.00  0.00    -0.034 C 
ATOM     74  H   UNL A   1      38.393  27.392  31.019  1.00  0.00     0.065 H 
ATOM     75  C   UNL A   1      41.158  27.766  26.146  1.00  0.00    -0.036 A 
ATOM     76  H   UNL A   1      39.603  29.184  26.402  1.00  0.00     0.065 H 
ATOM     77  C   UNL A   1      42.182  27.294  27.054  1.00  0.00     0.049 A 
ATOM     78  H   UNL A   1      42.395  27.773  29.078  1.00  0.00     0.167 HD
ATOM     79  C   UNL A   1      42.084  28.233  33.542  1.00  0.00     0.037 A 
ATOM     80  H   UNL A   1      39.250  27.383  33.450  1.00  0.00     0.065 H 
ATOM     81  H   UNL A   1      41.064  27.507  25.151  1.00  0.00     0.065 H 
ATOM     82  C   UNL A   1      43.235  26.473  26.828  1.00  0.00     0.037 A 
ATOM     83  C   UNL A   1      43.178  29.106  33.197  1.00  0.00     0.049 A 
ATOM     84  C   UNL A   1      44.191  26.699  27.939  1.00  0.00     0.074 A 
ATOM     85  C   UNL A   1      43.382  30.470  33.218  1.00  0.00    -0.036 A 
ATOM     86  N   UNL A   1      44.143  28.590  32.370  1.00  0.00    -0.354 N 
ATOM     87  N   UNL A   1      44.825  27.822  28.139  1.00  0.00    -0.248 NA
ATOM     88  C   UNL A   1      44.107  25.816  29.090  1.00  0.00    -0.034 C 
ATOM     89  C   UNL A   1      44.180  30.747  32.066  1.00  0.00    -0.036 A 
ATOM     90  H   UNL A   1      43.033  31.146  33.916  1.00  0.00     0.065 H 
ATOM     91  C   UNL A   1      44.472  29.537  31.433  1.00  0.00     0.049 A 
ATOM     92  H   UNL A   1      44.535  27.689  32.436  1.00  0.00     0.167 HD
ATOM     93  C   UNL A   1      44.852  27.976  29.518  1.00  0.00     0.074 A 
ATOM     94  C   UNL A   1      44.492  26.663  30.047  1.00  0.00    -0.034 C 
ATOM     95  H   UNL A   1      43.831  24.824  29.150  1.00  0.00     0.065 H 
ATOM     96  H   UNL A   1      44.487  31.682  31.754  1.00  0.00     0.065 H 
ATOM     97  C   UNL A   1      44.886  29.220  30.081  1.00  0.00     0.037 A 
ATOM     98  H   UNL A   1      44.533  26.418  31.049  1.00  0.00     0.065 H 
BRANCH  79  99
ATOM     99  C   UNL A   1      42.261  27.048  34.459  1.00  0.00     0.064 A 
ATOM    100  C   UNL A   1      41.877  27.157  35.811  1.00  0.00     0.173 A 
ATOM    101  C   UNL A   1      43.040  25.914  34.142  1.00  0.00     0.173 A 
ATOM    102  F   UNL A   1      41.158  28.207  36.235  1.00  0.00    -0.203 F 
ATOM    103  C   UNL A   1      42.291  26.233  36.776  1.00  0.00     0.198 A 
ATOM    104  C   UNL A   1      43.406  24.965  35.096  1.00  0.00     0.198 A 
ATOM    105  F   UNL A   1      43.573  25.732  32.928  1.00  0.00    -0.203 F 
ATOM    106  F   UNL A   1      41.996  26.441  38.067  1.00  0.00    -0.200 F 
ATOM    107  C   UNL A   1      43.057  25.139  36.418  1.00  0.00     0.200 A 
ATOM    108  F   UNL A   1      44.165  23.923  34.731  1.00  0.00    -0.200 F 
ATOM    109  F   UNL A   1      43.497  24.280  37.346  1.00  0.00    -0.200 F 
ENDBRANCH  79  99
BRANCH  82 110
ATOM    110  C   UNL A   1      43.281  25.254  25.984  1.00  0.00     0.064 A 
ATOM    111  C   UNL A   1      44.386  25.002  25.155  1.00  0.00     0.173 A 
ATOM    112  C   UNL A   1      42.409  24.172  26.217  1.00  0.00     0.173 A 
ATOM    113  F   UNL A   1      45.283  25.969  24.917  1.00  0.00    -0.203 F 
ATOM    114  C   UNL A   1      44.633  23.728  24.629  1.00  0.00     0.198 A 
ATOM    115  C   UNL A   1      42.655  22.903  25.689  1.00  0.00     0.198 A 
ATOM    116  F   UNL A   1      41.362  24.299  27.043  1.00  0.00    -0.203 F 
ATOM    117  F   UNL A   1      45.739  23.507  23.906  1.00  0.00    -0.200 F 
ATOM    118  C   UNL A   1      43.776  22.676  24.911  1.00  0.00     0.200 A 
ATOM    119  F   UNL A   1      41.840  21.884  25.999  1.00  0.00    -0.200 F 
ATOM    120  F   UNL A   1      44.053  21.441  24.473  1.00  0.00    -0.200 F 
ENDBRANCH  82 110
BRANCH  97 121
ATOM    121  C   UNL A   1      45.186  30.385  29.170  1.00  0.00     0.064 A 
ATOM    122  C   UNL A   1      44.208  31.197  28.569  1.00  0.00     0.173 A 
ATOM    123  C   UNL A   1      46.522  30.772  29.005  1.00  0.00     0.173 A 
ATOM    124  F   UNL A   1      42.905  30.955  28.747  1.00  0.00    -0.203 F 
ATOM    125  C   UNL A   1      44.553  32.318  27.811  1.00  0.00     0.198 A 
ATOM    126  C   UNL A   1      46.865  31.911  28.279  1.00  0.00     0.198 A 
ATOM    127  F   UNL A   1      47.502  30.066  29.592  1.00  0.00    -0.203 F 
ATOM    128  F   UNL A   1      43.598  33.067  27.241  1.00  0.00    -0.200 F 
ATOM    129  C   UNL A   1      45.882  32.678  27.676  1.00  0.00     0.200 A 
ATOM    130  F   UNL A   1      48.150  32.281  28.191  1.00  0.00    -0.200 F 
ATOM    131  F   UNL A   1      46.215  33.778  26.985  1.00  0.00    -0.200 F 
ENDBRANCH  97 121
ENDBRANCH  62  65
ENDBRANCH  52  55
ENDBRANCH  48  51
ENDBRANCH  45  48
ENDBRANCH  42  45
ENDBRANCH  39  42
ENDBRANCH   1  39
TORSDOF 18
ENDMDL
MODEL 6
REMARK VINA RESULT:     -11.3      2.813      3.829
REMARK SMILES Cc1cc(C)c2c(=O)n(CCCC(=O)NCCCCCCNC(=O)c3ccc(-c4c5nc(c(-c6c(F)c(F)c(F)c(F)c6F)c6ccc([nH]6)c(-c6c(F)c(F)c(F)c(F)c6F)c6nc(c(-c7c(F)c(F)c(F)c(F)c7F)c7ccc4[nH]7)C=C6)C=C5)cc3)sc2n1
REMARK SMILES IDX 17 1 16 4 15 7 13 8 14 9 12 11 11 14 10 17 9 20 2 21 3 22
REMARK SMILES IDX 90 23 4 24 89 26 6 27 88 28 7 29 8 30 1 31 5 35 18 39 19 42
REMARK SMILES IDX 20 45 21 48 22 51 23 52 24 54 25 55 26 56 87 57 27 58 86 60
REMARK SMILES IDX 28 62 29 65 30 66 80 67 31 68 85 69 79 70 81 71 32 72 84 73
REMARK SMILES IDX 78 75 77 77 33 79 65 82 45 83 64 84 46 85 49 86 63 87 82 88
REMARK SMILES IDX 47 89 48 91 62 93 83 94 50 97 34 99 35 100 43 101 36 102
REMARK SMILES IDX 37 103 41 104 44 105 38 106 39 107 42 108 40 109 66 110
REMARK SMILES IDX 67 111 75 112 68 113 69 114 73 115 76 116 70 117 71 118
REMARK SMILES IDX 74 119 72 120 51 121 52 122 60 123 53 124 54 125 58 126
REMARK SMILES IDX 61 127 55 128 56 129 59 130 57 131
REMARK H PARENT 17 2 17 3 16 5 16 6 15 10 12 12 12 13 11 15 11 16 10 18 10 19
REMARK H PARENT 3 25 1 32 1 33 1 34 5 36 5 37 5 38 18 40 18 41 19 43 19 44
REMARK H PARENT 20 46 20 47 21 49 21 50 22 53 26 59 87 61 27 63 86 64 85 74
REMARK H PARENT 79 76 81 78 84 80 78 81 46 90 49 92 82 95 47 96 83 98
REMARK Flexibility Score: inf
ROOT
ATOM      1  C   UNL A   1      36.862  21.925  24.380  1.00  0.00    -0.036 C 
ATOM      2  H   UNL A   1      36.503  22.212  23.414  1.00  0.00     0.028 H 
ATOM      3  H   UNL A   1      37.881  21.599  24.350  1.00  0.00     0.028 H 
ENDROOT
BRANCH   1   4
ATOM      4  C   UNL A   1      36.025  20.748  24.881  1.00  0.00     0.017 C 
ATOM      5  H   UNL A   1      35.270  20.519  24.158  1.00  0.00     0.049 H 
ATOM      6  H   UNL A   1      36.664  19.902  25.025  1.00  0.00     0.049 H 
BRANCH   4   7
ATOM      7  N   UNL A   1      35.395  21.080  26.137  1.00  0.00    -0.356 N 
ATOM      8  C   UNL A   1      34.093  21.305  26.444  1.00  0.00     0.220 C 
ATOM      9  O   UNL A   1      33.836  21.693  27.586  1.00  0.00    -0.275 OA
ATOM     10  H   UNL A   1      36.014  21.156  26.899  1.00  0.00     0.163 HD
BRANCH   8  11
ATOM     11  C   UNL A   1      32.974  20.979  25.472  1.00  0.00     0.028 C 
ATOM     12  H   UNL A   1      33.329  20.183  24.852  1.00  0.00     0.037 H 
ATOM     13  H   UNL A   1      32.145  20.773  26.117  1.00  0.00     0.037 H 
BRANCH  11  14
ATOM     14  C   UNL A   1      32.425  22.060  24.533  1.00  0.00    -0.025 C 
ATOM     15  H   UNL A   1      31.885  21.545  23.767  1.00  0.00     0.029 H 
ATOM     16  H   UNL A   1      31.891  22.695  25.208  1.00  0.00     0.029 H 
BRANCH  14  17
ATOM     17  C   UNL A   1      33.349  23.057  23.812  1.00  0.00     0.037 C 
ATOM     18  H   UNL A   1      34.324  22.617  23.806  1.00  0.00     0.051 H 
ATOM     19  H   UNL A   1      32.848  23.203  22.878  1.00  0.00     0.051 H 
BRANCH  17  20
ATOM     20  N   UNL A   1      33.517  24.423  24.298  1.00  0.00    -0.262 N 
ATOM     21  C   UNL A   1      32.655  28.816  25.771  1.00  0.00     0.039 A 
ATOM     22  C   UNL A   1      33.114  29.119  24.482  1.00  0.00    -0.037 A 
ATOM     23  N   UNL A   1      32.646  27.556  26.264  1.00  0.00    -0.241 NA
ATOM     24  C   UNL A   1      33.553  28.089  23.630  1.00  0.00    -0.033 A 
ATOM     25  H   UNL A   1      33.129  30.098  24.157  1.00  0.00     0.064 H 
ATOM     26  C   UNL A   1      33.066  26.596  25.424  1.00  0.00     0.146 A 
ATOM     27  C   UNL A   1      33.455  26.791  24.113  1.00  0.00     0.081 A 
ATOM     28  S   UNL A   1      33.238  24.908  25.914  1.00  0.00    -0.035 S 
ATOM     29  C   UNL A   1      33.653  25.498  23.414  1.00  0.00     0.270 A 
ATOM     30  O   UNL A   1      33.809  25.423  22.203  1.00  0.00    -0.268 OA
BRANCH  21  31
ATOM     31  C   UNL A   1      32.109  29.885  26.670  1.00  0.00    -0.022 C 
ATOM     32  H   UNL A   1      31.802  29.449  27.597  1.00  0.00     0.030 H 
ATOM     33  H   UNL A   1      31.269  30.351  26.199  1.00  0.00     0.030 H 
ATOM     34  H   UNL A   1      32.867  30.617  26.854  1.00  0.00     0.030 H 
ENDBRANCH  21  31
BRANCH  24  35
ATOM     35  C   UNL A   1      34.130  28.401  22.285  1.00  0.00    -0.039 C 
ATOM     36  H   UNL A   1      33.360  28.344  21.544  1.00  0.00     0.028 H 
ATOM     37  H   UNL A   1      34.900  27.695  22.055  1.00  0.00     0.028 H 
ATOM     38  H   UNL A   1      34.542  29.389  22.294  1.00  0.00     0.028 H 
ENDBRANCH  24  35
ENDBRANCH  17  20
ENDBRANCH  14  17
ENDBRANCH  11  14
ENDBRANCH   8  11
ENDBRANCH   4   7
ENDBRANCH   1   4
BRANCH   1  39
ATOM     39  C   UNL A   1      36.803  23.146  25.302  1.00  0.00    -0.052 C 
ATOM     40  H   UNL A   1      35.975  23.018  25.967  1.00  0.00     0.027 H 
ATOM     41  H   UNL A   1      36.710  23.998  24.663  1.00  0.00     0.027 H 
BRANCH  39  42
ATOM     42  C   UNL A   1      38.063  23.385  26.153  1.00  0.00    -0.052 C 
ATOM     43  H   UNL A   1      37.746  23.578  27.157  1.00  0.00     0.027 H 
ATOM     44  H   UNL A   1      38.571  24.201  25.684  1.00  0.00     0.027 H 
BRANCH  42  45
ATOM     45  C   UNL A   1      39.083  22.238  26.197  1.00  0.00    -0.036 C 
ATOM     46  H   UNL A   1      39.624  22.226  25.273  1.00  0.00     0.028 H 
ATOM     47  H   UNL A   1      38.536  21.331  26.353  1.00  0.00     0.028 H 
BRANCH  45  48
ATOM     48  C   UNL A   1      40.077  22.366  27.335  1.00  0.00     0.018 C 
ATOM     49  H   UNL A   1      39.869  21.604  28.058  1.00  0.00     0.049 H 
ATOM     50  H   UNL A   1      39.970  23.346  27.752  1.00  0.00     0.049 H 
BRANCH  48  51
ATOM     51  N   UNL A   1      41.467  22.222  26.893  1.00  0.00    -0.352 N 
ATOM     52  C   UNL A   1      42.377  23.204  26.534  1.00  0.00     0.251 C 
ATOM     53  H   UNL A   1      41.801  21.297  26.842  1.00  0.00     0.163 HD
ATOM     54  O   UNL A   1      43.377  22.937  25.895  1.00  0.00    -0.269 OA
BRANCH  52  55
ATOM     55  C   UNL A   1      42.107  24.589  26.955  1.00  0.00     0.039 A 
ATOM     56  C   UNL A   1      41.247  25.433  26.248  1.00  0.00    -0.049 A 
ATOM     57  C   UNL A   1      42.743  25.033  28.107  1.00  0.00    -0.049 A 
ATOM     58  C   UNL A   1      41.017  26.712  26.751  1.00  0.00    -0.053 A 
ATOM     59  H   UNL A   1      40.795  25.118  25.376  1.00  0.00     0.063 H 
ATOM     60  C   UNL A   1      42.309  26.160  28.732  1.00  0.00    -0.053 A 
ATOM     61  H   UNL A   1      43.545  24.507  28.488  1.00  0.00     0.063 H 
ATOM     62  C   UNL A   1      41.561  27.059  27.997  1.00  0.00    -0.014 A 
ATOM     63  H   UNL A   1      40.456  27.393  26.216  1.00  0.00     0.063 H 
ATOM     64  H   UNL A   1      42.532  26.337  29.724  1.00  0.00     0.063 H 
BRANCH  62  65
ATOM     65  C   UNL A   1      41.373  28.371  28.591  1.00  0.00     0.031 A 
ATOM     66  C   UNL A   1      42.390  29.373  28.198  1.00  0.00     0.074 A 
ATOM     67  C   UNL A   1      40.244  28.689  29.263  1.00  0.00     0.049 A 
ATOM     68  N   UNL A   1      43.274  29.937  28.952  1.00  0.00    -0.248 NA
ATOM     69  C   UNL A   1      42.534  29.685  26.768  1.00  0.00    -0.034 C 
ATOM     70  C   UNL A   1      39.013  27.899  29.437  1.00  0.00    -0.036 A 
ATOM     71  N   UNL A   1      39.927  29.856  29.878  1.00  0.00    -0.354 N 
ATOM     72  C   UNL A   1      43.981  30.807  28.127  1.00  0.00     0.074 A 
ATOM     73  C   UNL A   1      43.598  30.490  26.777  1.00  0.00    -0.034 C 
ATOM     74  H   UNL A   1      41.964  29.365  25.970  1.00  0.00     0.065 H 
ATOM     75  C   UNL A   1      38.024  28.687  29.912  1.00  0.00    -0.036 A 
ATOM     76  H   UNL A   1      38.920  26.892  29.227  1.00  0.00     0.065 H 
ATOM     77  C   UNL A   1      38.596  29.972  30.257  1.00  0.00     0.049 A 
ATOM     78  H   UNL A   1      40.590  30.566  30.044  1.00  0.00     0.167 HD
ATOM     79  C   UNL A   1      44.664  31.864  28.647  1.00  0.00     0.037 A 
ATOM     80  H   UNL A   1      44.079  30.838  25.932  1.00  0.00     0.065 H 
ATOM     81  H   UNL A   1      37.033  28.418  30.014  1.00  0.00     0.065 H 
ATOM     82  C   UNL A   1      38.014  31.066  30.803  1.00  0.00     0.037 A 
ATOM     83  C   UNL A   1      44.836  31.713  30.070  1.00  0.00     0.049 A 
ATOM     84  C   UNL A   1      39.113  31.892  31.361  1.00  0.00     0.074 A 
ATOM     85  C   UNL A   1      45.549  30.855  30.881  1.00  0.00    -0.036 A 
ATOM     86  N   UNL A   1      43.888  32.295  30.872  1.00  0.00    -0.354 N 
ATOM     87  N   UNL A   1      39.869  31.522  32.358  1.00  0.00    -0.248 NA
ATOM     88  C   UNL A   1      39.657  32.945  30.521  1.00  0.00    -0.034 C 
ATOM     89  C   UNL A   1      44.717  30.640  32.022  1.00  0.00    -0.036 A 
ATOM     90  H   UNL A   1      46.483  30.454  30.703  1.00  0.00     0.065 H 
ATOM     91  C   UNL A   1      43.568  31.420  31.880  1.00  0.00     0.049 A 
ATOM     92  H   UNL A   1      43.500  33.191  30.747  1.00  0.00     0.167 HD
ATOM     93  C   UNL A   1      41.137  31.984  32.034  1.00  0.00     0.074 A 
ATOM     94  C   UNL A   1      40.921  32.940  30.950  1.00  0.00    -0.034 C 
ATOM     95  H   UNL A   1      39.199  33.528  29.802  1.00  0.00     0.065 H 
ATOM     96  H   UNL A   1      44.929  30.015  32.816  1.00  0.00     0.065 H 
ATOM     97  C   UNL A   1      42.252  31.336  32.482  1.00  0.00     0.037 A 
ATOM     98  H   UNL A   1      41.662  33.544  30.562  1.00  0.00     0.065 H 
BRANCH  79  99
ATOM     99  C   UNL A   1      44.861  33.187  27.949  1.00  0.00     0.064 A 
ATOM    100  C   UNL A   1      46.140  33.529  27.465  1.00  0.00     0.173 A 
ATOM    101  C   UNL A   1      43.924  34.244  27.982  1.00  0.00     0.173 A 
ATOM    102  F   UNL A   1      47.118  32.614  27.413  1.00  0.00    -0.203 F 
ATOM    103  C   UNL A   1      46.467  34.839  27.098  1.00  0.00     0.198 A 
ATOM    104  C   UNL A   1      44.238  35.536  27.564  1.00  0.00     0.198 A 
ATOM    105  F   UNL A   1      42.707  34.100  28.520  1.00  0.00    -0.203 F 
ATOM    106  F   UNL A   1      47.726  35.138  26.752  1.00  0.00    -0.200 F 
ATOM    107  C   UNL A   1      45.516  35.841  27.150  1.00  0.00     0.200 A 
ATOM    108  F   UNL A   1      43.307  36.497  27.642  1.00  0.00    -0.200 F 
ATOM    109  F   UNL A   1      45.839  37.105  26.848  1.00  0.00    -0.200 F 
ENDBRANCH  79  99
BRANCH  82 110
ATOM    110  C   UNL A   1      36.672  31.628  30.517  1.00  0.00     0.064 A 
ATOM    111  C   UNL A   1      35.834  32.042  31.565  1.00  0.00     0.173 A 
ATOM    112  C   UNL A   1      36.324  32.065  29.224  1.00  0.00     0.173 A 
ATOM    113  F   UNL A   1      36.119  31.699  32.830  1.00  0.00    -0.203 F 
ATOM    114  C   UNL A   1      34.740  32.885  31.341  1.00  0.00     0.198 A 
ATOM    115  C   UNL A   1      35.229  32.905  29.001  1.00  0.00     0.198 A 
ATOM    116  F   UNL A   1      37.096  31.774  28.168  1.00  0.00    -0.203 F 
ATOM    117  F   UNL A   1      34.009  33.321  32.376  1.00  0.00    -0.200 F 
ATOM    118  C   UNL A   1      34.449  33.329  30.061  1.00  0.00     0.200 A 
ATOM    119  F   UNL A   1      34.981  33.358  27.764  1.00  0.00    -0.200 F 
ATOM    120  F   UNL A   1      33.450  34.197  29.856  1.00  0.00    -0.200 F 
ENDBRANCH  82 110
BRANCH  97 121
ATOM    121  C   UNL A   1      42.063  30.299  33.561  1.00  0.00     0.064 A 
ATOM    122  C   UNL A   1      41.869  28.926  33.321  1.00  0.00     0.173 A 
ATOM    123  C   UNL A   1      42.215  30.694  34.897  1.00  0.00     0.173 A 
ATOM    124  F   UNL A   1      41.803  28.447  32.075  1.00  0.00    -0.203 F 
ATOM    125  C   UNL A   1      41.794  28.005  34.367  1.00  0.00     0.198 A 
ATOM    126  C   UNL A   1      42.177  29.769  35.939  1.00  0.00     0.198 A 
ATOM    127  F   UNL A   1      42.450  31.983  35.191  1.00  0.00    -0.203 F 
ATOM    128  F   UNL A   1      41.598  26.704  34.107  1.00  0.00    -0.200 F 
ATOM    129  C   UNL A   1      41.958  28.428  35.674  1.00  0.00     0.200 A 
ATOM    130  F   UNL A   1      42.383  30.178  37.198  1.00  0.00    -0.200 F 
ATOM    131  F   UNL A   1      41.930  27.539  36.678  1.00  0.00    -0.200 F 
ENDBRANCH  97 121
ENDBRANCH  62  65
ENDBRANCH  52  55
ENDBRANCH  48  51
ENDBRANCH  45  48
ENDBRANCH  42  45
ENDBRANCH  39  42
ENDBRANCH   1  39
TORSDOF 18
ENDMDL
MODEL 7
REMARK VINA RESULT:     -11.3      2.964      9.102
REMARK SMILES Cc1cc(C)c2c(=O)n(CCCC(=O)NCCCCCCNC(=O)c3ccc(-c4c5nc(c(-c6c(F)c(F)c(F)c(F)c6F)c6ccc([nH]6)c(-c6c(F)c(F)c(F)c(F)c6F)c6nc(c(-c7c(F)c(F)c(F)c(F)c7F)c7ccc4[nH]7)C=C6)C=C5)cc3)sc2n1
REMARK SMILES IDX 17 1 16 4 15 7 13 8 14 9 12 11 11 14 10 17 9 20 2 21 3 22
REMARK SMILES IDX 90 23 4 24 89 26 6 27 88 28 7 29 8 30 1 31 5 35 18 39 19 42
REMARK SMILES IDX 20 45 21 48 22 51 23 52 24 54 25 55 26 56 87 57 27 58 86 60
REMARK SMILES IDX 28 62 29 65 30 66 80 67 31 68 85 69 79 70 81 71 32 72 84 73
REMARK SMILES IDX 78 75 77 77 33 79 65 82 45 83 64 84 46 85 49 86 63 87 82 88
REMARK SMILES IDX 47 89 48 91 62 93 83 94 50 97 34 99 35 100 43 101 36 102
REMARK SMILES IDX 37 103 41 104 44 105 38 106 39 107 42 108 40 109 66 110
REMARK SMILES IDX 67 111 75 112 68 113 69 114 73 115 76 116 70 117 71 118
REMARK SMILES IDX 74 119 72 120 51 121 52 122 60 123 53 124 54 125 58 126
REMARK SMILES IDX 61 127 55 128 56 129 59 130 57 131
REMARK H PARENT 17 2 17 3 16 5 16 6 15 10 12 12 12 13 11 15 11 16 10 18 10 19
REMARK H PARENT 3 25 1 32 1 33 1 34 5 36 5 37 5 38 18 40 18 41 19 43 19 44
REMARK H PARENT 20 46 20 47 21 49 21 50 22 53 26 59 87 61 27 63 86 64 85 74
REMARK H PARENT 79 76 81 78 84 80 78 81 46 90 49 92 82 95 47 96 83 98
REMARK Flexibility Score: inf
ROOT
ATOM      1  C   UNL A   1      32.926  29.331  24.808  1.00  0.00    -0.036 C 
ATOM      2  H   UNL A   1      33.282  30.332  24.936  1.00  0.00     0.028 H 
ATOM      3  H   UNL A   1      33.153  28.945  23.836  1.00  0.00     0.028 H 
ENDROOT
BRANCH   1   4
ATOM      4  C   UNL A   1      31.404  29.334  24.951  1.00  0.00     0.017 C 
ATOM      5  H   UNL A   1      31.073  28.354  25.226  1.00  0.00     0.049 H 
ATOM      6  H   UNL A   1      31.126  30.039  25.705  1.00  0.00     0.049 H 
BRANCH   4   7
ATOM      7  N   UNL A   1      30.784  29.710  23.702  1.00  0.00    -0.356 N 
ATOM      8  C   UNL A   1      30.438  28.964  22.623  1.00  0.00     0.220 C 
ATOM      9  O   UNL A   1      30.025  29.562  21.627  1.00  0.00    -0.275 OA
ATOM     10  H   UNL A   1      30.577  30.669  23.620  1.00  0.00     0.163 HD
BRANCH   8  11
ATOM     11  C   UNL A   1      30.435  27.447  22.667  1.00  0.00     0.028 C 
ATOM     12  H   UNL A   1      30.093  27.169  23.643  1.00  0.00     0.037 H 
ATOM     13  H   UNL A   1      29.820  27.182  21.833  1.00  0.00     0.037 H 
BRANCH  11  14
ATOM     14  C   UNL A   1      31.728  26.663  22.412  1.00  0.00    -0.025 C 
ATOM     15  H   UNL A   1      32.100  26.999  21.466  1.00  0.00     0.029 H 
ATOM     16  H   UNL A   1      32.295  26.869  23.296  1.00  0.00     0.029 H 
BRANCH  14  17
ATOM     17  C   UNL A   1      31.751  25.126  22.363  1.00  0.00     0.037 C 
ATOM     18  H   UNL A   1      30.756  24.800  22.583  1.00  0.00     0.051 H 
ATOM     19  H   UNL A   1      32.149  24.931  21.388  1.00  0.00     0.051 H 
BRANCH  17  20
ATOM     20  N   UNL A   1      32.639  24.353  23.227  1.00  0.00    -0.262 N 
ATOM     21  C   UNL A   1      36.138  21.609  24.785  1.00  0.00     0.039 A 
ATOM     22  C   UNL A   1      35.096  20.675  24.864  1.00  0.00    -0.037 A 
ATOM     23  N   UNL A   1      35.936  22.898  24.430  1.00  0.00    -0.241 NA
ATOM     24  C   UNL A   1      33.783  21.054  24.528  1.00  0.00    -0.033 A 
ATOM     25  H   UNL A   1      35.291  19.708  25.167  1.00  0.00     0.064 H 
ATOM     26  C   UNL A   1      34.673  23.226  24.111  1.00  0.00     0.146 A 
ATOM     27  C   UNL A   1      33.602  22.356  24.078  1.00  0.00     0.081 A 
ATOM     28  S   UNL A   1      34.184  24.881  23.733  1.00  0.00    -0.035 S 
ATOM     29  C   UNL A   1      32.406  22.998  23.483  1.00  0.00     0.270 A 
ATOM     30  O   UNL A   1      31.403  22.366  23.176  1.00  0.00    -0.268 OA
BRANCH  21  31
ATOM     31  C   UNL A   1      37.557  21.210  25.061  1.00  0.00    -0.022 C 
ATOM     32  H   UNL A   1      38.221  21.911  24.600  1.00  0.00     0.030 H 
ATOM     33  H   UNL A   1      37.736  20.233  24.663  1.00  0.00     0.030 H 
ATOM     34  H   UNL A   1      37.726  21.202  26.117  1.00  0.00     0.030 H 
ENDBRANCH  21  31
BRANCH  24  35
ATOM     35  C   UNL A   1      32.644  20.098  24.692  1.00  0.00    -0.039 C 
ATOM     36  H   UNL A   1      31.809  20.435  24.114  1.00  0.00     0.028 H 
ATOM     37  H   UNL A   1      32.367  20.046  25.724  1.00  0.00     0.028 H 
ATOM     38  H   UNL A   1      32.942  19.128  24.353  1.00  0.00     0.028 H 
ENDBRANCH  24  35
ENDBRANCH  17  20
ENDBRANCH  14  17
ENDBRANCH  11  14
ENDBRANCH   8  11
ENDBRANCH   4   7
ENDBRANCH   1   4
BRANCH   1  39
ATOM     39  C   UNL A   1      33.627  28.431  25.829  1.00  0.00    -0.052 C 
ATOM     40  H   UNL A   1      34.317  27.807  25.301  1.00  0.00     0.027 H 
ATOM     41  H   UNL A   1      32.853  27.886  26.327  1.00  0.00     0.027 H 
BRANCH  39  42
ATOM     42  C   UNL A   1      34.404  29.173  26.931  1.00  0.00    -0.052 C 
ATOM     43  H   UNL A   1      35.403  29.324  26.580  1.00  0.00     0.027 H 
ATOM     44  H   UNL A   1      34.328  28.552  27.799  1.00  0.00     0.027 H 
BRANCH  42  45
ATOM     45  C   UNL A   1      33.846  30.539  27.355  1.00  0.00    -0.036 C 
ATOM     46  H   UNL A   1      33.268  30.410  28.247  1.00  0.00     0.028 H 
ATOM     47  H   UNL A   1      33.253  30.907  26.543  1.00  0.00     0.028 H 
BRANCH  45  48
ATOM     48  C   UNL A   1      34.926  31.569  27.626  1.00  0.00     0.018 C 
ATOM     49  H   UNL A   1      34.879  32.321  26.865  1.00  0.00     0.049 H 
ATOM     50  H   UNL A   1      35.868  31.060  27.621  1.00  0.00     0.049 H 
BRANCH  48  51
ATOM     51  N   UNL A   1      34.779  32.215  28.933  1.00  0.00    -0.352 N 
ATOM     52  C   UNL A   1      35.444  31.952  30.119  1.00  0.00     0.251 C 
ATOM     53  H   UNL A   1      34.112  32.938  28.974  1.00  0.00     0.163 HD
ATOM     54  O   UNL A   1      35.011  32.340  31.188  1.00  0.00    -0.269 OA
BRANCH  52  55
ATOM     55  C   UNL A   1      36.705  31.192  30.056  1.00  0.00     0.039 A 
ATOM     56  C   UNL A   1      37.944  31.811  29.872  1.00  0.00    -0.049 A 
ATOM     57  C   UNL A   1      36.618  29.814  30.199  1.00  0.00    -0.049 A 
ATOM     58  C   UNL A   1      39.087  31.013  29.874  1.00  0.00    -0.053 A 
ATOM     59  H   UNL A   1      38.011  32.831  29.737  1.00  0.00     0.063 H 
ATOM     60  C   UNL A   1      37.735  29.087  30.473  1.00  0.00    -0.053 A 
ATOM     61  H   UNL A   1      35.706  29.342  30.096  1.00  0.00     0.063 H 
ATOM     62  C   UNL A   1      38.961  29.649  30.174  1.00  0.00    -0.014 A 
ATOM     63  H   UNL A   1      40.010  31.421  29.659  1.00  0.00     0.063 H 
ATOM     64  H   UNL A   1      37.666  28.146  30.890  1.00  0.00     0.063 H 
BRANCH  62  65
ATOM     65  C   UNL A   1      40.099  28.747  30.195  1.00  0.00     0.031 A 
ATOM     66  C   UNL A   1      40.616  28.444  31.549  1.00  0.00     0.074 A 
ATOM     67  C   UNL A   1      40.496  28.083  29.087  1.00  0.00     0.049 A 
ATOM     68  N   UNL A   1      41.762  28.770  32.047  1.00  0.00    -0.248 NA
ATOM     69  C   UNL A   1      39.697  27.824  32.515  1.00  0.00    -0.034 C 
ATOM     70  C   UNL A   1      39.865  28.032  27.758  1.00  0.00    -0.036 A 
ATOM     71  N   UNL A   1      41.537  27.223  28.945  1.00  0.00    -0.354 N 
ATOM     72  C   UNL A   1      41.781  28.249  33.338  1.00  0.00     0.074 A 
ATOM     73  C   UNL A   1      40.436  27.828  33.626  1.00  0.00    -0.034 C 
ATOM     74  H   UNL A   1      38.735  27.479  32.373  1.00  0.00     0.065 H 
ATOM     75  C   UNL A   1      40.403  27.029  27.030  1.00  0.00    -0.036 A 
ATOM     76  H   UNL A   1      39.120  28.669  27.430  1.00  0.00     0.065 H 
ATOM     77  C   UNL A   1      41.536  26.500  27.759  1.00  0.00     0.049 A 
ATOM     78  H   UNL A   1      42.238  27.121  29.629  1.00  0.00     0.167 HD
ATOM     79  C   UNL A   1      42.958  28.012  33.979  1.00  0.00     0.037 A 
ATOM     80  H   UNL A   1      40.091  27.564  34.563  1.00  0.00     0.065 H 
ATOM     81  H   UNL A   1      40.065  26.699  26.112  1.00  0.00     0.065 H 
ATOM     82  C   UNL A   1      42.410  25.522  27.422  1.00  0.00     0.037 A 
ATOM     83  C   UNL A   1      44.047  28.689  33.320  1.00  0.00     0.049 A 
ATOM     84  C   UNL A   1      43.604  25.709  28.281  1.00  0.00     0.074 A 
ATOM     85  C   UNL A   1      44.411  30.007  33.140  1.00  0.00    -0.036 A 
ATOM     86  N   UNL A   1      44.741  27.971  32.379  1.00  0.00    -0.354 N 
ATOM     87  N   UNL A   1      44.395  26.745  28.216  1.00  0.00    -0.248 NA
ATOM     88  C   UNL A   1      43.667  24.952  29.520  1.00  0.00    -0.034 C 
ATOM     89  C   UNL A   1      44.967  30.066  31.826  1.00  0.00    -0.036 A 
ATOM     90  H   UNL A   1      44.304  30.784  33.811  1.00  0.00     0.065 H 
ATOM     91  C   UNL A   1      44.970  28.776  31.292  1.00  0.00     0.049 A 
ATOM     92  H   UNL A   1      45.028  27.034  32.469  1.00  0.00     0.167 HD
ATOM     93  C   UNL A   1      44.738  27.015  29.533  1.00  0.00     0.074 A 
ATOM     94  C   UNL A   1      44.348  25.817  30.274  1.00  0.00    -0.034 C 
ATOM     95  H   UNL A   1      43.294  24.017  29.749  1.00  0.00     0.065 H 
ATOM     96  H   UNL A   1      45.309  30.917  31.352  1.00  0.00     0.065 H 
ATOM     97  C   UNL A   1      45.041  28.286  29.930  1.00  0.00     0.037 A 
ATOM     98  H   UNL A   1      44.575  25.658  31.268  1.00  0.00     0.065 H 
BRANCH  79  99
ATOM     99  C   UNL A   1      43.187  26.900  34.972  1.00  0.00     0.064 A 
ATOM    100  C   UNL A   1      43.402  27.218  36.328  1.00  0.00     0.173 A 
ATOM    101  C   UNL A   1      43.481  25.566  34.610  1.00  0.00     0.173 A 
ATOM    102  F   UNL A   1      43.183  28.461  36.782  1.00  0.00    -0.203 F 
ATOM    103  C   UNL A   1      43.924  26.288  37.234  1.00  0.00     0.198 A 
ATOM    104  C   UNL A   1      43.949  24.627  35.527  1.00  0.00     0.198 A 
ATOM    105  F   UNL A   1      43.434  25.146  33.340  1.00  0.00    -0.203 F 
ATOM    106  F   UNL A   1      44.217  26.670  38.484  1.00  0.00    -0.200 F 
ATOM    107  C   UNL A   1      44.198  24.994  36.832  1.00  0.00     0.200 A 
ATOM    108  F   UNL A   1      44.228  23.384  35.112  1.00  0.00    -0.200 F 
ATOM    109  F   UNL A   1      44.745  24.116  37.683  1.00  0.00    -0.200 F 
ENDBRANCH  79  99
BRANCH  82 110
ATOM    110  C   UNL A   1      42.127  24.239  26.733  1.00  0.00     0.064 A 
ATOM    111  C   UNL A   1      43.076  23.667  25.871  1.00  0.00     0.173 A 
ATOM    112  C   UNL A   1      41.075  23.402  27.154  1.00  0.00     0.173 A 
ATOM    113  F   UNL A   1      44.129  24.388  25.457  1.00  0.00    -0.203 F 
ATOM    114  C   UNL A   1      43.007  22.322  25.491  1.00  0.00     0.198 A 
ATOM    115  C   UNL A   1      41.005  22.060  26.771  1.00  0.00     0.198 A 
ATOM    116  F   UNL A   1      40.155  23.838  28.025  1.00  0.00    -0.203 F 
ATOM    117  F   UNL A   1      43.974  21.791  24.729  1.00  0.00    -0.200 F 
ATOM    118  C   UNL A   1      41.980  21.516  25.956  1.00  0.00     0.200 A 
ATOM    119  F   UNL A   1      40.029  21.280  27.257  1.00  0.00    -0.200 F 
ATOM    120  F   UNL A   1      41.955  20.210  25.656  1.00  0.00    -0.200 F 
ENDBRANCH  82 110
BRANCH  97 121
ATOM    121  C   UNL A   1      45.272  29.312  28.848  1.00  0.00     0.064 A 
ATOM    122  C   UNL A   1      44.281  30.171  28.341  1.00  0.00     0.173 A 
ATOM    123  C   UNL A   1      46.583  29.521  28.400  1.00  0.00     0.173 A 
ATOM    124  F   UNL A   1      43.019  30.103  28.778  1.00  0.00    -0.203 F 
ATOM    125  C   UNL A   1      44.582  31.163  27.406  1.00  0.00     0.198 A 
ATOM    126  C   UNL A   1      46.890  30.535  27.495  1.00  0.00     0.198 A 
ATOM    127  F   UNL A   1      47.584  28.766  28.882  1.00  0.00    -0.203 F 
ATOM    128  F   UNL A   1      43.613  31.960  26.932  1.00  0.00    -0.200 F 
ATOM    129  C   UNL A   1      45.889  31.349  26.992  1.00  0.00     0.200 A 
ATOM    130  F   UNL A   1      48.164  30.740  27.134  1.00  0.00    -0.200 F 
ATOM    131  F   UNL A   1      46.189  32.328  26.126  1.00  0.00    -0.200 F 
ENDBRANCH  97 121
ENDBRANCH  62  65
ENDBRANCH  52  55
ENDBRANCH  48  51
ENDBRANCH  45  48
ENDBRANCH  42  45
ENDBRANCH  39  42
ENDBRANCH   1  39
TORSDOF 18
ENDMDL
MODEL 8
REMARK VINA RESULT:     -11.3      1.464      2.106
REMARK SMILES Cc1cc(C)c2c(=O)n(CCCC(=O)NCCCCCCNC(=O)c3ccc(-c4c5nc(c(-c6c(F)c(F)c(F)c(F)c6F)c6ccc([nH]6)c(-c6c(F)c(F)c(F)c(F)c6F)c6nc(c(-c7c(F)c(F)c(F)c(F)c7F)c7ccc4[nH]7)C=C6)C=C5)cc3)sc2n1
REMARK SMILES IDX 17 1 16 4 15 7 13 8 14 9 12 11 11 14 10 17 9 20 2 21 3 22
REMARK SMILES IDX 90 23 4 24 89 26 6 27 88 28 7 29 8 30 1 31 5 35 18 39 19 42
REMARK SMILES IDX 20 45 21 48 22 51 23 52 24 54 25 55 26 56 87 57 27 58 86 60
REMARK SMILES IDX 28 62 29 65 30 66 80 67 31 68 85 69 79 70 81 71 32 72 84 73
REMARK SMILES IDX 78 75 77 77 33 79 65 82 45 83 64 84 46 85 49 86 63 87 82 88
REMARK SMILES IDX 47 89 48 91 62 93 83 94 50 97 34 99 35 100 43 101 36 102
REMARK SMILES IDX 37 103 41 104 44 105 38 106 39 107 42 108 40 109 66 110
REMARK SMILES IDX 67 111 75 112 68 113 69 114 73 115 76 116 70 117 71 118
REMARK SMILES IDX 74 119 72 120 51 121 52 122 60 123 53 124 54 125 58 126
REMARK SMILES IDX 61 127 55 128 56 129 59 130 57 131
REMARK H PARENT 17 2 17 3 16 5 16 6 15 10 12 12 12 13 11 15 11 16 10 18 10 19
REMARK H PARENT 3 25 1 32 1 33 1 34 5 36 5 37 5 38 18 40 18 41 19 43 19 44
REMARK H PARENT 20 46 20 47 21 49 21 50 22 53 26 59 87 61 27 63 86 64 85 74
REMARK H PARENT 79 76 81 78 84 80 78 81 46 90 49 92 82 95 47 96 83 98
REMARK Flexibility Score: inf
ROOT
ATOM      1  C   UNL A   1      39.456  21.044  26.424  1.00  0.00    -0.036 C 
ATOM      2  H   UNL A   1      39.514  20.015  26.138  1.00  0.00     0.028 H 
ATOM      3  H   UNL A   1      39.041  21.167  27.402  1.00  0.00     0.028 H 
ENDROOT
BRANCH   1   4
ATOM      4  C   UNL A   1      38.531  21.769  25.445  1.00  0.00     0.017 C 
ATOM      5  H   UNL A   1      39.063  22.580  24.992  1.00  0.00     0.049 H 
ATOM      6  H   UNL A   1      38.208  21.079  24.694  1.00  0.00     0.049 H 
BRANCH   4   7
ATOM      7  N   UNL A   1      37.375  22.286  26.138  1.00  0.00    -0.356 N 
ATOM      8  C   UNL A   1      36.058  22.250  25.814  1.00  0.00     0.220 C 
ATOM      9  O   UNL A   1      35.278  22.880  26.531  1.00  0.00    -0.275 OA
ATOM     10  H   UNL A   1      37.575  22.742  26.987  1.00  0.00     0.163 HD
BRANCH   8  11
ATOM     11  C   UNL A   1      35.533  21.373  24.691  1.00  0.00     0.028 C 
ATOM     12  H   UNL A   1      35.461  21.996  23.824  1.00  0.00     0.037 H 
ATOM     13  H   UNL A   1      36.236  20.567  24.665  1.00  0.00     0.037 H 
BRANCH  11  14
ATOM     14  C   UNL A   1      34.185  20.657  24.835  1.00  0.00    -0.025 C 
ATOM     15  H   UNL A   1      34.353  19.641  24.545  1.00  0.00     0.029 H 
ATOM     16  H   UNL A   1      33.923  20.870  25.850  1.00  0.00     0.029 H 
BRANCH  14  17
ATOM     17  C   UNL A   1      32.932  21.121  24.073  1.00  0.00     0.037 C 
ATOM     18  H   UNL A   1      32.913  20.569  23.156  1.00  0.00     0.051 H 
ATOM     19  H   UNL A   1      32.151  20.954  24.786  1.00  0.00     0.051 H 
BRANCH  17  20
ATOM     20  N   UNL A   1      32.738  22.522  23.714  1.00  0.00    -0.262 N 
ATOM     21  C   UNL A   1      33.473  27.105  22.902  1.00  0.00     0.039 A 
ATOM     22  C   UNL A   1      32.775  27.222  24.112  1.00  0.00    -0.037 A 
ATOM     23  N   UNL A   1      33.671  25.917  22.287  1.00  0.00    -0.241 NA
ATOM     24  C   UNL A   1      32.282  26.071  24.755  1.00  0.00    -0.033 A 
ATOM     25  H   UNL A   1      32.622  28.152  24.533  1.00  0.00     0.064 H 
ATOM     26  C   UNL A   1      33.193  24.839  22.929  1.00  0.00     0.146 A 
ATOM     27  C   UNL A   1      32.569  24.849  24.160  1.00  0.00     0.081 A 
ATOM     28  S   UNL A   1      33.250  23.215  22.237  1.00  0.00    -0.035 S 
ATOM     29  C   UNL A   1      32.362  23.472  24.669  1.00  0.00     0.270 A 
ATOM     30  O   UNL A   1      32.006  23.241  25.817  1.00  0.00    -0.268 OA
BRANCH  21  31
ATOM     31  C   UNL A   1      34.075  28.307  22.238  1.00  0.00    -0.022 C 
ATOM     32  H   UNL A   1      33.652  29.196  22.657  1.00  0.00     0.030 H 
ATOM     33  H   UNL A   1      33.870  28.275  21.188  1.00  0.00     0.030 H 
ATOM     34  H   UNL A   1      35.133  28.308  22.394  1.00  0.00     0.030 H 
ENDBRANCH  21  31
BRANCH  24  35
ATOM     35  C   UNL A   1      31.458  26.182  25.999  1.00  0.00    -0.039 C 
ATOM     36  H   UNL A   1      31.757  25.426  26.694  1.00  0.00     0.028 H 
ATOM     37  H   UNL A   1      30.424  26.053  25.754  1.00  0.00     0.028 H 
ATOM     38  H   UNL A   1      31.603  27.147  26.438  1.00  0.00     0.028 H 
ENDBRANCH  24  35
ENDBRANCH  17  20
ENDBRANCH  14  17
ENDBRANCH  11  14
ENDBRANCH   8  11
ENDBRANCH   4   7
ENDBRANCH   1   4
BRANCH   1  39
ATOM     39  C   UNL A   1      40.874  21.621  26.456  1.00  0.00    -0.052 C 
ATOM     40  H   UNL A   1      40.807  22.647  26.750  1.00  0.00     0.027 H 
ATOM     41  H   UNL A   1      41.274  21.483  25.473  1.00  0.00     0.027 H 
BRANCH  39  42
ATOM     42  C   UNL A   1      41.847  20.913  27.415  1.00  0.00    -0.052 C 
ATOM     43  H   UNL A   1      41.295  20.631  28.288  1.00  0.00     0.027 H 
ATOM     44  H   UNL A   1      42.631  21.617  27.595  1.00  0.00     0.027 H 
BRANCH  42  45
ATOM     45  C   UNL A   1      42.542  19.655  26.874  1.00  0.00    -0.036 C 
ATOM     46  H   UNL A   1      41.969  18.798  27.160  1.00  0.00     0.028 H 
ATOM     47  H   UNL A   1      43.529  19.634  27.288  1.00  0.00     0.028 H 
BRANCH  45  48
ATOM     48  C   UNL A   1      42.688  19.655  25.364  1.00  0.00     0.018 C 
ATOM     49  H   UNL A   1      42.233  20.544  24.977  1.00  0.00     0.049 H 
ATOM     50  H   UNL A   1      42.211  18.773  24.992  1.00  0.00     0.049 H 
BRANCH  48  51
ATOM     51  N   UNL A   1      44.087  19.619  24.930  1.00  0.00    -0.352 N 
ATOM     52  C   UNL A   1      44.954  20.670  24.681  1.00  0.00     0.251 C 
ATOM     53  H   UNL A   1      44.465  18.719  24.797  1.00  0.00     0.163 HD
ATOM     54  O   UNL A   1      45.973  20.512  24.034  1.00  0.00    -0.269 OA
BRANCH  52  55
ATOM     55  C   UNL A   1      44.616  21.995  25.229  1.00  0.00     0.039 A 
ATOM     56  C   UNL A   1      43.744  22.874  24.581  1.00  0.00    -0.049 A 
ATOM     57  C   UNL A   1      45.198  22.343  26.441  1.00  0.00    -0.049 A 
ATOM     58  C   UNL A   1      43.447  24.086  25.201  1.00  0.00    -0.053 A 
ATOM     59  H   UNL A   1      43.332  22.632  23.667  1.00  0.00     0.063 H 
ATOM     60  C   UNL A   1      44.699  23.385  27.160  1.00  0.00    -0.053 A 
ATOM     61  H   UNL A   1      46.008  21.812  26.795  1.00  0.00     0.063 H 
ATOM     62  C   UNL A   1      43.938  24.325  26.493  1.00  0.00    -0.014 A 
ATOM     63  H   UNL A   1      42.875  24.796  24.717  1.00  0.00     0.063 H 
ATOM     64  H   UNL A   1      44.885  23.469  28.172  1.00  0.00     0.063 H 
BRANCH  62  65
ATOM     65  C   UNL A   1      43.679  25.562  27.209  1.00  0.00     0.031 A 
ATOM     66  C   UNL A   1      44.621  26.661  26.894  1.00  0.00     0.074 A 
ATOM     67  C   UNL A   1      42.546  25.742  27.925  1.00  0.00     0.049 A 
ATOM     68  N   UNL A   1      45.482  27.211  27.683  1.00  0.00    -0.248 NA
ATOM     69  C   UNL A   1      44.713  27.111  25.497  1.00  0.00    -0.034 C 
ATOM     70  C   UNL A   1      41.373  24.860  28.044  1.00  0.00    -0.036 A 
ATOM     71  N   UNL A   1      42.169  26.825  28.649  1.00  0.00    -0.354 N 
ATOM     72  C   UNL A   1      46.114  28.197  26.931  1.00  0.00     0.074 A 
ATOM     73  C   UNL A   1      45.723  27.980  25.563  1.00  0.00    -0.034 C 
ATOM     74  H   UNL A   1      44.148  26.827  24.681  1.00  0.00     0.065 H 
ATOM     75  C   UNL A   1      40.346  25.534  28.605  1.00  0.00    -0.036 A 
ATOM     76  H   UNL A   1      41.340  23.873  27.743  1.00  0.00     0.065 H 
ATOM     77  C   UNL A   1      40.841  26.818  29.057  1.00  0.00     0.049 A 
ATOM     78  H   UNL A   1      42.788  27.559  28.869  1.00  0.00     0.167 HD
ATOM     79  C   UNL A   1      46.738  29.245  27.535  1.00  0.00     0.037 A 
ATOM     80  H   UNL A   1      46.162  28.434  24.747  1.00  0.00     0.065 H 
ATOM     81  H   UNL A   1      39.376  25.193  28.697  1.00  0.00     0.065 H 
ATOM     82  C   UNL A   1      40.202  27.817  29.711  1.00  0.00     0.037 A 
ATOM     83  C   UNL A   1      46.951  28.977  28.935  1.00  0.00     0.049 A 
ATOM     84  C   UNL A   1      41.257  28.660  30.326  1.00  0.00     0.074 A 
ATOM     85  C   UNL A   1      47.735  28.098  29.653  1.00  0.00    -0.036 A 
ATOM     86  N   UNL A   1      45.984  29.419  29.802  1.00  0.00    -0.354 N 
ATOM     87  N   UNL A   1      42.056  28.251  31.273  1.00  0.00    -0.248 NA
ATOM     88  C   UNL A   1      41.714  29.818  29.578  1.00  0.00    -0.034 C 
ATOM     89  C   UNL A   1      46.943  27.726  30.782  1.00  0.00    -0.036 A 
ATOM     90  H   UNL A   1      48.689  27.777  29.424  1.00  0.00     0.065 H 
ATOM     91  C   UNL A   1      45.743  28.438  30.730  1.00  0.00     0.049 A 
ATOM     92  H   UNL A   1      45.538  30.296  29.766  1.00  0.00     0.167 HD
ATOM     93  C   UNL A   1      43.285  28.823  30.973  1.00  0.00     0.074 A 
ATOM     94  C   UNL A   1      42.984  29.857  29.986  1.00  0.00    -0.034 C 
ATOM     95  H   UNL A   1      41.204  30.432  28.923  1.00  0.00     0.065 H 
ATOM     96  H   UNL A   1      47.212  27.046  31.511  1.00  0.00     0.065 H 
ATOM     97  C   UNL A   1      44.449  28.212  31.343  1.00  0.00     0.037 A 
ATOM     98  H   UNL A   1      43.677  30.542  29.643  1.00  0.00     0.065 H 
BRANCH  79  99
ATOM     99  C   UNL A   1      46.835  30.636  26.959  1.00  0.00     0.064 A 
ATOM    100  C   UNL A   1      48.077  31.303  26.967  1.00  0.00     0.173 A 
ATOM    101  C   UNL A   1      45.717  31.445  26.659  1.00  0.00     0.173 A 
ATOM    102  F   UNL A   1      49.205  30.642  27.265  1.00  0.00    -0.203 F 
ATOM    103  C   UNL A   1      48.180  32.680  26.746  1.00  0.00     0.198 A 
ATOM    104  C   UNL A   1      45.829  32.807  26.386  1.00  0.00     0.198 A 
ATOM    105  F   UNL A   1      44.463  30.981  26.725  1.00  0.00    -0.203 F 
ATOM    106  F   UNL A   1      49.367  33.288  26.876  1.00  0.00    -0.200 F 
ATOM    107  C   UNL A   1      47.055  33.432  26.458  1.00  0.00     0.200 A 
ATOM    108  F   UNL A   1      44.724  33.521  26.129  1.00  0.00    -0.200 F 
ATOM    109  F   UNL A   1      47.144  34.758  26.297  1.00  0.00    -0.200 F 
ENDBRANCH  79  99
BRANCH  82 110
ATOM    110  C   UNL A   1      38.820  28.313  29.500  1.00  0.00     0.064 A 
ATOM    111  C   UNL A   1      37.989  28.599  30.595  1.00  0.00     0.173 A 
ATOM    112  C   UNL A   1      38.409  28.817  28.250  1.00  0.00     0.173 A 
ATOM    113  F   UNL A   1      38.331  28.187  31.824  1.00  0.00    -0.203 F 
ATOM    114  C   UNL A   1      36.840  29.385  30.458  1.00  0.00     0.198 A 
ATOM    115  C   UNL A   1      37.260  29.600  28.115  1.00  0.00     0.198 A 
ATOM    116  F   UNL A   1      39.167  28.649  27.158  1.00  0.00    -0.203 F 
ATOM    117  F   UNL A   1      36.114  29.702  31.540  1.00  0.00    -0.200 F 
ATOM    118  C   UNL A   1      36.486  29.899  29.221  1.00  0.00     0.200 A 
ATOM    119  F   UNL A   1      36.949  30.122  26.920  1.00  0.00    -0.200 F 
ATOM    120  F   UNL A   1      35.431  30.716  29.103  1.00  0.00    -0.200 F 
ENDBRANCH  82 110
BRANCH  97 121
ATOM    121  C   UNL A   1      44.350  27.071  32.324  1.00  0.00     0.064 A 
ATOM    122  C   UNL A   1      44.134  27.225  33.705  1.00  0.00     0.173 A 
ATOM    123  C   UNL A   1      44.345  25.762  31.822  1.00  0.00     0.173 A 
ATOM    124  F   UNL A   1      44.035  28.439  34.257  1.00  0.00    -0.203 F 
ATOM    125  C   UNL A   1      43.959  26.123  34.545  1.00  0.00     0.198 A 
ATOM    126  C   UNL A   1      44.133  24.665  32.655  1.00  0.00     0.198 A 
ATOM    127  F   UNL A   1      44.498  25.549  30.506  1.00  0.00    -0.203 F 
ATOM    128  F   UNL A   1      43.766  26.302  35.860  1.00  0.00    -0.200 F 
ATOM    129  C   UNL A   1      43.949  24.845  34.015  1.00  0.00     0.200 A 
ATOM    130  F   UNL A   1      44.078  23.433  32.130  1.00  0.00    -0.200 F 
ATOM    131  F   UNL A   1      43.739  23.787  34.812  1.00  0.00    -0.200 F 
ENDBRANCH  97 121
ENDBRANCH  62  65
ENDBRANCH  52  55
ENDBRANCH  48  51
ENDBRANCH  45  48
ENDBRANCH  42  45
ENDBRANCH  39  42
ENDBRANCH   1  39
TORSDOF 18
ENDMDL
MODEL 9
REMARK VINA RESULT:     -11.3      2.830      8.475
REMARK SMILES Cc1cc(C)c2c(=O)n(CCCC(=O)NCCCCCCNC(=O)c3ccc(-c4c5nc(c(-c6c(F)c(F)c(F)c(F)c6F)c6ccc([nH]6)c(-c6c(F)c(F)c(F)c(F)c6F)c6nc(c(-c7c(F)c(F)c(F)c(F)c7F)c7ccc4[nH]7)C=C6)C=C5)cc3)sc2n1
REMARK SMILES IDX 17 1 16 4 15 7 13 8 14 9 12 11 11 14 10 17 9 20 2 21 3 22
REMARK SMILES IDX 90 23 4 24 89 26 6 27 88 28 7 29 8 30 1 31 5 35 18 39 19 42
REMARK SMILES IDX 20 45 21 48 22 51 23 52 24 54 25 55 26 56 87 57 27 58 86 60
REMARK SMILES IDX 28 62 29 65 30 66 80 67 31 68 85 69 79 70 81 71 32 72 84 73
REMARK SMILES IDX 78 75 77 77 33 79 65 82 45 83 64 84 46 85 49 86 63 87 82 88
REMARK SMILES IDX 47 89 48 91 62 93 83 94 50 97 34 99 35 100 43 101 36 102
REMARK SMILES IDX 37 103 41 104 44 105 38 106 39 107 42 108 40 109 66 110
REMARK SMILES IDX 67 111 75 112 68 113 69 114 73 115 76 116 70 117 71 118
REMARK SMILES IDX 74 119 72 120 51 121 52 122 60 123 53 124 54 125 58 126
REMARK SMILES IDX 61 127 55 128 56 129 59 130 57 131
REMARK H PARENT 17 2 17 3 16 5 16 6 15 10 12 12 12 13 11 15 11 16 10 18 10 19
REMARK H PARENT 3 25 1 32 1 33 1 34 5 36 5 37 5 38 18 40 18 41 19 43 19 44
REMARK H PARENT 20 46 20 47 21 49 21 50 22 53 26 59 87 61 27 63 86 64 85 74
REMARK H PARENT 79 76 81 78 84 80 78 81 46 90 49 92 82 95 47 96 83 98
REMARK Flexibility Score: inf
ROOT
ATOM      1  C   UNL A   1      33.283  26.780  25.996  1.00  0.00    -0.036 C 
ATOM      2  H   UNL A   1      33.467  27.045  24.976  1.00  0.00     0.028 H 
ATOM      3  H   UNL A   1      33.989  27.229  26.662  1.00  0.00     0.028 H 
ENDROOT
BRANCH   1   4
ATOM      4  C   UNL A   1      33.425  25.265  26.139  1.00  0.00     0.017 C 
ATOM      5  H   UNL A   1      33.505  25.013  27.176  1.00  0.00     0.049 H 
ATOM      6  H   UNL A   1      32.564  24.792  25.713  1.00  0.00     0.049 H 
BRANCH   4   7
ATOM      7  N   UNL A   1      34.605  24.804  25.446  1.00  0.00    -0.356 N 
ATOM      8  C   UNL A   1      34.910  23.589  24.924  1.00  0.00     0.220 C 
ATOM      9  O   UNL A   1      36.050  23.429  24.483  1.00  0.00    -0.275 OA
ATOM     10  H   UNL A   1      35.306  25.486  25.333  1.00  0.00     0.163 HD
BRANCH   8  11
ATOM     11  C   UNL A   1      33.864  22.500  24.768  1.00  0.00     0.028 C 
ATOM     12  H   UNL A   1      34.266  21.622  25.230  1.00  0.00     0.037 H 
ATOM     13  H   UNL A   1      32.992  22.936  25.208  1.00  0.00     0.037 H 
BRANCH  11  14
ATOM     14  C   UNL A   1      33.382  22.085  23.373  1.00  0.00    -0.025 C 
ATOM     15  H   UNL A   1      34.213  21.608  22.898  1.00  0.00     0.029 H 
ATOM     16  H   UNL A   1      32.510  21.506  23.599  1.00  0.00     0.029 H 
BRANCH  14  17
ATOM     17  C   UNL A   1      32.838  23.109  22.362  1.00  0.00     0.037 C 
ATOM     18  H   UNL A   1      33.647  23.340  21.700  1.00  0.00     0.051 H 
ATOM     19  H   UNL A   1      31.979  22.609  21.964  1.00  0.00     0.051 H 
BRANCH  17  20
ATOM     20  N   UNL A   1      32.285  24.387  22.799  1.00  0.00    -0.262 N 
ATOM     21  C   UNL A   1      29.872  28.432  22.957  1.00  0.00     0.039 A 
ATOM     22  C   UNL A   1      31.144  28.963  22.703  1.00  0.00    -0.037 A 
ATOM     23  N   UNL A   1      29.661  27.111  23.160  1.00  0.00    -0.241 NA
ATOM     24  C   UNL A   1      32.259  28.109  22.611  1.00  0.00    -0.033 A 
ATOM     25  H   UNL A   1      31.264  29.981  22.583  1.00  0.00     0.064 H 
ATOM     26  C   UNL A   1      30.744  26.323  23.059  1.00  0.00     0.146 A 
ATOM     27  C   UNL A   1      32.017  26.746  22.730  1.00  0.00     0.081 A 
ATOM     28  S   UNL A   1      30.698  24.591  23.401  1.00  0.00    -0.035 S 
ATOM     29  C   UNL A   1      32.923  25.596  22.500  1.00  0.00     0.270 A 
ATOM     30  O   UNL A   1      34.038  25.723  22.014  1.00  0.00    -0.268 OA
BRANCH  21  31
ATOM     31  C   UNL A   1      28.658  29.310  22.982  1.00  0.00    -0.022 C 
ATOM     32  H   UNL A   1      28.693  29.943  23.844  1.00  0.00     0.030 H 
ATOM     33  H   UNL A   1      27.778  28.702  23.021  1.00  0.00     0.030 H 
ATOM     34  H   UNL A   1      28.635  29.913  22.099  1.00  0.00     0.030 H 
ENDBRANCH  21  31
BRANCH  24  35
ATOM     35  C   UNL A   1      33.637  28.664  22.430  1.00  0.00    -0.039 C 
ATOM     36  H   UNL A   1      33.580  29.724  22.300  1.00  0.00     0.028 H 
ATOM     37  H   UNL A   1      34.089  28.222  21.567  1.00  0.00     0.028 H 
ATOM     38  H   UNL A   1      34.226  28.442  23.295  1.00  0.00     0.028 H 
ENDBRANCH  24  35
ENDBRANCH  17  20
ENDBRANCH  14  17
ENDBRANCH  11  14
ENDBRANCH   8  11
ENDBRANCH   4   7
ENDBRANCH   1   4
BRANCH   1  39
ATOM     39  C   UNL A   1      31.896  27.297  26.390  1.00  0.00    -0.052 C 
ATOM     40  H   UNL A   1      31.334  26.473  26.777  1.00  0.00     0.027 H 
ATOM     41  H   UNL A   1      31.474  27.723  25.504  1.00  0.00     0.027 H 
BRANCH  39  42
ATOM     42  C   UNL A   1      31.890  28.416  27.446  1.00  0.00    -0.052 C 
ATOM     43  H   UNL A   1      32.445  28.067  28.292  1.00  0.00     0.027 H 
ATOM     44  H   UNL A   1      30.858  28.613  27.645  1.00  0.00     0.027 H 
BRANCH  42  45
ATOM     45  C   UNL A   1      32.489  29.762  27.016  1.00  0.00    -0.036 C 
ATOM     46  H   UNL A   1      31.840  30.546  27.345  1.00  0.00     0.028 H 
ATOM     47  H   UNL A   1      32.584  29.742  25.949  1.00  0.00     0.028 H 
BRANCH  45  48
ATOM     48  C   UNL A   1      33.873  30.010  27.586  1.00  0.00     0.018 C 
ATOM     49  H   UNL A   1      34.585  29.456  27.009  1.00  0.00     0.049 H 
ATOM     50  H   UNL A   1      33.863  29.697  28.609  1.00  0.00     0.049 H 
BRANCH  48  51
ATOM     51  N   UNL A   1      34.251  31.426  27.560  1.00  0.00    -0.352 N 
ATOM     52  C   UNL A   1      35.415  32.029  28.007  1.00  0.00     0.251 C 
ATOM     53  H   UNL A   1      33.582  32.035  27.169  1.00  0.00     0.163 HD
ATOM     54  O   UNL A   1      35.469  33.228  28.212  1.00  0.00    -0.269 OA
BRANCH  52  55
ATOM     55  C   UNL A   1      36.599  31.181  28.224  1.00  0.00     0.039 A 
ATOM     56  C   UNL A   1      36.760  29.944  27.596  1.00  0.00    -0.049 A 
ATOM     57  C   UNL A   1      37.574  31.668  29.084  1.00  0.00    -0.049 A 
ATOM     58  C   UNL A   1      37.937  29.235  27.825  1.00  0.00    -0.053 A 
ATOM     59  H   UNL A   1      36.026  29.565  26.978  1.00  0.00     0.063 H 
ATOM     60  C   UNL A   1      38.817  31.114  29.087  1.00  0.00    -0.053 A 
ATOM     61  H   UNL A   1      37.356  32.451  29.721  1.00  0.00     0.063 H 
ATOM     62  C   UNL A   1      38.956  29.837  28.579  1.00  0.00    -0.014 A 
ATOM     63  H   UNL A   1      38.057  28.282  27.447  1.00  0.00     0.063 H 
ATOM     64  H   UNL A   1      39.629  31.632  29.458  1.00  0.00     0.063 H 
BRANCH  62  65
ATOM     65  C   UNL A   1      40.211  29.167  28.868  1.00  0.00     0.031 A 
ATOM     66  C   UNL A   1      40.455  28.917  30.308  1.00  0.00     0.074 A 
ATOM     67  C   UNL A   1      40.971  28.632  27.886  1.00  0.00     0.049 A 
ATOM     68  N   UNL A   1      41.373  29.434  31.053  1.00  0.00    -0.248 NA
ATOM     69  C   UNL A   1      39.477  28.098  31.040  1.00  0.00    -0.034 C 
ATOM     70  C   UNL A   1      40.680  28.513  26.448  1.00  0.00    -0.036 A 
ATOM     71  N   UNL A   1      42.162  27.991  27.995  1.00  0.00    -0.354 N 
ATOM     72  C   UNL A   1      41.198  28.879  32.318  1.00  0.00     0.074 A 
ATOM     73  C   UNL A   1      39.929  28.200  32.291  1.00  0.00    -0.034 C 
ATOM     74  H   UNL A   1      38.658  27.583  30.682  1.00  0.00     0.065 H 
ATOM     75  C   UNL A   1      41.553  27.658  25.871  1.00  0.00    -0.036 A 
ATOM     76  H   UNL A   1      39.922  29.009  25.953  1.00  0.00     0.065 H 
ATOM     77  C   UNL A   1      42.571  27.325  26.846  1.00  0.00     0.049 A 
ATOM     78  H   UNL A   1      42.695  27.998  28.823  1.00  0.00     0.167 HD
ATOM     79  C   UNL A   1      42.221  28.845  33.214  1.00  0.00     0.037 A 
ATOM     80  H   UNL A   1      39.437  27.841  33.125  1.00  0.00     0.065 H 
ATOM     81  H   UNL A   1      41.504  27.304  24.903  1.00  0.00     0.065 H 
ATOM     82  C   UNL A   1      43.670  26.544  26.726  1.00  0.00     0.037 A 
ATOM     83  C   UNL A   1      43.279  29.740  32.819  1.00  0.00     0.049 A 
ATOM     84  C   UNL A   1      44.578  26.921  27.837  1.00  0.00     0.074 A 
ATOM     85  C   UNL A   1      43.413  31.109  32.719  1.00  0.00    -0.036 A 
ATOM     86  N   UNL A   1      44.294  29.202  32.070  1.00  0.00    -0.354 N 
ATOM     87  N   UNL A   1      45.148  28.089  27.948  1.00  0.00    -0.248 NA
ATOM     88  C   UNL A   1      44.502  26.143  29.061  1.00  0.00    -0.034 C 
ATOM     89  C   UNL A   1      44.232  31.321  31.568  1.00  0.00    -0.036 A 
ATOM     90  H   UNL A   1      43.010  31.826  33.342  1.00  0.00     0.065 H 
ATOM     91  C   UNL A   1      44.605  30.076  31.059  1.00  0.00     0.049 A 
ATOM     92  H   UNL A   1      44.729  28.333  32.230  1.00  0.00     0.167 HD
ATOM     93  C   UNL A   1      45.124  28.370  29.307  1.00  0.00     0.074 A 
ATOM     94  C   UNL A   1      44.814  27.093  29.946  1.00  0.00    -0.034 C 
ATOM     95  H   UNL A   1      44.274  25.147  29.205  1.00  0.00     0.065 H 
ATOM     96  H   UNL A   1      44.502  32.239  31.180  1.00  0.00     0.065 H 
ATOM     97  C   UNL A   1      45.077  29.660  29.753  1.00  0.00     0.037 A 
ATOM     98  H   UNL A   1      44.835  26.943  30.967  1.00  0.00     0.065 H 
BRANCH  79  99
ATOM     99  C   UNL A   1      42.427  27.759  34.242  1.00  0.00     0.064 A 
ATOM    100  C   UNL A   1      43.048  26.553  33.858  1.00  0.00     0.173 A 
ATOM    101  C   UNL A   1      41.799  27.740  35.507  1.00  0.00     0.173 A 
ATOM    102  F   UNL A   1      43.653  26.445  32.666  1.00  0.00    -0.203 F 
ATOM    103  C   UNL A   1      42.992  25.405  34.655  1.00  0.00     0.198 A 
ATOM    104  C   UNL A   1      41.792  26.610  36.322  1.00  0.00     0.198 A 
ATOM    105  F   UNL A   1      41.074  28.771  35.958  1.00  0.00    -0.203 F 
ATOM    106  F   UNL A   1      43.498  24.252  34.197  1.00  0.00    -0.200 F 
ATOM    107  C   UNL A   1      42.362  25.434  35.886  1.00  0.00     0.200 A 
ATOM    108  F   UNL A   1      41.158  26.653  37.502  1.00  0.00    -0.200 F 
ATOM    109  F   UNL A   1      42.262  24.324  36.628  1.00  0.00    -0.200 F 
ENDBRANCH  79  99
BRANCH  82 110
ATOM    110  C   UNL A   1      43.804  25.257  26.000  1.00  0.00     0.064 A 
ATOM    111  C   UNL A   1      44.910  25.019  25.168  1.00  0.00     0.173 A 
ATOM    112  C   UNL A   1      43.033  24.134  26.358  1.00  0.00     0.173 A 
ATOM    113  F   UNL A   1      45.716  26.031  24.815  1.00  0.00    -0.203 F 
ATOM    114  C   UNL A   1      45.255  23.726  24.759  1.00  0.00     0.198 A 
ATOM    115  C   UNL A   1      43.377  22.844  25.946  1.00  0.00     0.198 A 
ATOM    116  F   UNL A   1      41.995  24.252  27.198  1.00  0.00    -0.203 F 
ATOM    117  F   UNL A   1      46.362  23.529  24.029  1.00  0.00    -0.200 F 
ATOM    118  C   UNL A   1      44.497  22.638  25.162  1.00  0.00     0.200 A 
ATOM    119  F   UNL A   1      42.658  21.796  26.373  1.00  0.00    -0.200 F 
ATOM    120  F   UNL A   1      44.871  21.394  24.835  1.00  0.00    -0.200 F 
ENDBRANCH  82 110
BRANCH  97 121
ATOM    121  C   UNL A   1      45.347  30.750  28.747  1.00  0.00     0.064 A 
ATOM    122  C   UNL A   1      44.356  31.382  27.974  1.00  0.00     0.173 A 
ATOM    123  C   UNL A   1      46.646  31.266  28.658  1.00  0.00     0.173 A 
ATOM    124  F   UNL A   1      43.073  31.015  28.061  1.00  0.00    -0.203 F 
ATOM    125  C   UNL A   1      44.660  32.450  27.128  1.00  0.00     0.198 A 
ATOM    126  C   UNL A   1      46.943  32.356  27.842  1.00  0.00     0.198 A 
ATOM    127  F   UNL A   1      47.629  30.739  29.406  1.00  0.00    -0.203 F 
ATOM    128  F   UNL A   1      43.696  33.025  26.394  1.00  0.00    -0.200 F 
ATOM    129  C   UNL A   1      45.952  32.941  27.071  1.00  0.00     0.200 A 
ATOM    130  F   UNL A   1      48.186  32.856  27.826  1.00  0.00    -0.200 F 
ATOM    131  F   UNL A   1      46.239  33.995  26.292  1.00  0.00    -0.200 F 
ENDBRANCH  97 121
ENDBRANCH  62  65
ENDBRANCH  52  55
ENDBRANCH  48  51
ENDBRANCH  45  48
ENDBRANCH  42  45
ENDBRANCH  39  42
ENDBRANCH   1  39
TORSDOF 18
ENDMDL
MODEL 10
REMARK VINA RESULT:     -11.3      3.544      5.368
REMARK SMILES Cc1cc(C)c2c(=O)n(CCCC(=O)NCCCCCCNC(=O)c3ccc(-c4c5nc(c(-c6c(F)c(F)c(F)c(F)c6F)c6ccc([nH]6)c(-c6c(F)c(F)c(F)c(F)c6F)c6nc(c(-c7c(F)c(F)c(F)c(F)c7F)c7ccc4[nH]7)C=C6)C=C5)cc3)sc2n1
REMARK SMILES IDX 17 1 16 4 15 7 13 8 14 9 12 11 11 14 10 17 9 20 2 21 3 22
REMARK SMILES IDX 90 23 4 24 89 26 6 27 88 28 7 29 8 30 1 31 5 35 18 39 19 42
REMARK SMILES IDX 20 45 21 48 22 51 23 52 24 54 25 55 26 56 87 57 27 58 86 60
REMARK SMILES IDX 28 62 29 65 30 66 80 67 31 68 85 69 79 70 81 71 32 72 84 73
REMARK SMILES IDX 78 75 77 77 33 79 65 82 45 83 64 84 46 85 49 86 63 87 82 88
REMARK SMILES IDX 47 89 48 91 62 93 83 94 50 97 34 99 35 100 43 101 36 102
REMARK SMILES IDX 37 103 41 104 44 105 38 106 39 107 42 108 40 109 66 110
REMARK SMILES IDX 67 111 75 112 68 113 69 114 73 115 76 116 70 117 71 118
REMARK SMILES IDX 74 119 72 120 51 121 52 122 60 123 53 124 54 125 58 126
REMARK SMILES IDX 61 127 55 128 56 129 59 130 57 131
REMARK H PARENT 17 2 17 3 16 5 16 6 15 10 12 12 12 13 11 15 11 16 10 18 10 19
REMARK H PARENT 3 25 1 32 1 33 1 34 5 36 5 37 5 38 18 40 18 41 19 43 19 44
REMARK H PARENT 20 46 20 47 21 49 21 50 22 53 26 59 87 61 27 63 86 64 85 74
REMARK H PARENT 79 76 81 78 84 80 78 81 46 90 49 92 82 95 47 96 83 98
REMARK Flexibility Score: inf
ROOT
ATOM      1  C   UNL A   1      46.019  19.447  25.205  1.00  0.00    -0.036 C 
ATOM      2  H   UNL A   1      46.719  18.906  24.603  1.00  0.00     0.028 H 
ATOM      3  H   UNL A   1      46.238  19.364  26.249  1.00  0.00     0.028 H 
ENDROOT
BRANCH   1   4
ATOM      4  C   UNL A   1      44.628  18.853  24.986  1.00  0.00     0.017 C 
ATOM      5  H   UNL A   1      44.037  19.538  24.413  1.00  0.00     0.049 H 
ATOM      6  H   UNL A   1      44.723  17.925  24.461  1.00  0.00     0.049 H 
BRANCH   4   7
ATOM      7  N   UNL A   1      43.980  18.612  26.253  1.00  0.00    -0.356 N 
ATOM      8  C   UNL A   1      42.701  18.828  26.651  1.00  0.00     0.220 C 
ATOM      9  O   UNL A   1      42.435  18.641  27.840  1.00  0.00    -0.275 OA
ATOM     10  H   UNL A   1      44.564  18.225  26.945  1.00  0.00     0.163 HD
BRANCH   8  11
ATOM     11  C   UNL A   1      41.601  19.166  25.661  1.00  0.00     0.028 C 
ATOM     12  H   UNL A   1      41.955  19.992  25.080  1.00  0.00     0.037 H 
ATOM     13  H   UNL A   1      41.437  18.238  25.155  1.00  0.00     0.037 H 
BRANCH  11  14
ATOM     14  C   UNL A   1      40.201  19.544  26.159  1.00  0.00    -0.025 C 
ATOM     15  H   UNL A   1      40.100  19.105  27.130  1.00  0.00     0.029 H 
ATOM     16  H   UNL A   1      40.210  20.610  26.071  1.00  0.00     0.029 H 
BRANCH  14  17
ATOM     17  C   UNL A   1      38.930  19.165  25.380  1.00  0.00     0.037 C 
ATOM     18  H   UNL A   1      39.255  18.811  24.424  1.00  0.00     0.051 H 
ATOM     19  H   UNL A   1      38.448  18.477  26.043  1.00  0.00     0.051 H 
BRANCH  17  20
ATOM     20  N   UNL A   1      37.879  20.144  25.122  1.00  0.00    -0.262 N 
ATOM     21  C   UNL A   1      34.382  23.252  25.689  1.00  0.00     0.039 A 
ATOM     22  C   UNL A   1      33.622  22.173  25.218  1.00  0.00    -0.037 A 
ATOM     23  N   UNL A   1      35.732  23.209  25.777  1.00  0.00    -0.241 NA
ATOM     24  C   UNL A   1      34.255  20.971  24.852  1.00  0.00    -0.033 A 
ATOM     25  H   UNL A   1      32.596  22.259  25.141  1.00  0.00     0.064 H 
ATOM     26  C   UNL A   1      36.304  22.047  25.424  1.00  0.00     0.146 A 
ATOM     27  C   UNL A   1      35.631  20.907  25.031  1.00  0.00     0.081 A 
ATOM     28  S   UNL A   1      38.056  21.828  25.360  1.00  0.00    -0.035 S 
ATOM     29  C   UNL A   1      36.551  19.751  24.921  1.00  0.00     0.270 A 
ATOM     30  O   UNL A   1      36.152  18.603  24.776  1.00  0.00    -0.268 OA
BRANCH  21  31
ATOM     31  C   UNL A   1      33.725  24.515  26.160  1.00  0.00    -0.022 C 
ATOM     32  H   UNL A   1      34.370  25.016  26.851  1.00  0.00     0.030 H 
ATOM     33  H   UNL A   1      32.800  24.277  26.642  1.00  0.00     0.030 H 
ATOM     34  H   UNL A   1      33.537  25.153  25.322  1.00  0.00     0.030 H 
ENDBRANCH  21  31
BRANCH  24  35
ATOM     35  C   UNL A   1      33.471  19.840  24.263  1.00  0.00    -0.039 C 
ATOM     36  H   UNL A   1      33.663  18.947  24.818  1.00  0.00     0.028 H 
ATOM     37  H   UNL A   1      33.762  19.698  23.243  1.00  0.00     0.028 H 
ATOM     38  H   UNL A   1      32.427  20.070  24.308  1.00  0.00     0.028 H 
ENDBRANCH  24  35
ENDBRANCH  17  20
ENDBRANCH  14  17
ENDBRANCH  11  14
ENDBRANCH   8  11
ENDBRANCH   4   7
ENDBRANCH   1   4
BRANCH   1  39
ATOM     39  C   UNL A   1      46.107  20.931  24.838  1.00  0.00    -0.052 C 
ATOM     40  H   UNL A   1      46.753  21.025  23.991  1.00  0.00     0.027 H 
ATOM     41  H   UNL A   1      46.470  21.432  25.711  1.00  0.00     0.027 H 
BRANCH  39  42
ATOM     42  C   UNL A   1      44.765  21.600  24.490  1.00  0.00    -0.052 C 
ATOM     43  H   UNL A   1      43.983  20.976  24.870  1.00  0.00     0.027 H 
ATOM     44  H   UNL A   1      44.769  21.706  23.425  1.00  0.00     0.027 H 
BRANCH  42  45
ATOM     45  C   UNL A   1      44.547  23.015  25.042  1.00  0.00    -0.036 C 
ATOM     46  H   UNL A   1      45.138  23.700  24.470  1.00  0.00     0.028 H 
ATOM     47  H   UNL A   1      44.833  23.003  26.073  1.00  0.00     0.028 H 
BRANCH  45  48
ATOM     48  C   UNL A   1      43.098  23.463  24.983  1.00  0.00     0.018 C 
ATOM     49  H   UNL A   1      42.774  23.436  23.963  1.00  0.00     0.049 H 
ATOM     50  H   UNL A   1      43.048  24.452  25.388  1.00  0.00     0.049 H 
BRANCH  48  51
ATOM     51  N   UNL A   1      42.210  22.612  25.779  1.00  0.00    -0.352 N 
ATOM     52  C   UNL A   1      41.522  22.913  26.943  1.00  0.00     0.251 C 
ATOM     53  H   UNL A   1      42.084  21.697  25.439  1.00  0.00     0.163 HD
ATOM     54  O   UNL A   1      41.078  22.037  27.662  1.00  0.00    -0.269 OA
BRANCH  52  55
ATOM     55  C   UNL A   1      41.329  24.332  27.291  1.00  0.00     0.039 A 
ATOM     56  C   UNL A   1      40.308  25.107  26.736  1.00  0.00    -0.049 A 
ATOM     57  C   UNL A   1      42.209  24.879  28.215  1.00  0.00    -0.049 A 
ATOM     58  C   UNL A   1      40.176  26.427  27.163  1.00  0.00    -0.053 A 
ATOM     59  H   UNL A   1      39.670  24.713  26.028  1.00  0.00     0.063 H 
ATOM     60  C   UNL A   1      41.911  26.060  28.822  1.00  0.00    -0.053 A 
ATOM     61  H   UNL A   1      43.090  24.391  28.440  1.00  0.00     0.063 H 
ATOM     62  C   UNL A   1      40.991  26.887  28.208  1.00  0.00    -0.014 A 
ATOM     63  H   UNL A   1      39.489  27.056  26.717  1.00  0.00     0.063 H 
ATOM     64  H   UNL A   1      42.358  26.327  29.713  1.00  0.00     0.063 H 
BRANCH  62  65
ATOM     65  C   UNL A   1      40.920  28.248  28.710  1.00  0.00     0.031 A 
ATOM     66  C   UNL A   1      41.985  29.145  28.204  1.00  0.00     0.074 A 
ATOM     67  C   UNL A   1      39.846  28.693  29.401  1.00  0.00     0.049 A 
ATOM     68  N   UNL A   1      42.937  29.696  28.878  1.00  0.00    -0.248 NA
ATOM     69  C   UNL A   1      42.085  29.343  26.751  1.00  0.00    -0.034 C 
ATOM     70  C   UNL A   1      38.573  28.007  29.682  1.00  0.00    -0.036 A 
ATOM     71  N   UNL A   1      39.638  29.921  29.940  1.00  0.00    -0.354 N 
ATOM     72  C   UNL A   1      43.665  30.452  27.964  1.00  0.00     0.074 A 
ATOM     73  C   UNL A   1      43.201  30.068  26.657  1.00  0.00    -0.034 C 
ATOM     74  H   UNL A   1      41.460  29.008  26.001  1.00  0.00     0.065 H 
ATOM     75  C   UNL A   1      37.662  28.896  30.136  1.00  0.00    -0.036 A 
ATOM     76  H   UNL A   1      38.402  26.998  29.550  1.00  0.00     0.065 H 
ATOM     77  C   UNL A   1      38.335  30.158  30.361  1.00  0.00     0.049 A 
ATOM     78  H   UNL A   1      40.354  30.591  30.026  1.00  0.00     0.167 HD
ATOM     79  C   UNL A   1      44.441  31.492  28.377  1.00  0.00     0.037 A 
ATOM     80  H   UNL A   1      43.667  30.320  25.771  1.00  0.00     0.065 H 
ATOM     81  H   UNL A   1      36.661  28.707  30.296  1.00  0.00     0.065 H 
ATOM     82  C   UNL A   1      37.855  31.327  30.847  1.00  0.00     0.037 A 
ATOM     83  C   UNL A   1      44.666  31.431  29.799  1.00  0.00     0.049 A 
ATOM     84  C   UNL A   1      39.032  32.110  31.299  1.00  0.00     0.074 A 
ATOM     85  C   UNL A   1      45.354  30.583  30.643  1.00  0.00    -0.036 A 
ATOM     86  N   UNL A   1      43.796  32.134  30.593  1.00  0.00    -0.354 N 
ATOM     87  N   UNL A   1      39.804  31.759  32.290  1.00  0.00    -0.248 NA
ATOM     88  C   UNL A   1      39.608  33.059  30.362  1.00  0.00    -0.034 C 
ATOM     89  C   UNL A   1      44.561  30.511  31.828  1.00  0.00    -0.036 A 
ATOM     90  H   UNL A   1      46.250  30.105  30.458  1.00  0.00     0.065 H 
ATOM     91  C   UNL A   1      43.462  31.359  31.674  1.00  0.00     0.049 A 
ATOM     92  H   UNL A   1      43.466  33.045  30.417  1.00  0.00     0.167 HD
ATOM     93  C   UNL A   1      41.086  32.104  31.882  1.00  0.00     0.074 A 
ATOM     94  C   UNL A   1      40.887  32.994  30.740  1.00  0.00    -0.034 C 
ATOM     95  H   UNL A   1      39.160  33.620  29.621  1.00  0.00     0.065 H 
ATOM     96  H   UNL A   1      44.765  29.930  32.657  1.00  0.00     0.065 H 
ATOM     97  C   UNL A   1      42.173  31.412  32.333  1.00  0.00     0.037 A 
ATOM     98  H   UNL A   1      41.650  33.514  30.279  1.00  0.00     0.065 H 
BRANCH  79  99
ATOM     99  C   UNL A   1      44.697  32.744  27.576  1.00  0.00     0.064 A 
ATOM    100  C   UNL A   1      45.895  32.864  26.844  1.00  0.00     0.173 A 
ATOM    101  C   UNL A   1      43.954  33.937  27.717  1.00  0.00     0.173 A 
ATOM    102  F   UNL A   1      46.697  31.803  26.667  1.00  0.00    -0.203 F 
ATOM    103  C   UNL A   1      46.339  34.092  26.343  1.00  0.00     0.198 A 
ATOM    104  C   UNL A   1      44.372  35.149  27.171  1.00  0.00     0.198 A 
ATOM    105  F   UNL A   1      42.855  34.006  28.479  1.00  0.00    -0.203 F 
ATOM    106  F   UNL A   1      47.539  34.176  25.753  1.00  0.00    -0.200 F 
ATOM    107  C   UNL A   1      45.577  35.235  26.510  1.00  0.00     0.200 A 
ATOM    108  F   UNL A   1      43.629  36.248  27.361  1.00  0.00    -0.200 F 
ATOM    109  F   UNL A   1      46.023  36.421  26.077  1.00  0.00    -0.200 F 
ENDBRANCH  79  99
BRANCH  82 110
ATOM    110  C   UNL A   1      36.543  31.962  30.574  1.00  0.00     0.064 A 
ATOM    111  C   UNL A   1      35.714  32.369  31.631  1.00  0.00     0.173 A 
ATOM    112  C   UNL A   1      36.229  32.469  29.298  1.00  0.00     0.173 A 
ATOM    113  F   UNL A   1      35.970  31.961  32.883  1.00  0.00    -0.203 F 
ATOM    114  C   UNL A   1      34.662  33.271  31.434  1.00  0.00     0.198 A 
ATOM    115  C   UNL A   1      35.177  33.366  29.101  1.00  0.00     0.198 A 
ATOM    116  F   UNL A   1      36.999  32.186  28.237  1.00  0.00    -0.203 F 
ATOM    117  F   UNL A   1      33.941  33.697  32.480  1.00  0.00    -0.200 F 
ATOM    118  C   UNL A   1      34.406  33.781  30.171  1.00  0.00     0.200 A 
ATOM    119  F   UNL A   1      34.962  33.882  27.883  1.00  0.00    -0.200 F 
ATOM    120  F   UNL A   1      33.449  34.703  29.994  1.00  0.00    -0.200 F 
ENDBRANCH  82 110
BRANCH  97 121
ATOM    121  C   UNL A   1      41.961  30.470  33.492  1.00  0.00     0.064 A 
ATOM    122  C   UNL A   1      41.662  29.102  33.362  1.00  0.00     0.173 A 
ATOM    123  C   UNL A   1      42.201  30.947  34.788  1.00  0.00     0.173 A 
ATOM    124  F   UNL A   1      41.505  28.541  32.159  1.00  0.00    -0.203 F 
ATOM    125  C   UNL A   1      41.571  28.264  34.476  1.00  0.00     0.198 A 
ATOM    126  C   UNL A   1      42.147  30.104  35.896  1.00  0.00     0.198 A 
ATOM    127  F   UNL A   1      42.538  32.233  34.976  1.00  0.00    -0.203 F 
ATOM    128  F   UNL A   1      41.272  26.966  34.321  1.00  0.00    -0.200 F 
ATOM    129  C   UNL A   1      41.823  28.766  35.741  1.00  0.00     0.200 A 
ATOM    130  F   UNL A   1      42.437  30.585  37.112  1.00  0.00    -0.200 F 
ATOM    131  F   UNL A   1      41.779  27.955  36.808  1.00  0.00    -0.200 F 
ENDBRANCH  97 121
ENDBRANCH  62  65
ENDBRANCH  52  55
ENDBRANCH  48  51
ENDBRANCH  45  48
ENDBRANCH  42  45
ENDBRANCH  39  42
ENDBRANCH   1  39
TORSDOF 18
ENDMDL
