MODEL 1
REMARK VINA RESULT:     -12.3      0.000      0.000
REMARK SMILES CCc1cc(/C=C/C(=O)NCCCCCCNC(=O)c2ccc(-c3c4nc(c(-c5c(F)c(F)c(F)c(F)c5F)c5ccc([nH]5)c(-c5c(F)c(F)c(F)c(F)c5F)c5nc(c(-c6c(F)c(F)c(F)c(F)c6F)c6ccc3[nH]6)C=C5)C=C4)cc2)cc(C(=O)c2ccccc2)c1
REMARK SMILES IDX 13 1 12 4 11 7 10 10 8 11 9 12 7 14 6 15 5 18 3 19 4 20
REMARK SMILES IDX 93 21 84 23 83 25 2 27 1 30 85 34 86 35 87 36 88 37 92 38
REMARK SMILES IDX 89 39 91 41 90 43 14 47 15 50 16 53 17 56 18 57 19 59 20 60
REMARK SMILES IDX 21 61 82 62 22 63 81 65 23 67 24 70 25 71 75 72 26 73 80 74
REMARK SMILES IDX 74 75 76 76 27 77 79 78 73 80 72 82 28 84 60 87 40 88 59 89
REMARK SMILES IDX 41 90 44 91 58 92 77 93 42 94 43 96 57 98 78 99 45 102
REMARK SMILES IDX 29 104 30 105 38 106 31 107 32 108 36 109 39 110 33 111
REMARK SMILES IDX 34 112 37 113 35 114 61 115 62 116 70 117 63 118 64 119
REMARK SMILES IDX 68 120 71 121 65 122 66 123 69 124 67 125 46 126 47 127
REMARK SMILES IDX 55 128 48 129 49 130 53 131 56 132 50 133 51 134 54 135
REMARK SMILES IDX 52 136
REMARK H PARENT 13 2 13 3 12 5 12 6 11 8 11 9 10 13 6 16 7 17 4 22 93 24 83 26
REMARK H PARENT 2 28 2 29 1 31 1 32 1 33 88 40 92 42 89 44 91 45 90 46 14 48
REMARK H PARENT 14 49 15 51 15 52 16 54 16 55 17 58 21 64 82 66 22 68 81 69
REMARK H PARENT 80 79 74 81 76 83 79 85 73 86 41 95 44 97 77 100 42 101 78 103
REMARK Flexibility Score: inf
ROOT
ATOM      1  C   UNL A   1      32.952  28.481  22.900  1.00  0.00    -0.052 C 
ATOM      2  H   UNL A   1      32.942  29.520  22.643  1.00  0.00     0.027 H 
ATOM      3  H   UNL A   1      33.225  27.850  22.081  1.00  0.00     0.027 H 
ENDROOT
BRANCH   1   4
ATOM      4  C   UNL A   1      31.530  28.075  23.310  1.00  0.00    -0.036 C 
ATOM      5  H   UNL A   1      31.498  27.971  24.375  1.00  0.00     0.028 H 
ATOM      6  H   UNL A   1      30.867  28.840  22.964  1.00  0.00     0.028 H 
BRANCH   4   7
ATOM      7  C   UNL A   1      31.080  26.757  22.679  1.00  0.00     0.018 C 
ATOM      8  H   UNL A   1      31.332  25.947  23.332  1.00  0.00     0.049 H 
ATOM      9  H   UNL A   1      30.021  26.783  22.526  1.00  0.00     0.049 H 
BRANCH   7  10
ATOM     10  N   UNL A   1      31.740  26.568  21.402  1.00  0.00    -0.353 N 
ATOM     11  C   UNL A   1      32.598  25.618  20.959  1.00  0.00     0.243 C 
ATOM     12  O   UNL A   1      33.005  25.676  19.800  1.00  0.00    -0.270 OA
ATOM     13  H   UNL A   1      31.524  27.258  20.734  1.00  0.00     0.163 HD
BRANCH  11  14
ATOM     14  C   UNL A   1      33.005  24.466  21.796  1.00  0.00     0.003 C 
ATOM     15  C   UNL A   1      34.059  24.410  22.622  1.00  0.00    -0.049 C 
ATOM     16  H   UNL A   1      34.624  25.267  22.732  1.00  0.00     0.063 H 
ATOM     17  H   UNL A   1      32.416  23.620  21.739  1.00  0.00     0.068 H 
BRANCH  15  18
ATOM     18  C   UNL A   1      34.473  23.223  23.381  1.00  0.00    -0.024 A 
ATOM     19  C   UNL A   1      36.093  22.048  24.775  1.00  0.00    -0.047 A 
ATOM     20  C   UNL A   1      35.763  23.095  23.902  1.00  0.00    -0.052 A 
ATOM     21  C   UNL A   1      35.124  21.086  25.088  1.00  0.00    -0.048 A 
ATOM     22  H   UNL A   1      36.487  23.784  23.640  1.00  0.00     0.063 H 
ATOM     23  C   UNL A   1      33.827  21.197  24.571  1.00  0.00     0.023 A 
ATOM     24  H   UNL A   1      35.368  20.293  25.701  1.00  0.00     0.063 H 
ATOM     25  C   UNL A   1      33.512  22.259  23.712  1.00  0.00    -0.044 A 
ATOM     26  H   UNL A   1      32.561  22.333  23.320  1.00  0.00     0.064 H 
BRANCH  19  27
ATOM     27  C   UNL A   1      37.452  22.024  25.429  1.00  0.00    -0.031 C 
ATOM     28  H   UNL A   1      37.434  21.335  26.249  1.00  0.00     0.031 H 
ATOM     29  H   UNL A   1      38.176  21.719  24.701  1.00  0.00     0.031 H 
BRANCH  27  30
ATOM     30  C   UNL A   1      37.834  23.407  25.946  1.00  0.00    -0.061 C 
ATOM     31  H   UNL A   1      38.894  23.456  26.086  1.00  0.00     0.023 H 
ATOM     32  H   UNL A   1      37.342  23.588  26.878  1.00  0.00     0.023 H 
ATOM     33  H   UNL A   1      37.534  24.148  25.235  1.00  0.00     0.023 H 
ENDBRANCH  27  30
ENDBRANCH  19  27
BRANCH  23  34
ATOM     34  C   UNL A   1      32.747  20.226  24.907  1.00  0.00     0.193 C 
ATOM     35  O   UNL A   1      31.659  20.631  25.310  1.00  0.00    -0.289 OA
BRANCH  34  36
ATOM     36  C   UNL A   1      32.945  18.768  24.755  1.00  0.00     0.022 A 
ATOM     37  C   UNL A   1      33.442  18.286  23.541  1.00  0.00    -0.051 A 
ATOM     38  C   UNL A   1      32.630  17.880  25.791  1.00  0.00    -0.051 A 
ATOM     39  C   UNL A   1      33.674  16.921  23.380  1.00  0.00    -0.062 A 
ATOM     40  H   UNL A   1      33.634  18.939  22.764  1.00  0.00     0.063 H 
ATOM     41  C   UNL A   1      32.865  16.514  25.625  1.00  0.00    -0.062 A 
ATOM     42  H   UNL A   1      32.226  18.234  26.672  1.00  0.00     0.063 H 
ATOM     43  C   UNL A   1      33.395  16.038  24.425  1.00  0.00    -0.062 A 
ATOM     44  H   UNL A   1      34.054  16.563  22.490  1.00  0.00     0.062 H 
ATOM     45  H   UNL A   1      32.647  15.857  26.390  1.00  0.00     0.062 H 
ATOM     46  H   UNL A   1      33.582  15.029  24.309  1.00  0.00     0.062 H 
ENDBRANCH  34  36
ENDBRANCH  23  34
ENDBRANCH  15  18
ENDBRANCH  11  14
ENDBRANCH   7  10
ENDBRANCH   4   7
ENDBRANCH   1   4
BRANCH   1  47
ATOM     47  C   UNL A   1      34.014  28.268  23.987  1.00  0.00    -0.052 C 
ATOM     48  H   UNL A   1      34.366  29.228  24.303  1.00  0.00     0.027 H 
ATOM     49  H   UNL A   1      34.781  27.664  23.548  1.00  0.00     0.027 H 
BRANCH  47  50
ATOM     50  C   UNL A   1      33.518  27.510  25.220  1.00  0.00    -0.036 C 
ATOM     51  H   UNL A   1      33.748  26.472  25.094  1.00  0.00     0.028 H 
ATOM     52  H   UNL A   1      32.466  27.689  25.295  1.00  0.00     0.028 H 
BRANCH  50  53
ATOM     53  C   UNL A   1      34.144  27.986  26.525  1.00  0.00     0.018 C 
ATOM     54  H   UNL A   1      35.208  27.899  26.453  1.00  0.00     0.049 H 
ATOM     55  H   UNL A   1      33.766  27.378  27.321  1.00  0.00     0.049 H 
BRANCH  53  56
ATOM     56  N   UNL A   1      33.800  29.372  26.803  1.00  0.00    -0.352 N 
ATOM     57  C   UNL A   1      34.444  30.278  27.605  1.00  0.00     0.251 C 
ATOM     58  H   UNL A   1      32.990  29.706  26.352  1.00  0.00     0.163 HD
ATOM     59  O   UNL A   1      33.892  31.318  27.942  1.00  0.00    -0.269 OA
BRANCH  57  60
ATOM     60  C   UNL A   1      35.816  29.985  28.063  1.00  0.00     0.039 A 
ATOM     61  C   UNL A   1      36.012  29.485  29.353  1.00  0.00    -0.049 A 
ATOM     62  C   UNL A   1      36.905  30.209  27.216  1.00  0.00    -0.049 A 
ATOM     63  C   UNL A   1      37.301  29.161  29.775  1.00  0.00    -0.053 A 
ATOM     64  H   UNL A   1      35.209  29.357  29.989  1.00  0.00     0.063 H 
ATOM     65  C   UNL A   1      38.176  29.813  27.609  1.00  0.00    -0.053 A 
ATOM     66  H   UNL A   1      36.764  30.668  26.303  1.00  0.00     0.063 H 
ATOM     67  C   UNL A   1      38.388  29.293  28.895  1.00  0.00    -0.014 A 
ATOM     68  H   UNL A   1      37.457  28.820  30.737  1.00  0.00     0.063 H 
ATOM     69  H   UNL A   1      38.967  29.901  26.953  1.00  0.00     0.063 H 
BRANCH  67  70
ATOM     70  C   UNL A   1      39.762  28.910  29.300  1.00  0.00     0.031 A 
ATOM     71  C   UNL A   1      40.583  29.848  30.139  1.00  0.00     0.074 A 
ATOM     72  C   UNL A   1      40.295  27.760  28.847  1.00  0.00     0.049 A 
ATOM     73  N   UNL A   1      41.834  29.749  30.513  1.00  0.00    -0.248 NA
ATOM     74  C   UNL A   1      39.917  31.077  30.597  1.00  0.00    -0.034 C 
ATOM     75  C   UNL A   1      39.608  26.788  27.995  1.00  0.00    -0.036 A 
ATOM     76  N   UNL A   1      41.543  27.219  29.028  1.00  0.00    -0.354 N 
ATOM     77  C   UNL A   1      42.105  30.905  31.231  1.00  0.00     0.074 A 
ATOM     78  C   UNL A   1      40.909  31.718  31.194  1.00  0.00    -0.034 C 
ATOM     79  H   UNL A   1      38.932  31.365  30.482  1.00  0.00     0.065 H 
ATOM     80  C   UNL A   1      40.437  25.763  27.741  1.00  0.00    -0.036 A 
ATOM     81  H   UNL A   1      38.642  26.877  27.643  1.00  0.00     0.065 H 
ATOM     82  C   UNL A   1      41.725  26.025  28.374  1.00  0.00     0.049 A 
ATOM     83  H   UNL A   1      42.241  27.646  29.576  1.00  0.00     0.167 HD
ATOM     84  C   UNL A   1      43.242  31.246  31.881  1.00  0.00     0.037 A 
ATOM     85  H   UNL A   1      40.839  32.672  31.582  1.00  0.00     0.065 H 
ATOM     86  H   UNL A   1      40.200  24.924  27.188  1.00  0.00     0.065 H 
ATOM     87  C   UNL A   1      42.816  25.240  28.283  1.00  0.00     0.037 A 
ATOM     88  C   UNL A   1      44.421  30.423  31.927  1.00  0.00     0.049 A 
ATOM     89  C   UNL A   1      44.076  25.655  28.993  1.00  0.00     0.074 A 
ATOM     90  C   UNL A   1      45.607  30.650  32.604  1.00  0.00    -0.036 A 
ATOM     91  N   UNL A   1      44.565  29.212  31.263  1.00  0.00    -0.354 N 
ATOM     92  N   UNL A   1      44.303  26.718  29.727  1.00  0.00    -0.248 NA
ATOM     93  C   UNL A   1      45.233  24.757  28.867  1.00  0.00    -0.034 C 
ATOM     94  C   UNL A   1      46.487  29.605  32.303  1.00  0.00    -0.036 A 
ATOM     95  H   UNL A   1      45.807  31.451  33.223  1.00  0.00     0.065 H 
ATOM     96  C   UNL A   1      45.830  28.695  31.492  1.00  0.00     0.049 A 
ATOM     97  H   UNL A   1      43.870  28.785  30.710  1.00  0.00     0.167 HD
ATOM     98  C   UNL A   1      45.611  26.602  30.176  1.00  0.00     0.074 A 
ATOM     99  C   UNL A   1      46.126  25.359  29.641  1.00  0.00    -0.034 C 
ATOM    100  H   UNL A   1      45.326  23.888  28.320  1.00  0.00     0.065 H 
ATOM    101  H   UNL A   1      47.462  29.527  32.631  1.00  0.00     0.065 H 
ATOM    102  C   UNL A   1      46.321  27.447  30.963  1.00  0.00     0.037 A 
ATOM    103  H   UNL A   1      47.068  24.987  29.838  1.00  0.00     0.065 H 
BRANCH  84 104
ATOM    104  C   UNL A   1      43.266  32.570  32.593  1.00  0.00     0.064 A 
ATOM    105  C   UNL A   1      43.678  33.747  31.949  1.00  0.00     0.173 A 
ATOM    106  C   UNL A   1      42.844  32.667  33.928  1.00  0.00     0.173 A 
ATOM    107  F   UNL A   1      44.101  33.709  30.677  1.00  0.00    -0.203 F 
ATOM    108  C   UNL A   1      43.699  34.965  32.625  1.00  0.00     0.198 A 
ATOM    109  C   UNL A   1      42.833  33.893  34.589  1.00  0.00     0.198 A 
ATOM    110  F   UNL A   1      42.433  31.576  34.590  1.00  0.00    -0.203 F 
ATOM    111  F   UNL A   1      44.151  36.064  32.006  1.00  0.00    -0.200 F 
ATOM    112  C   UNL A   1      43.270  35.037  33.941  1.00  0.00     0.200 A 
ATOM    113  F   UNL A   1      42.403  33.964  35.857  1.00  0.00    -0.200 F 
ATOM    114  F   UNL A   1      43.285  36.211  34.587  1.00  0.00    -0.200 F 
ENDBRANCH  84 104
BRANCH  87 115
ATOM    115  C   UNL A   1      42.757  23.974  27.506  1.00  0.00     0.064 A 
ATOM    116  C   UNL A   1      43.092  23.951  26.145  1.00  0.00     0.173 A 
ATOM    117  C   UNL A   1      42.364  22.766  28.101  1.00  0.00     0.173 A 
ATOM    118  F   UNL A   1      43.456  25.084  25.526  1.00  0.00    -0.203 F 
ATOM    119  C   UNL A   1      43.018  22.774  25.404  1.00  0.00     0.198 A 
ATOM    120  C   UNL A   1      42.319  21.583  27.367  1.00  0.00     0.198 A 
ATOM    121  F   UNL A   1      42.037  22.733  29.401  1.00  0.00    -0.203 F 
ATOM    122  F   UNL A   1      43.299  22.790  24.095  1.00  0.00    -0.200 F 
ATOM    123  C   UNL A   1      42.637  21.590  26.017  1.00  0.00     0.200 A 
ATOM    124  F   UNL A   1      41.965  20.438  27.966  1.00  0.00    -0.200 F 
ATOM    125  F   UNL A   1      42.568  20.456  25.306  1.00  0.00    -0.200 F 
ENDBRANCH  87 115
BRANCH 102 126
ATOM    126  C   UNL A   1      47.716  27.038  31.338  1.00  0.00     0.064 A 
ATOM    127  C   UNL A   1      47.971  26.186  32.421  1.00  0.00     0.173 A 
ATOM    128  C   UNL A   1      48.807  27.461  30.563  1.00  0.00     0.173 A 
ATOM    129  F   UNL A   1      46.965  25.766  33.202  1.00  0.00    -0.203 F 
ATOM    130  C   UNL A   1      49.270  25.788  32.728  1.00  0.00     0.198 A 
ATOM    131  C   UNL A   1      50.100  27.035  30.851  1.00  0.00     0.198 A 
ATOM    132  F   UNL A   1      48.617  28.271  29.511  1.00  0.00    -0.203 F 
ATOM    133  F   UNL A   1      49.497  25.008  33.794  1.00  0.00    -0.200 F 
ATOM    134  C   UNL A   1      50.332  26.204  31.937  1.00  0.00     0.200 A 
ATOM    135  F   UNL A   1      51.122  27.424  30.076  1.00  0.00    -0.200 F 
ATOM    136  F   UNL A   1      51.579  25.807  32.225  1.00  0.00    -0.200 F 
ENDBRANCH 102 126
ENDBRANCH  67  70
ENDBRANCH  57  60
ENDBRANCH  53  56
ENDBRANCH  50  53
ENDBRANCH  47  50
ENDBRANCH   1  47
TORSDOF 18
ENDMDL
MODEL 2
REMARK VINA RESULT:     -12.3      3.394      8.424
REMARK SMILES CCc1cc(/C=C/C(=O)NCCCCCCNC(=O)c2ccc(-c3c4nc(c(-c5c(F)c(F)c(F)c(F)c5F)c5ccc([nH]5)c(-c5c(F)c(F)c(F)c(F)c5F)c5nc(c(-c6c(F)c(F)c(F)c(F)c6F)c6ccc3[nH]6)C=C5)C=C4)cc2)cc(C(=O)c2ccccc2)c1
REMARK SMILES IDX 13 1 12 4 11 7 10 10 8 11 9 12 7 14 6 15 5 18 3 19 4 20
REMARK SMILES IDX 93 21 84 23 83 25 2 27 1 30 85 34 86 35 87 36 88 37 92 38
REMARK SMILES IDX 89 39 91 41 90 43 14 47 15 50 16 53 17 56 18 57 19 59 20 60
REMARK SMILES IDX 21 61 82 62 22 63 81 65 23 67 24 70 25 71 75 72 26 73 80 74
REMARK SMILES IDX 74 75 76 76 27 77 79 78 73 80 72 82 28 84 60 87 40 88 59 89
REMARK SMILES IDX 41 90 44 91 58 92 77 93 42 94 43 96 57 98 78 99 45 102
REMARK SMILES IDX 29 104 30 105 38 106 31 107 32 108 36 109 39 110 33 111
REMARK SMILES IDX 34 112 37 113 35 114 61 115 62 116 70 117 63 118 64 119
REMARK SMILES IDX 68 120 71 121 65 122 66 123 69 124 67 125 46 126 47 127
REMARK SMILES IDX 55 128 48 129 49 130 53 131 56 132 50 133 51 134 54 135
REMARK SMILES IDX 52 136
REMARK H PARENT 13 2 13 3 12 5 12 6 11 8 11 9 10 13 6 16 7 17 4 22 93 24 83 26
REMARK H PARENT 2 28 2 29 1 31 1 32 1 33 88 40 92 42 89 44 91 45 90 46 14 48
REMARK H PARENT 14 49 15 51 15 52 16 54 16 55 17 58 21 64 82 66 22 68 81 69
REMARK H PARENT 80 79 74 81 76 83 79 85 73 86 41 95 44 97 77 100 42 101 78 103
REMARK Flexibility Score: inf
ROOT
ATOM      1  C   UNL A   1      32.527  30.023  26.941  1.00  0.00    -0.052 C 
ATOM      2  H   UNL A   1      33.055  30.704  27.576  1.00  0.00     0.027 H 
ATOM      3  H   UNL A   1      31.957  29.300  27.486  1.00  0.00     0.027 H 
ENDROOT
BRANCH   1   4
ATOM      4  C   UNL A   1      33.558  29.237  26.118  1.00  0.00    -0.036 C 
ATOM      5  H   UNL A   1      33.866  29.842  25.291  1.00  0.00     0.028 H 
ATOM      6  H   UNL A   1      34.375  29.004  26.769  1.00  0.00     0.028 H 
BRANCH   4   7
ATOM      7  C   UNL A   1      33.009  27.916  25.579  1.00  0.00     0.018 C 
ATOM      8  H   UNL A   1      33.577  27.104  25.985  1.00  0.00     0.049 H 
ATOM      9  H   UNL A   1      31.982  27.818  25.866  1.00  0.00     0.049 H 
BRANCH   7  10
ATOM     10  N   UNL A   1      33.103  27.894  24.133  1.00  0.00    -0.353 N 
ATOM     11  C   UNL A   1      33.570  26.958  23.272  1.00  0.00     0.243 C 
ATOM     12  O   UNL A   1      33.516  27.181  22.063  1.00  0.00    -0.270 OA
ATOM     13  H   UNL A   1      32.764  28.708  23.697  1.00  0.00     0.163 HD
BRANCH  11  14
ATOM     14  C   UNL A   1      34.074  25.643  23.728  1.00  0.00     0.003 C 
ATOM     15  C   UNL A   1      33.992  24.481  23.064  1.00  0.00    -0.049 C 
ATOM     16  H   UNL A   1      33.583  24.501  22.117  1.00  0.00     0.063 H 
ATOM     17  H   UNL A   1      34.536  25.618  24.651  1.00  0.00     0.068 H 
BRANCH  15  18
ATOM     18  C   UNL A   1      34.439  23.182  23.583  1.00  0.00    -0.024 A 
ATOM     19  C   UNL A   1      36.162  21.766  24.571  1.00  0.00    -0.047 A 
ATOM     20  C   UNL A   1      35.777  22.941  23.909  1.00  0.00    -0.052 A 
ATOM     21  C   UNL A   1      35.194  20.796  24.863  1.00  0.00    -0.048 A 
ATOM     22  H   UNL A   1      36.494  23.640  23.660  1.00  0.00     0.063 H 
ATOM     23  C   UNL A   1      33.851  21.019  24.539  1.00  0.00     0.023 A 
ATOM     24  H   UNL A   1      35.474  19.913  25.318  1.00  0.00     0.063 H 
ATOM     25  C   UNL A   1      33.483  22.207  23.892  1.00  0.00    -0.044 A 
ATOM     26  H   UNL A   1      32.494  22.366  23.640  1.00  0.00     0.064 H 
BRANCH  19  27
ATOM     27  C   UNL A   1      37.589  21.605  25.034  1.00  0.00    -0.031 C 
ATOM     28  H   UNL A   1      38.217  22.257  24.464  1.00  0.00     0.031 H 
ATOM     29  H   UNL A   1      37.640  21.853  26.075  1.00  0.00     0.031 H 
BRANCH  27  30
ATOM     30  C   UNL A   1      38.063  20.167  24.852  1.00  0.00    -0.061 C 
ATOM     31  H   UNL A   1      37.315  19.608  24.330  1.00  0.00     0.023 H 
ATOM     32  H   UNL A   1      38.235  19.724  25.811  1.00  0.00     0.023 H 
ATOM     33  H   UNL A   1      38.971  20.160  24.289  1.00  0.00     0.023 H 
ENDBRANCH  27  30
ENDBRANCH  19  27
BRANCH  23  34
ATOM     34  C   UNL A   1      32.775  20.040  24.867  1.00  0.00     0.193 C 
ATOM     35  O   UNL A   1      31.674  20.437  25.241  1.00  0.00    -0.289 OA
BRANCH  34  36
ATOM     36  C   UNL A   1      32.995  18.583  24.741  1.00  0.00     0.022 A 
ATOM     37  C   UNL A   1      32.686  17.765  25.833  1.00  0.00    -0.051 A 
ATOM     38  C   UNL A   1      33.516  18.025  23.568  1.00  0.00    -0.051 A 
ATOM     39  C   UNL A   1      32.847  16.384  25.733  1.00  0.00    -0.062 A 
ATOM     40  H   UNL A   1      32.340  18.184  26.711  1.00  0.00     0.063 H 
ATOM     41  C   UNL A   1      33.676  16.641  23.473  1.00  0.00    -0.062 A 
ATOM     42  H   UNL A   1      33.781  18.633  22.778  1.00  0.00     0.063 H 
ATOM     43  C   UNL A   1      33.333  15.823  24.550  1.00  0.00    -0.062 A 
ATOM     44  H   UNL A   1      32.608  15.777  26.531  1.00  0.00     0.062 H 
ATOM     45  H   UNL A   1      34.048  16.224  22.605  1.00  0.00     0.062 H 
ATOM     46  H   UNL A   1      33.438  14.799  24.472  1.00  0.00     0.062 H 
ENDBRANCH  34  36
ENDBRANCH  23  34
ENDBRANCH  15  18
ENDBRANCH  11  14
ENDBRANCH   7  10
ENDBRANCH   4   7
ENDBRANCH   1   4
BRANCH   1  47
ATOM     47  C   UNL A   1      31.525  30.829  26.105  1.00  0.00    -0.052 C 
ATOM     48  H   UNL A   1      30.571  30.347  26.170  1.00  0.00     0.027 H 
ATOM     49  H   UNL A   1      31.912  30.856  25.108  1.00  0.00     0.027 H 
BRANCH  47  50
ATOM     50  C   UNL A   1      31.355  32.285  26.545  1.00  0.00    -0.036 C 
ATOM     51  H   UNL A   1      30.486  32.351  27.166  1.00  0.00     0.028 H 
ATOM     52  H   UNL A   1      31.266  32.872  25.655  1.00  0.00     0.028 H 
BRANCH  50  53
ATOM     53  C   UNL A   1      32.545  32.832  27.322  1.00  0.00     0.018 C 
ATOM     54  H   UNL A   1      33.434  32.692  26.743  1.00  0.00     0.049 H 
ATOM     55  H   UNL A   1      32.612  32.305  28.252  1.00  0.00     0.049 H 
BRANCH  53  56
ATOM     56  N   UNL A   1      32.385  34.249  27.609  1.00  0.00    -0.352 N 
ATOM     57  C   UNL A   1      32.977  35.005  28.588  1.00  0.00     0.251 C 
ATOM     58  H   UNL A   1      31.764  34.733  27.018  1.00  0.00     0.163 HD
ATOM     59  O   UNL A   1      32.546  36.117  28.866  1.00  0.00    -0.269 OA
BRANCH  57  60
ATOM     60  C   UNL A   1      34.143  34.461  29.310  1.00  0.00     0.039 A 
ATOM     61  C   UNL A   1      33.950  33.826  30.539  1.00  0.00    -0.049 A 
ATOM     62  C   UNL A   1      35.427  34.585  28.770  1.00  0.00    -0.049 A 
ATOM     63  C   UNL A   1      35.042  33.267  31.203  1.00  0.00    -0.053 A 
ATOM     64  H   UNL A   1      33.006  33.770  30.952  1.00  0.00     0.063 H 
ATOM     65  C   UNL A   1      36.499  33.961  29.393  1.00  0.00    -0.053 A 
ATOM     66  H   UNL A   1      35.576  35.138  27.912  1.00  0.00     0.063 H 
ATOM     67  C   UNL A   1      36.320  33.304  30.619  1.00  0.00    -0.014 A 
ATOM     68  H   UNL A   1      34.910  32.823  32.126  1.00  0.00     0.063 H 
ATOM     69  H   UNL A   1      37.432  33.981  28.952  1.00  0.00     0.063 H 
BRANCH  67  70
ATOM     70  C   UNL A   1      37.489  32.676  31.278  1.00  0.00     0.031 A 
ATOM     71  C   UNL A   1      38.207  31.540  30.604  1.00  0.00     0.074 A 
ATOM     72  C   UNL A   1      37.854  33.074  32.512  1.00  0.00     0.049 A 
ATOM     73  N   UNL A   1      39.182  30.792  31.054  1.00  0.00    -0.248 NA
ATOM     74  C   UNL A   1      37.747  31.179  29.254  1.00  0.00    -0.034 C 
ATOM     75  C   UNL A   1      37.209  34.139  33.281  1.00  0.00    -0.036 A 
ATOM     76  N   UNL A   1      38.846  32.619  33.342  1.00  0.00    -0.354 N 
ATOM     77  C   UNL A   1      39.439  29.865  30.052  1.00  0.00     0.074 A 
ATOM     78  C   UNL A   1      38.481  30.108  28.995  1.00  0.00    -0.034 C 
ATOM     79  H   UNL A   1      37.038  31.640  28.663  1.00  0.00     0.065 H 
ATOM     80  C   UNL A   1      37.832  34.268  34.462  1.00  0.00    -0.036 A 
ATOM     81  H   UNL A   1      36.403  34.701  32.966  1.00  0.00     0.065 H 
ATOM     82  C   UNL A   1      38.889  33.266  34.553  1.00  0.00     0.049 A 
ATOM     83  H   UNL A   1      39.469  31.897  33.094  1.00  0.00     0.167 HD
ATOM     84  C   UNL A   1      40.400  28.914  30.009  1.00  0.00     0.037 A 
ATOM     85  H   UNL A   1      38.382  29.523  28.151  1.00  0.00     0.065 H 
ATOM     86  H   UNL A   1      37.602  34.963  35.190  1.00  0.00     0.065 H 
ATOM     87  C   UNL A   1      39.684  33.061  35.621  1.00  0.00     0.037 A 
ATOM     88  C   UNL A   1      41.360  28.692  31.058  1.00  0.00     0.049 A 
ATOM     89  C   UNL A   1      40.729  31.979  35.559  1.00  0.00     0.074 A 
ATOM     90  C   UNL A   1      42.411  27.792  31.091  1.00  0.00    -0.036 A 
ATOM     91  N   UNL A   1      41.382  29.377  32.266  1.00  0.00    -0.354 N 
ATOM     92  N   UNL A   1      41.008  31.152  34.580  1.00  0.00    -0.248 NA
ATOM     93  C   UNL A   1      41.573  31.805  36.749  1.00  0.00    -0.034 C 
ATOM     94  C   UNL A   1      43.032  27.893  32.339  1.00  0.00    -0.036 A 
ATOM     95  H   UNL A   1      42.687  27.157  30.326  1.00  0.00     0.065 H 
ATOM     96  C   UNL A   1      42.411  28.899  33.061  1.00  0.00     0.049 A 
ATOM     97  H   UNL A   1      40.758  30.095  32.520  1.00  0.00     0.167 HD
ATOM     98  C   UNL A   1      42.078  30.385  35.021  1.00  0.00     0.074 A 
ATOM     99  C   UNL A   1      42.405  30.851  36.352  1.00  0.00    -0.034 C 
ATOM    100  H   UNL A   1      41.530  32.295  37.655  1.00  0.00     0.065 H 
ATOM    101  H   UNL A   1      43.821  27.313  32.667  1.00  0.00     0.065 H 
ATOM    102  C   UNL A   1      42.732  29.386  34.379  1.00  0.00     0.037 A 
ATOM    103  H   UNL A   1      43.186  30.489  36.920  1.00  0.00     0.065 H 
BRANCH  84 104
ATOM    104  C   UNL A   1      40.460  28.039  28.789  1.00  0.00     0.064 A 
ATOM    105  C   UNL A   1      41.215  28.396  27.661  1.00  0.00     0.173 A 
ATOM    106  C   UNL A   1      39.776  26.815  28.757  1.00  0.00     0.173 A 
ATOM    107  F   UNL A   1      41.880  29.562  27.634  1.00  0.00    -0.203 F 
ATOM    108  C   UNL A   1      41.256  27.577  26.536  1.00  0.00     0.198 A 
ATOM    109  C   UNL A   1      39.847  25.981  27.644  1.00  0.00     0.198 A 
ATOM    110  F   UNL A   1      39.044  26.420  29.810  1.00  0.00    -0.203 F 
ATOM    111  F   UNL A   1      41.938  27.967  25.450  1.00  0.00    -0.200 F 
ATOM    112  C   UNL A   1      40.578  26.368  26.531  1.00  0.00     0.200 A 
ATOM    113  F   UNL A   1      39.204  24.805  27.647  1.00  0.00    -0.200 F 
ATOM    114  F   UNL A   1      40.624  25.577  25.450  1.00  0.00    -0.200 F 
ENDBRANCH  84 104
BRANCH  87 115
ATOM    115  C   UNL A   1      39.535  33.911  36.831  1.00  0.00     0.064 A 
ATOM    116  C   UNL A   1      38.757  33.485  37.916  1.00  0.00     0.173 A 
ATOM    117  C   UNL A   1      40.161  35.163  36.930  1.00  0.00     0.173 A 
ATOM    118  F   UNL A   1      38.123  32.304  37.863  1.00  0.00    -0.203 F 
ATOM    119  C   UNL A   1      38.593  34.286  39.045  1.00  0.00     0.198 A 
ATOM    120  C   UNL A   1      40.022  35.950  38.071  1.00  0.00     0.198 A 
ATOM    121  F   UNL A   1      40.920  35.615  35.922  1.00  0.00    -0.203 F 
ATOM    122  F   UNL A   1      37.805  33.875  40.047  1.00  0.00    -0.200 F 
ATOM    123  C   UNL A   1      39.230  35.515  39.123  1.00  0.00     0.200 A 
ATOM    124  F   UNL A   1      40.651  37.129  38.150  1.00  0.00    -0.200 F 
ATOM    125  F   UNL A   1      39.076  36.284  40.210  1.00  0.00    -0.200 F 
ENDBRANCH  87 115
BRANCH 102 126
ATOM    126  C   UNL A   1      43.901  28.758  35.083  1.00  0.00     0.064 A 
ATOM    127  C   UNL A   1      45.201  29.265  34.954  1.00  0.00     0.173 A 
ATOM    128  C   UNL A   1      43.701  27.669  35.947  1.00  0.00     0.173 A 
ATOM    129  F   UNL A   1      45.447  30.294  34.130  1.00  0.00    -0.203 F 
ATOM    130  C   UNL A   1      46.264  28.690  35.647  1.00  0.00     0.198 A 
ATOM    131  C   UNL A   1      44.760  27.119  36.664  1.00  0.00     0.198 A 
ATOM    132  F   UNL A   1      42.475  27.151  36.112  1.00  0.00    -0.203 F 
ATOM    133  F   UNL A   1      47.507  29.162  35.475  1.00  0.00    -0.200 F 
ATOM    134  C   UNL A   1      46.041  27.626  36.508  1.00  0.00     0.200 A 
ATOM    135  F   UNL A   1      44.539  26.102  37.508  1.00  0.00    -0.200 F 
ATOM    136  F   UNL A   1      47.063  27.086  37.186  1.00  0.00    -0.200 F 
ENDBRANCH 102 126
ENDBRANCH  67  70
ENDBRANCH  57  60
ENDBRANCH  53  56
ENDBRANCH  50  53
ENDBRANCH  47  50
ENDBRANCH   1  47
TORSDOF 18
ENDMDL
MODEL 3
REMARK VINA RESULT:     -12.2      3.216      9.116
REMARK SMILES CCc1cc(/C=C/C(=O)NCCCCCCNC(=O)c2ccc(-c3c4nc(c(-c5c(F)c(F)c(F)c(F)c5F)c5ccc([nH]5)c(-c5c(F)c(F)c(F)c(F)c5F)c5nc(c(-c6c(F)c(F)c(F)c(F)c6F)c6ccc3[nH]6)C=C5)C=C4)cc2)cc(C(=O)c2ccccc2)c1
REMARK SMILES IDX 13 1 12 4 11 7 10 10 8 11 9 12 7 14 6 15 5 18 3 19 4 20
REMARK SMILES IDX 93 21 84 23 83 25 2 27 1 30 85 34 86 35 87 36 88 37 92 38
REMARK SMILES IDX 89 39 91 41 90 43 14 47 15 50 16 53 17 56 18 57 19 59 20 60
REMARK SMILES IDX 21 61 82 62 22 63 81 65 23 67 24 70 25 71 75 72 26 73 80 74
REMARK SMILES IDX 74 75 76 76 27 77 79 78 73 80 72 82 28 84 60 87 40 88 59 89
REMARK SMILES IDX 41 90 44 91 58 92 77 93 42 94 43 96 57 98 78 99 45 102
REMARK SMILES IDX 29 104 30 105 38 106 31 107 32 108 36 109 39 110 33 111
REMARK SMILES IDX 34 112 37 113 35 114 61 115 62 116 70 117 63 118 64 119
REMARK SMILES IDX 68 120 71 121 65 122 66 123 69 124 67 125 46 126 47 127
REMARK SMILES IDX 55 128 48 129 49 130 53 131 56 132 50 133 51 134 54 135
REMARK SMILES IDX 52 136
REMARK H PARENT 13 2 13 3 12 5 12 6 11 8 11 9 10 13 6 16 7 17 4 22 93 24 83 26
REMARK H PARENT 2 28 2 29 1 31 1 32 1 33 88 40 92 42 89 44 91 45 90 46 14 48
REMARK H PARENT 14 49 15 51 15 52 16 54 16 55 17 58 21 64 82 66 22 68 81 69
REMARK H PARENT 80 79 74 81 76 83 79 85 73 86 41 95 44 97 77 100 42 101 78 103
REMARK Flexibility Score: inf
ROOT
ATOM      1  C   UNL A   1      33.839  23.560  24.489  1.00  0.00    -0.052 C 
ATOM      2  H   UNL A   1      32.952  24.111  24.253  1.00  0.00     0.027 H 
ATOM      3  H   UNL A   1      34.450  23.366  23.632  1.00  0.00     0.027 H 
ENDROOT
BRANCH   1   4
ATOM      4  C   UNL A   1      33.419  22.192  25.045  1.00  0.00    -0.036 C 
ATOM      5  H   UNL A   1      34.007  21.436  24.569  1.00  0.00     0.028 H 
ATOM      6  H   UNL A   1      33.579  22.215  26.103  1.00  0.00     0.028 H 
BRANCH   4   7
ATOM      7  C   UNL A   1      31.941  21.880  24.810  1.00  0.00     0.018 C 
ATOM      8  H   UNL A   1      31.556  22.535  24.056  1.00  0.00     0.049 H 
ATOM      9  H   UNL A   1      31.842  20.863  24.492  1.00  0.00     0.049 H 
BRANCH   7  10
ATOM     10  N   UNL A   1      31.194  22.069  26.038  1.00  0.00    -0.353 N 
ATOM     11  C   UNL A   1      30.642  23.172  26.600  1.00  0.00     0.243 C 
ATOM     12  O   UNL A   1      30.028  23.057  27.660  1.00  0.00    -0.270 OA
ATOM     13  H   UNL A   1      31.063  21.244  26.559  1.00  0.00     0.163 HD
BRANCH  11  14
ATOM     14  C   UNL A   1      30.685  24.500  25.946  1.00  0.00     0.003 C 
ATOM     15  C   UNL A   1      29.802  24.984  25.061  1.00  0.00    -0.049 C 
ATOM     16  H   UNL A   1      28.978  24.403  24.843  1.00  0.00     0.063 H 
ATOM     17  H   UNL A   1      31.475  25.115  26.197  1.00  0.00     0.068 H 
BRANCH  15  18
ATOM     18  C   UNL A   1      29.918  26.279  24.378  1.00  0.00    -0.024 A 
ATOM     19  C   UNL A   1      28.896  28.221  23.314  1.00  0.00    -0.047 A 
ATOM     20  C   UNL A   1      28.813  26.909  23.801  1.00  0.00    -0.052 A 
ATOM     21  C   UNL A   1      30.125  28.893  23.363  1.00  0.00    -0.048 A 
ATOM     22  H   UNL A   1      27.917  26.399  23.731  1.00  0.00     0.063 H 
ATOM     23  C   UNL A   1      31.244  28.275  23.934  1.00  0.00     0.023 A 
ATOM     24  H   UNL A   1      30.205  29.845  22.975  1.00  0.00     0.063 H 
ATOM     25  C   UNL A   1      31.137  26.968  24.430  1.00  0.00    -0.044 A 
ATOM     26  H   UNL A   1      31.965  26.507  24.838  1.00  0.00     0.064 H 
BRANCH  19  27
ATOM     27  C   UNL A   1      27.649  28.918  22.829  1.00  0.00    -0.031 C 
ATOM     28  H   UNL A   1      27.591  28.830  21.764  1.00  0.00     0.031 H 
ATOM     29  H   UNL A   1      26.799  28.455  23.288  1.00  0.00     0.031 H 
BRANCH  27  30
ATOM     30  C   UNL A   1      27.665  30.394  23.210  1.00  0.00    -0.061 C 
ATOM     31  H   UNL A   1      26.948  30.572  23.984  1.00  0.00     0.023 H 
ATOM     32  H   UNL A   1      27.419  30.986  22.353  1.00  0.00     0.023 H 
ATOM     33  H   UNL A   1      28.640  30.661  23.559  1.00  0.00     0.023 H 
ENDBRANCH  27  30
ENDBRANCH  19  27
BRANCH  23  34
ATOM     34  C   UNL A   1      32.564  28.960  24.051  1.00  0.00     0.193 C 
ATOM     35  O   UNL A   1      33.230  29.189  23.045  1.00  0.00    -0.289 OA
BRANCH  34  36
ATOM     36  C   UNL A   1      33.096  29.388  25.363  1.00  0.00     0.022 A 
ATOM     37  C   UNL A   1      34.156  28.668  25.920  1.00  0.00    -0.051 A 
ATOM     38  C   UNL A   1      32.547  30.478  26.050  1.00  0.00    -0.051 A 
ATOM     39  C   UNL A   1      34.704  29.069  27.138  1.00  0.00    -0.062 A 
ATOM     40  H   UNL A   1      34.533  27.839  25.431  1.00  0.00     0.063 H 
ATOM     41  C   UNL A   1      33.098  30.876  27.268  1.00  0.00    -0.062 A 
ATOM     42  H   UNL A   1      31.738  30.984  25.656  1.00  0.00     0.063 H 
ATOM     43  C   UNL A   1      34.181  30.178  27.806  1.00  0.00    -0.062 A 
ATOM     44  H   UNL A   1      35.495  28.548  27.545  1.00  0.00     0.062 H 
ATOM     45  H   UNL A   1      32.705  31.687  27.772  1.00  0.00     0.062 H 
ATOM     46  H   UNL A   1      34.596  30.483  28.700  1.00  0.00     0.062 H 
ENDBRANCH  34  36
ENDBRANCH  23  34
ENDBRANCH  15  18
ENDBRANCH  11  14
ENDBRANCH   7  10
ENDBRANCH   4   7
ENDBRANCH   1   4
BRANCH   1  47
ATOM     47  C   UNL A   1      34.687  24.405  25.447  1.00  0.00    -0.052 C 
ATOM     48  H   UNL A   1      34.063  24.717  26.259  1.00  0.00     0.027 H 
ATOM     49  H   UNL A   1      35.068  25.224  24.874  1.00  0.00     0.027 H 
BRANCH  47  50
ATOM     50  C   UNL A   1      35.902  23.680  26.030  1.00  0.00    -0.036 C 
ATOM     51  H   UNL A   1      35.639  22.654  26.189  1.00  0.00     0.028 H 
ATOM     52  H   UNL A   1      36.158  24.181  26.940  1.00  0.00     0.028 H 
BRANCH  50  53
ATOM     53  C   UNL A   1      37.132  23.728  25.133  1.00  0.00     0.018 C 
ATOM     54  H   UNL A   1      37.571  24.702  25.196  1.00  0.00     0.049 H 
ATOM     55  H   UNL A   1      36.826  23.516  24.129  1.00  0.00     0.049 H 
BRANCH  53  56
ATOM     56  N   UNL A   1      38.118  22.736  25.532  1.00  0.00    -0.352 N 
ATOM     57  C   UNL A   1      39.327  22.920  26.154  1.00  0.00     0.251 C 
ATOM     58  H   UNL A   1      37.886  21.802  25.326  1.00  0.00     0.163 HD
ATOM     59  O   UNL A   1      40.156  22.020  26.188  1.00  0.00    -0.269 OA
BRANCH  57  60
ATOM     60  C   UNL A   1      39.621  24.222  26.783  1.00  0.00     0.039 A 
ATOM     61  C   UNL A   1      39.215  24.451  28.100  1.00  0.00    -0.049 A 
ATOM     62  C   UNL A   1      40.294  25.215  26.065  1.00  0.00    -0.049 A 
ATOM     63  C   UNL A   1      39.532  25.661  28.716  1.00  0.00    -0.053 A 
ATOM     64  H   UNL A   1      38.685  23.729  28.613  1.00  0.00     0.063 H 
ATOM     65  C   UNL A   1      40.676  26.387  26.704  1.00  0.00    -0.053 A 
ATOM     66  H   UNL A   1      40.505  25.078  25.065  1.00  0.00     0.063 H 
ATOM     67  C   UNL A   1      40.292  26.626  28.033  1.00  0.00    -0.014 A 
ATOM     68  H   UNL A   1      39.208  25.848  29.678  1.00  0.00     0.063 H 
ATOM     69  H   UNL A   1      41.245  27.085  26.201  1.00  0.00     0.063 H 
BRANCH  67  70
ATOM     70  C   UNL A   1      40.685  27.901  28.679  1.00  0.00     0.031 A 
ATOM     71  C   UNL A   1      42.084  28.075  29.198  1.00  0.00     0.074 A 
ATOM     72  C   UNL A   1      39.764  28.865  28.866  1.00  0.00     0.049 A 
ATOM     73  N   UNL A   1      42.598  29.067  29.881  1.00  0.00    -0.248 NA
ATOM     74  C   UNL A   1      43.025  26.974  28.939  1.00  0.00    -0.034 C 
ATOM     75  C   UNL A   1      38.366  28.794  28.440  1.00  0.00    -0.036 A 
ATOM     76  N   UNL A   1      39.862  30.089  29.479  1.00  0.00    -0.354 N 
ATOM     77  C   UNL A   1      43.911  28.701  30.146  1.00  0.00     0.074 A 
ATOM     78  C   UNL A   1      44.099  27.374  29.600  1.00  0.00    -0.034 C 
ATOM     79  H   UNL A   1      42.884  26.114  28.386  1.00  0.00     0.065 H 
ATOM     80  C   UNL A   1      37.742  29.930  28.788  1.00  0.00    -0.036 A 
ATOM     81  H   UNL A   1      37.929  27.997  27.952  1.00  0.00     0.065 H 
ATOM     82  C   UNL A   1      38.681  30.789  29.501  1.00  0.00     0.049 A 
ATOM     83  H   UNL A   1      40.701  30.433  29.866  1.00  0.00     0.167 HD
ATOM     84  C   UNL A   1      44.876  29.417  30.768  1.00  0.00     0.037 A 
ATOM     85  H   UNL A   1      44.959  26.814  29.713  1.00  0.00     0.065 H 
ATOM     86  H   UNL A   1      36.756  30.159  28.585  1.00  0.00     0.065 H 
ATOM     87  C   UNL A   1      38.388  31.984  30.048  1.00  0.00     0.037 A 
ATOM     88  C   UNL A   1      44.684  30.743  31.292  1.00  0.00     0.049 A 
ATOM     89  C   UNL A   1      39.473  32.749  30.759  1.00  0.00     0.074 A 
ATOM     90  C   UNL A   1      45.611  31.578  31.890  1.00  0.00    -0.036 A 
ATOM     91  N   UNL A   1      43.475  31.427  31.284  1.00  0.00    -0.354 N 
ATOM     92  N   UNL A   1      40.730  32.425  30.945  1.00  0.00    -0.248 NA
ATOM     93  C   UNL A   1      39.100  34.051  31.330  1.00  0.00    -0.034 C 
ATOM     94  C   UNL A   1      44.951  32.743  32.294  1.00  0.00    -0.036 A 
ATOM     95  H   UNL A   1      46.615  31.375  32.016  1.00  0.00     0.065 H 
ATOM     96  C   UNL A   1      43.628  32.663  31.892  1.00  0.00     0.049 A 
ATOM     97  H   UNL A   1      42.635  31.084  30.902  1.00  0.00     0.167 HD
ATOM     98  C   UNL A   1      41.304  33.491  31.623  1.00  0.00     0.074 A 
ATOM     99  C   UNL A   1      40.261  34.478  31.807  1.00  0.00    -0.034 C 
ATOM    100  H   UNL A   1      38.177  34.510  31.355  1.00  0.00     0.065 H 
ATOM    101  H   UNL A   1      45.379  33.529  32.808  1.00  0.00     0.065 H 
ATOM    102  C   UNL A   1      42.581  33.641  32.052  1.00  0.00     0.037 A 
ATOM    103  H   UNL A   1      40.403  35.398  32.251  1.00  0.00     0.065 H 
BRANCH  84 104
ATOM    104  C   UNL A   1      46.228  28.778  30.919  1.00  0.00     0.064 A 
ATOM    105  C   UNL A   1      47.209  28.882  29.920  1.00  0.00     0.173 A 
ATOM    106  C   UNL A   1      46.558  28.077  32.089  1.00  0.00     0.173 A 
ATOM    107  F   UNL A   1      46.943  29.531  28.776  1.00  0.00    -0.203 F 
ATOM    108  C   UNL A   1      48.455  28.279  30.072  1.00  0.00     0.198 A 
ATOM    109  C   UNL A   1      47.817  27.506  32.253  1.00  0.00     0.198 A 
ATOM    110  F   UNL A   1      45.662  27.952  33.079  1.00  0.00    -0.203 F 
ATOM    111  F   UNL A   1      49.354  28.344  29.081  1.00  0.00    -0.200 F 
ATOM    112  C   UNL A   1      48.760  27.598  31.241  1.00  0.00     0.200 A 
ATOM    113  F   UNL A   1      48.116  26.862  33.390  1.00  0.00    -0.200 F 
ATOM    114  F   UNL A   1      49.962  27.026  31.389  1.00  0.00    -0.200 F 
ENDBRANCH  84 104
BRANCH  87 115
ATOM    115  C   UNL A   1      37.014  32.538  29.931  1.00  0.00     0.064 A 
ATOM    116  C   UNL A   1      36.616  33.235  28.781  1.00  0.00     0.173 A 
ATOM    117  C   UNL A   1      36.072  32.386  30.960  1.00  0.00     0.173 A 
ATOM    118  F   UNL A   1      37.486  33.423  27.778  1.00  0.00    -0.203 F 
ATOM    119  C   UNL A   1      35.338  33.777  28.673  1.00  0.00     0.198 A 
ATOM    120  C   UNL A   1      34.783  32.902  30.838  1.00  0.00     0.198 A 
ATOM    121  F   UNL A   1      36.400  31.724  32.078  1.00  0.00    -0.203 F 
ATOM    122  F   UNL A   1      35.000  34.479  27.583  1.00  0.00    -0.200 F 
ATOM    123  C   UNL A   1      34.420  33.605  29.699  1.00  0.00     0.200 A 
ATOM    124  F   UNL A   1      33.895  32.720  31.824  1.00  0.00    -0.200 F 
ATOM    125  F   UNL A   1      33.189  34.123  29.594  1.00  0.00    -0.200 F 
ENDBRANCH  87 115
BRANCH 102 126
ATOM    126  C   UNL A   1      42.941  34.936  32.720  1.00  0.00     0.064 A 
ATOM    127  C   UNL A   1      43.431  36.031  31.995  1.00  0.00     0.173 A 
ATOM    128  C   UNL A   1      42.735  35.100  34.099  1.00  0.00     0.173 A 
ATOM    129  F   UNL A   1      43.659  35.922  30.678  1.00  0.00    -0.203 F 
ATOM    130  C   UNL A   1      43.722  37.236  32.629  1.00  0.00     0.198 A 
ATOM    131  C   UNL A   1      42.995  36.316  34.724  1.00  0.00     0.198 A 
ATOM    132  F   UNL A   1      42.261  34.085  34.838  1.00  0.00    -0.203 F 
ATOM    133  F   UNL A   1      44.231  38.257  31.924  1.00  0.00    -0.200 F 
ATOM    134  C   UNL A   1      43.494  37.381  33.990  1.00  0.00     0.200 A 
ATOM    135  F   UNL A   1      42.758  36.459  36.035  1.00  0.00    -0.200 F 
ATOM    136  F   UNL A   1      43.759  38.547  34.594  1.00  0.00    -0.200 F 
ENDBRANCH 102 126
ENDBRANCH  67  70
ENDBRANCH  57  60
ENDBRANCH  53  56
ENDBRANCH  50  53
ENDBRANCH  47  50
ENDBRANCH   1  47
TORSDOF 18
ENDMDL
MODEL 4
REMARK VINA RESULT:     -12.1      3.218      9.114
REMARK SMILES CCc1cc(/C=C/C(=O)NCCCCCCNC(=O)c2ccc(-c3c4nc(c(-c5c(F)c(F)c(F)c(F)c5F)c5ccc([nH]5)c(-c5c(F)c(F)c(F)c(F)c5F)c5nc(c(-c6c(F)c(F)c(F)c(F)c6F)c6ccc3[nH]6)C=C5)C=C4)cc2)cc(C(=O)c2ccccc2)c1
REMARK SMILES IDX 13 1 12 4 11 7 10 10 8 11 9 12 7 14 6 15 5 18 3 19 4 20
REMARK SMILES IDX 93 21 84 23 83 25 2 27 1 30 85 34 86 35 87 36 88 37 92 38
REMARK SMILES IDX 89 39 91 41 90 43 14 47 15 50 16 53 17 56 18 57 19 59 20 60
REMARK SMILES IDX 21 61 82 62 22 63 81 65 23 67 24 70 25 71 75 72 26 73 80 74
REMARK SMILES IDX 74 75 76 76 27 77 79 78 73 80 72 82 28 84 60 87 40 88 59 89
REMARK SMILES IDX 41 90 44 91 58 92 77 93 42 94 43 96 57 98 78 99 45 102
REMARK SMILES IDX 29 104 30 105 38 106 31 107 32 108 36 109 39 110 33 111
REMARK SMILES IDX 34 112 37 113 35 114 61 115 62 116 70 117 63 118 64 119
REMARK SMILES IDX 68 120 71 121 65 122 66 123 69 124 67 125 46 126 47 127
REMARK SMILES IDX 55 128 48 129 49 130 53 131 56 132 50 133 51 134 54 135
REMARK SMILES IDX 52 136
REMARK H PARENT 13 2 13 3 12 5 12 6 11 8 11 9 10 13 6 16 7 17 4 22 93 24 83 26
REMARK H PARENT 2 28 2 29 1 31 1 32 1 33 88 40 92 42 89 44 91 45 90 46 14 48
REMARK H PARENT 14 49 15 51 15 52 16 54 16 55 17 58 21 64 82 66 22 68 81 69
REMARK H PARENT 80 79 74 81 76 83 79 85 73 86 41 95 44 97 77 100 42 101 78 103
REMARK Flexibility Score: inf
ROOT
ATOM      1  C   UNL A   1      34.334  21.807  24.476  1.00  0.00    -0.052 C 
ATOM      2  H   UNL A   1      33.953  21.295  23.616  1.00  0.00     0.027 H 
ATOM      3  H   UNL A   1      35.213  21.348  24.879  1.00  0.00     0.027 H 
ENDROOT
BRANCH   1   4
ATOM      4  C   UNL A   1      33.268  21.753  25.578  1.00  0.00    -0.036 C 
ATOM      5  H   UNL A   1      33.353  20.817  26.089  1.00  0.00     0.028 H 
ATOM      6  H   UNL A   1      33.443  22.582  26.232  1.00  0.00     0.028 H 
BRANCH   4   7
ATOM      7  C   UNL A   1      31.844  21.886  25.038  1.00  0.00     0.018 C 
ATOM      8  H   UNL A   1      31.788  22.738  24.393  1.00  0.00     0.049 H 
ATOM      9  H   UNL A   1      31.590  21.001  24.492  1.00  0.00     0.049 H 
BRANCH   7  10
ATOM     10  N   UNL A   1      30.911  22.052  26.135  1.00  0.00    -0.353 N 
ATOM     11  C   UNL A   1      30.415  23.157  26.741  1.00  0.00     0.243 C 
ATOM     12  O   UNL A   1      29.603  23.022  27.655  1.00  0.00    -0.270 OA
ATOM     13  H   UNL A   1      30.577  21.205  26.509  1.00  0.00     0.163 HD
BRANCH  11  14
ATOM     14  C   UNL A   1      30.755  24.527  26.291  1.00  0.00     0.003 C 
ATOM     15  C   UNL A   1      31.895  25.188  26.533  1.00  0.00    -0.049 C 
ATOM     16  H   UNL A   1      32.640  24.684  27.040  1.00  0.00     0.063 H 
ATOM     17  H   UNL A   1      30.040  25.023  25.735  1.00  0.00     0.068 H 
BRANCH  15  18
ATOM     18  C   UNL A   1      32.166  26.575  26.132  1.00  0.00    -0.024 A 
ATOM     19  C   UNL A   1      33.519  28.600  26.263  1.00  0.00    -0.047 A 
ATOM     20  C   UNL A   1      33.142  27.347  26.767  1.00  0.00    -0.052 A 
ATOM     21  C   UNL A   1      32.867  29.106  25.131  1.00  0.00    -0.048 A 
ATOM     22  H   UNL A   1      33.596  26.988  27.623  1.00  0.00     0.063 H 
ATOM     23  C   UNL A   1      31.883  28.348  24.485  1.00  0.00     0.023 A 
ATOM     24  H   UNL A   1      33.112  30.042  24.773  1.00  0.00     0.063 H 
ATOM     25  C   UNL A   1      31.532  27.090  24.995  1.00  0.00    -0.044 A 
ATOM     26  H   UNL A   1      30.797  26.537  24.528  1.00  0.00     0.064 H 
BRANCH  19  27
ATOM     27  C   UNL A   1      34.674  29.340  26.890  1.00  0.00    -0.031 C 
ATOM     28  H   UNL A   1      35.107  28.729  27.656  1.00  0.00     0.031 H 
ATOM     29  H   UNL A   1      35.397  29.552  26.130  1.00  0.00     0.031 H 
BRANCH  27  30
ATOM     30  C   UNL A   1      34.210  30.657  27.503  1.00  0.00    -0.061 C 
ATOM     31  H   UNL A   1      33.190  30.567  27.811  1.00  0.00     0.023 H 
ATOM     32  H   UNL A   1      34.297  31.438  26.777  1.00  0.00     0.023 H 
ATOM     33  H   UNL A   1      34.820  30.889  28.351  1.00  0.00     0.023 H 
ENDBRANCH  27  30
ENDBRANCH  19  27
BRANCH  23  34
ATOM     34  C   UNL A   1      31.190  28.820  23.252  1.00  0.00     0.193 C 
ATOM     35  O   UNL A   1      31.721  28.676  22.154  1.00  0.00    -0.289 OA
BRANCH  34  36
ATOM     36  C   UNL A   1      29.855  29.455  23.314  1.00  0.00     0.022 A 
ATOM     37  C   UNL A   1      29.761  30.763  23.799  1.00  0.00    -0.051 A 
ATOM     38  C   UNL A   1      28.703  28.767  22.915  1.00  0.00    -0.051 A 
ATOM     39  C   UNL A   1      28.523  31.402  23.835  1.00  0.00    -0.062 A 
ATOM     40  H   UNL A   1      30.607  31.254  24.131  1.00  0.00     0.063 H 
ATOM     41  C   UNL A   1      27.466  29.411  22.954  1.00  0.00    -0.062 A 
ATOM     42  H   UNL A   1      28.769  27.788  22.595  1.00  0.00     0.063 H 
ATOM     43  C   UNL A   1      27.378  30.729  23.403  1.00  0.00    -0.062 A 
ATOM     44  H   UNL A   1      28.452  32.372  24.179  1.00  0.00     0.062 H 
ATOM     45  H   UNL A   1      26.615  28.912  22.648  1.00  0.00     0.062 H 
ATOM     46  H   UNL A   1      26.464  31.209  23.417  1.00  0.00     0.062 H 
ENDBRANCH  34  36
ENDBRANCH  23  34
ENDBRANCH  15  18
ENDBRANCH  11  14
ENDBRANCH   7  10
ENDBRANCH   4   7
ENDBRANCH   1   4
BRANCH   1  47
ATOM     47  C   UNL A   1      34.739  23.223  24.048  1.00  0.00    -0.052 C 
ATOM     48  H   UNL A   1      34.182  23.922  24.637  1.00  0.00     0.027 H 
ATOM     49  H   UNL A   1      34.529  23.297  23.002  1.00  0.00     0.027 H 
BRANCH  47  50
ATOM     50  C   UNL A   1      36.228  23.537  24.216  1.00  0.00    -0.036 C 
ATOM     51  H   UNL A   1      36.421  24.497  23.782  1.00  0.00     0.028 H 
ATOM     52  H   UNL A   1      36.769  22.753  23.728  1.00  0.00     0.028 H 
BRANCH  50  53
ATOM     53  C   UNL A   1      36.689  23.561  25.667  1.00  0.00     0.018 C 
ATOM     54  H   UNL A   1      35.861  23.321  26.300  1.00  0.00     0.049 H 
ATOM     55  H   UNL A   1      37.062  24.541  25.886  1.00  0.00     0.049 H 
BRANCH  53  56
ATOM     56  N   UNL A   1      37.757  22.602  25.900  1.00  0.00    -0.352 N 
ATOM     57  C   UNL A   1      39.045  22.826  26.314  1.00  0.00     0.251 C 
ATOM     58  H   UNL A   1      37.523  21.659  25.736  1.00  0.00     0.163 HD
ATOM     59  O   UNL A   1      39.896  21.951  26.213  1.00  0.00    -0.269 OA
BRANCH  57  60
ATOM     60  C   UNL A   1      39.399  24.140  26.884  1.00  0.00     0.039 A 
ATOM     61  C   UNL A   1      39.073  24.417  28.214  1.00  0.00    -0.049 A 
ATOM     62  C   UNL A   1      40.048  25.098  26.099  1.00  0.00    -0.049 A 
ATOM     63  C   UNL A   1      39.447  25.639  28.773  1.00  0.00    -0.053 A 
ATOM     64  H   UNL A   1      38.560  23.722  28.779  1.00  0.00     0.063 H 
ATOM     65  C   UNL A   1      40.487  26.280  26.678  1.00  0.00    -0.053 A 
ATOM     66  H   UNL A   1      40.199  24.926  25.093  1.00  0.00     0.063 H 
ATOM     67  C   UNL A   1      40.184  26.567  28.018  1.00  0.00    -0.014 A 
ATOM     68  H   UNL A   1      39.182  25.862  29.746  1.00  0.00     0.063 H 
ATOM     69  H   UNL A   1      41.039  26.951  26.122  1.00  0.00     0.063 H 
BRANCH  67  70
ATOM     70  C   UNL A   1      40.637  27.853  28.600  1.00  0.00     0.031 A 
ATOM     71  C   UNL A   1      42.070  28.021  29.018  1.00  0.00     0.074 A 
ATOM     72  C   UNL A   1      39.744  28.835  28.823  1.00  0.00     0.049 A 
ATOM     73  N   UNL A   1      42.642  29.022  29.637  1.00  0.00    -0.248 NA
ATOM     74  C   UNL A   1      42.977  26.900  28.726  1.00  0.00    -0.034 C 
ATOM     75  C   UNL A   1      38.319  28.773  28.495  1.00  0.00    -0.036 A 
ATOM     76  N   UNL A   1      39.899  30.073  29.394  1.00  0.00    -0.354 N 
ATOM     77  C   UNL A   1      43.966  28.644  29.821  1.00  0.00     0.074 A 
ATOM     78  C   UNL A   1      44.099  27.301  29.301  1.00  0.00    -0.034 C 
ATOM     79  H   UNL A   1      42.788  26.027  28.207  1.00  0.00     0.065 H 
ATOM     80  C   UNL A   1      37.734  29.927  28.853  1.00  0.00    -0.036 A 
ATOM     81  H   UNL A   1      37.839  27.970  28.060  1.00  0.00     0.065 H 
ATOM     82  C   UNL A   1      38.731  30.791  29.476  1.00  0.00     0.049 A 
ATOM     83  H   UNL A   1      40.766  30.415  29.713  1.00  0.00     0.167 HD
ATOM     84  C   UNL A   1      44.980  29.363  30.356  1.00  0.00     0.037 A 
ATOM     85  H   UNL A   1      44.957  26.731  29.370  1.00  0.00     0.065 H 
ATOM     86  H   UNL A   1      36.740  30.165  28.711  1.00  0.00     0.065 H 
ATOM     87  C   UNL A   1      38.492  32.005  30.009  1.00  0.00     0.037 A 
ATOM     88  C   UNL A   1      44.841  30.705  30.855  1.00  0.00     0.049 A 
ATOM     89  C   UNL A   1      39.633  32.772  30.623  1.00  0.00     0.074 A 
ATOM     90  C   UNL A   1      45.818  31.542  31.365  1.00  0.00    -0.036 A 
ATOM     91  N   UNL A   1      43.644  31.407  30.910  1.00  0.00    -0.354 N 
ATOM     92  N   UNL A   1      40.895  32.435  30.732  1.00  0.00    -0.248 NA
ATOM     93  C   UNL A   1      39.316  34.094  31.182  1.00  0.00    -0.034 C 
ATOM     94  C   UNL A   1      45.203  32.727  31.781  1.00  0.00    -0.036 A 
ATOM     95  H   UNL A   1      46.825  31.328  31.428  1.00  0.00     0.065 H 
ATOM     96  C   UNL A   1      43.854  32.656  31.472  1.00  0.00     0.049 A 
ATOM     97  H   UNL A   1      42.775  31.066  30.597  1.00  0.00     0.167 HD
ATOM     98  C   UNL A   1      41.528  33.510  31.339  1.00  0.00     0.074 A 
ATOM     99  C   UNL A   1      40.513  34.517  31.566  1.00  0.00    -0.034 C 
ATOM    100  H   UNL A   1      38.402  34.567  31.257  1.00  0.00     0.065 H 
ATOM    101  H   UNL A   1      45.675  33.521  32.242  1.00  0.00     0.065 H 
ATOM    102  C   UNL A   1      42.833  33.653  31.676  1.00  0.00     0.037 A 
ATOM    103  H   UNL A   1      40.696  35.447  31.974  1.00  0.00     0.065 H 
BRANCH  84 104
ATOM    104  C   UNL A   1      46.331  28.708  30.432  1.00  0.00     0.064 A 
ATOM    105  C   UNL A   1      46.714  27.930  31.536  1.00  0.00     0.173 A 
ATOM    106  C   UNL A   1      47.244  28.837  29.374  1.00  0.00     0.173 A 
ATOM    107  F   UNL A   1      45.883  27.782  32.579  1.00  0.00    -0.203 F 
ATOM    108  C   UNL A   1      47.971  27.334  31.593  1.00  0.00     0.198 A 
ATOM    109  C   UNL A   1      48.487  28.211  29.419  1.00  0.00     0.198 A 
ATOM    110  F   UNL A   1      46.929  29.563  28.291  1.00  0.00    -0.203 F 
ATOM    111  F   UNL A   1      48.334  26.644  32.682  1.00  0.00    -0.200 F 
ATOM    112  C   UNL A   1      48.854  27.470  30.532  1.00  0.00     0.200 A 
ATOM    113  F   UNL A   1      49.333  28.329  28.386  1.00  0.00    -0.200 F 
ATOM    114  F   UNL A   1      50.060  26.890  30.586  1.00  0.00    -0.200 F 
ENDBRANCH  84 104
BRANCH  87 115
ATOM    115  C   UNL A   1      37.120  32.575  29.970  1.00  0.00     0.064 A 
ATOM    116  C   UNL A   1      36.214  32.339  31.013  1.00  0.00     0.173 A 
ATOM    117  C   UNL A   1      36.684  33.363  28.894  1.00  0.00     0.173 A 
ATOM    118  F   UNL A   1      36.576  31.576  32.055  1.00  0.00    -0.203 F 
ATOM    119  C   UNL A   1      34.918  32.851  30.973  1.00  0.00     0.198 A 
ATOM    120  C   UNL A   1      35.399  33.900  28.869  1.00  0.00     0.198 A 
ATOM    121  F   UNL A   1      37.513  33.623  27.873  1.00  0.00    -0.203 F 
ATOM    122  F   UNL A   1      34.058  32.570  31.960  1.00  0.00    -0.200 F 
ATOM    123  C   UNL A   1      34.514  33.636  29.903  1.00  0.00     0.200 A 
ATOM    124  F   UNL A   1      35.017  34.671  27.842  1.00  0.00    -0.200 F 
ATOM    125  F   UNL A   1      33.270  34.131  29.866  1.00  0.00    -0.200 F 
ENDBRANCH  87 115
BRANCH 102 126
ATOM    126  C   UNL A   1      43.254  34.960  32.282  1.00  0.00     0.064 A 
ATOM    127  C   UNL A   1      43.300  35.152  33.669  1.00  0.00     0.173 A 
ATOM    128  C   UNL A   1      43.675  36.016  31.457  1.00  0.00     0.173 A 
ATOM    129  F   UNL A   1      42.895  34.180  34.500  1.00  0.00    -0.203 F 
ATOM    130  C   UNL A   1      43.732  36.361  34.210  1.00  0.00     0.198 A 
ATOM    131  C   UNL A   1      44.138  37.211  32.002  1.00  0.00     0.198 A 
ATOM    132  F   UNL A   1      43.658  35.881  30.123  1.00  0.00    -0.203 F 
ATOM    133  F   UNL A   1      43.726  36.539  35.539  1.00  0.00    -0.200 F 
ATOM    134  C   UNL A   1      44.160  37.384  33.377  1.00  0.00     0.200 A 
ATOM    135  F   UNL A   1      44.567  38.191  31.195  1.00  0.00    -0.200 F 
ATOM    136  F   UNL A   1      44.590  38.540  33.901  1.00  0.00    -0.200 F 
ENDBRANCH 102 126
ENDBRANCH  67  70
ENDBRANCH  57  60
ENDBRANCH  53  56
ENDBRANCH  50  53
ENDBRANCH  47  50
ENDBRANCH   1  47
TORSDOF 18
ENDMDL
MODEL 5
REMARK VINA RESULT:     -12.1      2.643      7.595
REMARK SMILES CCc1cc(/C=C/C(=O)NCCCCCCNC(=O)c2ccc(-c3c4nc(c(-c5c(F)c(F)c(F)c(F)c5F)c5ccc([nH]5)c(-c5c(F)c(F)c(F)c(F)c5F)c5nc(c(-c6c(F)c(F)c(F)c(F)c6F)c6ccc3[nH]6)C=C5)C=C4)cc2)cc(C(=O)c2ccccc2)c1
REMARK SMILES IDX 13 1 12 4 11 7 10 10 8 11 9 12 7 14 6 15 5 18 3 19 4 20
REMARK SMILES IDX 93 21 84 23 83 25 2 27 1 30 85 34 86 35 87 36 88 37 92 38
REMARK SMILES IDX 89 39 91 41 90 43 14 47 15 50 16 53 17 56 18 57 19 59 20 60
REMARK SMILES IDX 21 61 82 62 22 63 81 65 23 67 24 70 25 71 75 72 26 73 80 74
REMARK SMILES IDX 74 75 76 76 27 77 79 78 73 80 72 82 28 84 60 87 40 88 59 89
REMARK SMILES IDX 41 90 44 91 58 92 77 93 42 94 43 96 57 98 78 99 45 102
REMARK SMILES IDX 29 104 30 105 38 106 31 107 32 108 36 109 39 110 33 111
REMARK SMILES IDX 34 112 37 113 35 114 61 115 62 116 70 117 63 118 64 119
REMARK SMILES IDX 68 120 71 121 65 122 66 123 69 124 67 125 46 126 47 127
REMARK SMILES IDX 55 128 48 129 49 130 53 131 56 132 50 133 51 134 54 135
REMARK SMILES IDX 52 136
REMARK H PARENT 13 2 13 3 12 5 12 6 11 8 11 9 10 13 6 16 7 17 4 22 93 24 83 26
REMARK H PARENT 2 28 2 29 1 31 1 32 1 33 88 40 92 42 89 44 91 45 90 46 14 48
REMARK H PARENT 14 49 15 51 15 52 16 54 16 55 17 58 21 64 82 66 22 68 81 69
REMARK H PARENT 80 79 74 81 76 83 79 85 73 86 41 95 44 97 77 100 42 101 78 103
REMARK Flexibility Score: inf
ROOT
ATOM      1  C   UNL A   1      30.722  26.431  25.199  1.00  0.00    -0.052 C 
ATOM      2  H   UNL A   1      31.013  25.511  24.736  1.00  0.00     0.027 H 
ATOM      3  H   UNL A   1      29.848  26.334  25.808  1.00  0.00     0.027 H 
ENDROOT
BRANCH   1   4
ATOM      4  C   UNL A   1      30.374  27.435  24.092  1.00  0.00    -0.036 C 
ATOM      5  H   UNL A   1      29.324  27.638  24.133  1.00  0.00     0.028 H 
ATOM      6  H   UNL A   1      30.957  28.316  24.264  1.00  0.00     0.028 H 
BRANCH   4   7
ATOM      7  C   UNL A   1      30.717  26.924  22.692  1.00  0.00     0.018 C 
ATOM      8  H   UNL A   1      30.876  25.866  22.731  1.00  0.00     0.049 H 
ATOM      9  H   UNL A   1      29.907  27.144  22.028  1.00  0.00     0.049 H 
BRANCH   7  10
ATOM     10  N   UNL A   1      31.918  27.574  22.208  1.00  0.00    -0.353 N 
ATOM     11  C   UNL A   1      33.209  27.167  22.159  1.00  0.00     0.243 C 
ATOM     12  O   UNL A   1      34.053  27.917  21.669  1.00  0.00    -0.270 OA
ATOM     13  H   UNL A   1      31.768  28.478  21.848  1.00  0.00     0.163 HD
BRANCH  11  14
ATOM     14  C   UNL A   1      33.632  25.819  22.604  1.00  0.00     0.003 C 
ATOM     15  C   UNL A   1      34.055  25.477  23.830  1.00  0.00    -0.049 C 
ATOM     16  H   UNL A   1      34.042  26.207  24.559  1.00  0.00     0.063 H 
ATOM     17  H   UNL A   1      33.598  25.066  21.899  1.00  0.00     0.068 H 
BRANCH  15  18
ATOM     18  C   UNL A   1      34.536  24.144  24.213  1.00  0.00    -0.024 A 
ATOM     19  C   UNL A   1      36.229  22.701  25.213  1.00  0.00    -0.047 A 
ATOM     20  C   UNL A   1      35.837  23.937  24.680  1.00  0.00    -0.052 A 
ATOM     21  C   UNL A   1      35.314  21.641  25.229  1.00  0.00    -0.048 A 
ATOM     22  H   UNL A   1      36.522  24.709  24.633  1.00  0.00     0.063 H 
ATOM     23  C   UNL A   1      34.008  21.829  24.761  1.00  0.00     0.023 A 
ATOM     24  H   UNL A   1      35.604  20.718  25.586  1.00  0.00     0.063 H 
ATOM     25  C   UNL A   1      33.630  23.077  24.246  1.00  0.00    -0.044 A 
ATOM     26  H   UNL A   1      32.671  23.212  23.888  1.00  0.00     0.064 H 
BRANCH  19  27
ATOM     27  C   UNL A   1      37.595  22.558  25.838  1.00  0.00    -0.031 C 
ATOM     28  H   UNL A   1      37.527  21.903  26.682  1.00  0.00     0.031 H 
ATOM     29  H   UNL A   1      38.265  22.155  25.106  1.00  0.00     0.031 H 
BRANCH  27  30
ATOM     30  C   UNL A   1      38.130  23.911  26.296  1.00  0.00    -0.061 C 
ATOM     31  H   UNL A   1      37.478  24.320  27.039  1.00  0.00     0.023 H 
ATOM     32  H   UNL A   1      38.179  24.576  25.460  1.00  0.00     0.023 H 
ATOM     33  H   UNL A   1      39.108  23.785  26.710  1.00  0.00     0.023 H 
ENDBRANCH  27  30
ENDBRANCH  19  27
BRANCH  23  34
ATOM     34  C   UNL A   1      32.981  20.748  24.796  1.00  0.00     0.193 C 
ATOM     35  O   UNL A   1      31.903  20.941  25.351  1.00  0.00    -0.289 OA
BRANCH  34  36
ATOM     36  C   UNL A   1      33.224  19.434  24.162  1.00  0.00     0.022 A 
ATOM     37  C   UNL A   1      34.279  18.649  24.636  1.00  0.00    -0.051 A 
ATOM     38  C   UNL A   1      32.433  18.983  23.098  1.00  0.00    -0.051 A 
ATOM     39  C   UNL A   1      34.509  17.390  24.084  1.00  0.00    -0.062 A 
ATOM     40  H   UNL A   1      34.886  19.002  25.394  1.00  0.00     0.063 H 
ATOM     41  C   UNL A   1      32.668  17.723  22.548  1.00  0.00    -0.062 A 
ATOM     42  H   UNL A   1      31.680  19.581  22.722  1.00  0.00     0.063 H 
ATOM     43  C   UNL A   1      33.698  16.924  23.047  1.00  0.00    -0.062 A 
ATOM     44  H   UNL A   1      35.278  16.803  24.441  1.00  0.00     0.062 H 
ATOM     45  H   UNL A   1      32.080  17.380  21.772  1.00  0.00     0.062 H 
ATOM     46  H   UNL A   1      33.862  15.986  22.649  1.00  0.00     0.062 H 
ENDBRANCH  34  36
ENDBRANCH  23  34
ENDBRANCH  15  18
ENDBRANCH  11  14
ENDBRANCH   7  10
ENDBRANCH   4   7
ENDBRANCH   1   4
BRANCH   1  47
ATOM     47  C   UNL A   1      31.856  26.877  26.131  1.00  0.00    -0.052 C 
ATOM     48  H   UNL A   1      32.785  26.730  25.621  1.00  0.00     0.027 H 
ATOM     49  H   UNL A   1      31.769  26.288  27.019  1.00  0.00     0.027 H 
BRANCH  47  50
ATOM     50  C   UNL A   1      31.778  28.341  26.571  1.00  0.00    -0.036 C 
ATOM     51  H   UNL A   1      31.783  28.372  27.641  1.00  0.00     0.028 H 
ATOM     52  H   UNL A   1      30.879  28.745  26.154  1.00  0.00     0.028 H 
BRANCH  50  53
ATOM     53  C   UNL A   1      32.930  29.196  26.059  1.00  0.00     0.018 C 
ATOM     54  H   UNL A   1      33.091  28.980  25.023  1.00  0.00     0.049 H 
ATOM     55  H   UNL A   1      33.803  28.965  26.634  1.00  0.00     0.049 H 
BRANCH  53  56
ATOM     56  N   UNL A   1      32.645  30.615  26.209  1.00  0.00    -0.352 N 
ATOM     57  C   UNL A   1      33.223  31.528  27.052  1.00  0.00     0.251 C 
ATOM     58  H   UNL A   1      31.937  30.968  25.623  1.00  0.00     0.163 HD
ATOM     59  O   UNL A   1      32.701  32.618  27.247  1.00  0.00    -0.269 OA
BRANCH  57  60
ATOM     60  C   UNL A   1      34.488  31.181  27.729  1.00  0.00     0.039 A 
ATOM     61  C   UNL A   1      35.470  32.163  27.885  1.00  0.00    -0.049 A 
ATOM     62  C   UNL A   1      34.700  29.884  28.204  1.00  0.00    -0.049 A 
ATOM     63  C   UNL A   1      36.647  31.854  28.566  1.00  0.00    -0.053 A 
ATOM     64  H   UNL A   1      35.325  33.109  27.499  1.00  0.00     0.063 H 
ATOM     65  C   UNL A   1      35.837  29.601  28.948  1.00  0.00    -0.053 A 
ATOM     66  H   UNL A   1      34.015  29.140  28.001  1.00  0.00     0.063 H 
ATOM     67  C   UNL A   1      36.826  30.580  29.130  1.00  0.00    -0.014 A 
ATOM     68  H   UNL A   1      37.389  32.566  28.658  1.00  0.00     0.063 H 
ATOM     69  H   UNL A   1      35.956  28.667  29.370  1.00  0.00     0.063 H 
BRANCH  67  70
ATOM     70  C   UNL A   1      38.045  30.239  29.900  1.00  0.00     0.031 A 
ATOM     71  C   UNL A   1      39.043  29.270  29.331  1.00  0.00     0.074 A 
ATOM     72  C   UNL A   1      38.213  30.738  31.139  1.00  0.00     0.049 A 
ATOM     73  N   UNL A   1      40.116  28.763  29.883  1.00  0.00    -0.248 NA
ATOM     74  C   UNL A   1      38.784  28.783  27.967  1.00  0.00    -0.034 C 
ATOM     75  C   UNL A   1      37.294  31.657  31.812  1.00  0.00    -0.036 A 
ATOM     76  N   UNL A   1      39.209  30.532  32.060  1.00  0.00    -0.354 N 
ATOM     77  C   UNL A   1      40.647  27.890  28.944  1.00  0.00     0.074 A 
ATOM     78  C   UNL A   1      39.749  27.891  27.809  1.00  0.00    -0.034 C 
ATOM     79  H   UNL A   1      38.042  29.063  27.306  1.00  0.00     0.065 H 
ATOM     80  C   UNL A   1      37.776  31.948  33.030  1.00  0.00    -0.036 A 
ATOM     81  H   UNL A   1      36.414  32.021  31.414  1.00  0.00     0.065 H 
ATOM     82  C   UNL A   1      39.013  31.203  33.242  1.00  0.00     0.049 A 
ATOM     83  H   UNL A   1      39.990  29.957  31.890  1.00  0.00     0.167 HD
ATOM     84  C   UNL A   1      41.790  27.170  29.013  1.00  0.00     0.037 A 
ATOM     85  H   UNL A   1      39.848  27.277  26.986  1.00  0.00     0.065 H 
ATOM     86  H   UNL A   1      37.342  32.595  33.708  1.00  0.00     0.065 H 
ATOM     87  C   UNL A   1      39.743  31.204  34.374  1.00  0.00     0.037 A 
ATOM     88  C   UNL A   1      42.687  27.189  30.139  1.00  0.00     0.049 A 
ATOM     89  C   UNL A   1      40.997  30.373  34.436  1.00  0.00     0.074 A 
ATOM     90  C   UNL A   1      43.900  26.540  30.288  1.00  0.00    -0.036 A 
ATOM     91  N   UNL A   1      42.462  27.893  31.315  1.00  0.00    -0.354 N 
ATOM     92  N   UNL A   1      41.527  29.603  33.517  1.00  0.00    -0.248 NA
ATOM     93  C   UNL A   1      41.759  30.418  35.692  1.00  0.00    -0.034 C 
ATOM     94  C   UNL A   1      44.381  26.806  31.574  1.00  0.00    -0.036 A 
ATOM     95  H   UNL A   1      44.368  25.961  29.574  1.00  0.00     0.065 H 
ATOM     96  C   UNL A   1      43.501  27.671  32.204  1.00  0.00     0.049 A 
ATOM     97  H   UNL A   1      41.679  28.464  31.491  1.00  0.00     0.167 HD
ATOM     98  C   UNL A   1      42.696  29.098  34.068  1.00  0.00     0.074 A 
ATOM     99  C   UNL A   1      42.806  29.658  35.399  1.00  0.00    -0.034 C 
ATOM    100  H   UNL A   1      41.537  30.910  36.571  1.00  0.00     0.065 H 
ATOM    101  H   UNL A   1      45.246  26.421  31.984  1.00  0.00     0.065 H 
ATOM    102  C   UNL A   1      43.601  28.250  33.521  1.00  0.00     0.037 A 
ATOM    103  H   UNL A   1      43.597  29.489  36.038  1.00  0.00     0.065 H 
BRANCH  84 104
ATOM    104  C   UNL A   1      42.136  26.298  27.839  1.00  0.00     0.064 A 
ATOM    105  C   UNL A   1      41.555  25.032  27.663  1.00  0.00     0.173 A 
ATOM    106  C   UNL A   1      43.039  26.745  26.862  1.00  0.00     0.173 A 
ATOM    107  F   UNL A   1      40.694  24.551  28.572  1.00  0.00    -0.203 F 
ATOM    108  C   UNL A   1      41.890  24.234  26.572  1.00  0.00     0.198 A 
ATOM    109  C   UNL A   1      43.344  25.959  25.754  1.00  0.00     0.198 A 
ATOM    110  F   UNL A   1      43.618  27.949  26.976  1.00  0.00    -0.203 F 
ATOM    111  F   UNL A   1      41.366  23.007  26.456  1.00  0.00    -0.200 F 
ATOM    112  C   UNL A   1      42.779  24.701  25.615  1.00  0.00     0.200 A 
ATOM    113  F   UNL A   1      44.191  26.418  24.822  1.00  0.00    -0.200 F 
ATOM    114  F   UNL A   1      43.095  23.935  24.563  1.00  0.00    -0.200 F 
ENDBRANCH  84 104
BRANCH  87 115
ATOM    115  C   UNL A   1      39.315  32.032  35.532  1.00  0.00     0.064 A 
ATOM    116  C   UNL A   1      38.457  31.510  36.510  1.00  0.00     0.173 A 
ATOM    117  C   UNL A   1      39.751  33.356  35.687  1.00  0.00     0.173 A 
ATOM    118  F   UNL A   1      37.998  30.255  36.397  1.00  0.00    -0.203 F 
ATOM    119  C   UNL A   1      38.033  32.287  37.586  1.00  0.00     0.198 A 
ATOM    120  C   UNL A   1      39.352  34.123  36.780  1.00  0.00     0.198 A 
ATOM    121  F   UNL A   1      40.577  33.901  34.782  1.00  0.00    -0.203 F 
ATOM    122  F   UNL A   1      37.175  31.778  38.480  1.00  0.00    -0.200 F 
ATOM    123  C   UNL A   1      38.486  33.591  37.723  1.00  0.00     0.200 A 
ATOM    124  F   UNL A   1      39.803  35.376  36.917  1.00  0.00    -0.200 F 
ATOM    125  F   UNL A   1      38.082  34.337  38.760  1.00  0.00    -0.200 F 
ENDBRANCH  87 115
BRANCH 102 126
ATOM    126  C   UNL A   1      44.815  27.910  34.336  1.00  0.00     0.064 A 
ATOM    127  C   UNL A   1      44.856  26.782  35.166  1.00  0.00     0.173 A 
ATOM    128  C   UNL A   1      45.974  28.695  34.235  1.00  0.00     0.173 A 
ATOM    129  F   UNL A   1      43.770  26.008  35.309  1.00  0.00    -0.203 F 
ATOM    130  C   UNL A   1      46.007  26.463  35.884  1.00  0.00     0.198 A 
ATOM    131  C   UNL A   1      47.133  28.355  34.927  1.00  0.00     0.198 A 
ATOM    132  F   UNL A   1      45.990  29.782  33.448  1.00  0.00    -0.203 F 
ATOM    133  F   UNL A   1      46.010  25.405  36.706  1.00  0.00    -0.200 F 
ATOM    134  C   UNL A   1      47.147  27.244  35.755  1.00  0.00     0.200 A 
ATOM    135  F   UNL A   1      48.238  29.101  34.788  1.00  0.00    -0.200 F 
ATOM    136  F   UNL A   1      48.257  26.926  36.434  1.00  0.00    -0.200 F 
ENDBRANCH 102 126
ENDBRANCH  67  70
ENDBRANCH  57  60
ENDBRANCH  53  56
ENDBRANCH  50  53
ENDBRANCH  47  50
ENDBRANCH   1  47
TORSDOF 18
ENDMDL
MODEL 6
REMARK VINA RESULT:     -12.1      0.832      2.179
REMARK SMILES CCc1cc(/C=C/C(=O)NCCCCCCNC(=O)c2ccc(-c3c4nc(c(-c5c(F)c(F)c(F)c(F)c5F)c5ccc([nH]5)c(-c5c(F)c(F)c(F)c(F)c5F)c5nc(c(-c6c(F)c(F)c(F)c(F)c6F)c6ccc3[nH]6)C=C5)C=C4)cc2)cc(C(=O)c2ccccc2)c1
REMARK SMILES IDX 13 1 12 4 11 7 10 10 8 11 9 12 7 14 6 15 5 18 3 19 4 20
REMARK SMILES IDX 93 21 84 23 83 25 2 27 1 30 85 34 86 35 87 36 88 37 92 38
REMARK SMILES IDX 89 39 91 41 90 43 14 47 15 50 16 53 17 56 18 57 19 59 20 60
REMARK SMILES IDX 21 61 82 62 22 63 81 65 23 67 24 70 25 71 75 72 26 73 80 74
REMARK SMILES IDX 74 75 76 76 27 77 79 78 73 80 72 82 28 84 60 87 40 88 59 89
REMARK SMILES IDX 41 90 44 91 58 92 77 93 42 94 43 96 57 98 78 99 45 102
REMARK SMILES IDX 29 104 30 105 38 106 31 107 32 108 36 109 39 110 33 111
REMARK SMILES IDX 34 112 37 113 35 114 61 115 62 116 70 117 63 118 64 119
REMARK SMILES IDX 68 120 71 121 65 122 66 123 69 124 67 125 46 126 47 127
REMARK SMILES IDX 55 128 48 129 49 130 53 131 56 132 50 133 51 134 54 135
REMARK SMILES IDX 52 136
REMARK H PARENT 13 2 13 3 12 5 12 6 11 8 11 9 10 13 6 16 7 17 4 22 93 24 83 26
REMARK H PARENT 2 28 2 29 1 31 1 32 1 33 88 40 92 42 89 44 91 45 90 46 14 48
REMARK H PARENT 14 49 15 51 15 52 16 54 16 55 17 58 21 64 82 66 22 68 81 69
REMARK H PARENT 80 79 74 81 76 83 79 85 73 86 41 95 44 97 77 100 42 101 78 103
REMARK Flexibility Score: inf
ROOT
ATOM      1  C   UNL A   1      31.236  26.539  25.692  1.00  0.00    -0.052 C 
ATOM      2  H   UNL A   1      30.941  25.514  25.606  1.00  0.00     0.027 H 
ATOM      3  H   UNL A   1      30.740  27.051  26.490  1.00  0.00     0.027 H 
ENDROOT
BRANCH   1   4
ATOM      4  C   UNL A   1      30.840  27.262  24.397  1.00  0.00    -0.036 C 
ATOM      5  H   UNL A   1      29.922  27.785  24.565  1.00  0.00     0.028 H 
ATOM      6  H   UNL A   1      31.639  27.929  24.147  1.00  0.00     0.028 H 
BRANCH   4   7
ATOM      7  C   UNL A   1      30.650  26.309  23.216  1.00  0.00     0.018 C 
ATOM      8  H   UNL A   1      30.760  25.299  23.555  1.00  0.00     0.049 H 
ATOM      9  H   UNL A   1      29.672  26.448  22.805  1.00  0.00     0.049 H 
BRANCH   7  10
ATOM     10  N   UNL A   1      31.639  26.584  22.193  1.00  0.00    -0.353 N 
ATOM     11  C   UNL A   1      32.753  25.915  21.809  1.00  0.00     0.243 C 
ATOM     12  O   UNL A   1      33.424  26.359  20.879  1.00  0.00    -0.270 OA
ATOM     13  H   UNL A   1      31.471  27.409  21.684  1.00  0.00     0.163 HD
BRANCH  11  14
ATOM     14  C   UNL A   1      33.151  24.625  22.418  1.00  0.00     0.003 C 
ATOM     15  C   UNL A   1      34.274  24.378  23.107  1.00  0.00    -0.049 C 
ATOM     16  H   UNL A   1      34.910  25.172  23.282  1.00  0.00     0.063 H 
ATOM     17  H   UNL A   1      32.497  23.835  22.299  1.00  0.00     0.068 H 
BRANCH  15  18
ATOM     18  C   UNL A   1      34.668  23.065  23.633  1.00  0.00    -0.024 A 
ATOM     19  C   UNL A   1      36.328  21.589  24.641  1.00  0.00    -0.047 A 
ATOM     20  C   UNL A   1      35.992  22.776  23.973  1.00  0.00    -0.052 A 
ATOM     21  C   UNL A   1      35.323  20.655  24.925  1.00  0.00    -0.048 A 
ATOM     22  H   UNL A   1      36.737  23.448  23.729  1.00  0.00     0.063 H 
ATOM     23  C   UNL A   1      33.991  20.927  24.587  1.00  0.00     0.023 A 
ATOM     24  H   UNL A   1      35.565  19.764  25.384  1.00  0.00     0.063 H 
ATOM     25  C   UNL A   1      33.674  22.126  23.934  1.00  0.00    -0.044 A 
ATOM     26  H   UNL A   1      32.694  22.320  23.672  1.00  0.00     0.064 H 
BRANCH  19  27
ATOM     27  C   UNL A   1      37.743  21.377  25.118  1.00  0.00    -0.031 C 
ATOM     28  H   UNL A   1      37.769  20.529  25.771  1.00  0.00     0.031 H 
ATOM     29  H   UNL A   1      38.370  21.212  24.266  1.00  0.00     0.031 H 
BRANCH  27  30
ATOM     30  C   UNL A   1      38.255  22.602  25.869  1.00  0.00    -0.061 C 
ATOM     31  H   UNL A   1      37.445  23.280  26.040  1.00  0.00     0.023 H 
ATOM     32  H   UNL A   1      39.010  23.088  25.287  1.00  0.00     0.023 H 
ATOM     33  H   UNL A   1      38.670  22.297  26.807  1.00  0.00     0.023 H 
ENDBRANCH  27  30
ENDBRANCH  19  27
BRANCH  23  34
ATOM     34  C   UNL A   1      32.877  19.989  24.906  1.00  0.00     0.193 C 
ATOM     35  O   UNL A   1      31.786  20.427  25.260  1.00  0.00    -0.289 OA
BRANCH  34  36
ATOM     36  C   UNL A   1      33.048  18.524  24.795  1.00  0.00     0.022 A 
ATOM     37  C   UNL A   1      33.542  17.999  23.597  1.00  0.00    -0.051 A 
ATOM     38  C   UNL A   1      32.709  17.670  25.852  1.00  0.00    -0.051 A 
ATOM     39  C   UNL A   1      33.748  16.626  23.475  1.00  0.00    -0.062 A 
ATOM     40  H   UNL A   1      33.752  18.627  22.805  1.00  0.00     0.063 H 
ATOM     41  C   UNL A   1      32.918  16.296  25.724  1.00  0.00    -0.062 A 
ATOM     42  H   UNL A   1      32.307  18.055  26.721  1.00  0.00     0.063 H 
ATOM     43  C   UNL A   1      33.446  15.777  24.541  1.00  0.00    -0.062 A 
ATOM     44  H   UNL A   1      34.126  16.237  22.597  1.00  0.00     0.062 H 
ATOM     45  H   UNL A   1      32.682  15.664  26.505  1.00  0.00     0.062 H 
ATOM     46  H   UNL A   1      33.613  14.762  24.454  1.00  0.00     0.062 H 
ENDBRANCH  34  36
ENDBRANCH  23  34
ENDBRANCH  15  18
ENDBRANCH  11  14
ENDBRANCH   7  10
ENDBRANCH   4   7
ENDBRANCH   1   4
BRANCH   1  47
ATOM     47  C   UNL A   1      32.735  26.580  26.013  1.00  0.00    -0.052 C 
ATOM     48  H   UNL A   1      33.273  26.645  25.090  1.00  0.00     0.027 H 
ATOM     49  H   UNL A   1      32.953  25.689  26.563  1.00  0.00     0.027 H 
BRANCH  47  50
ATOM     50  C   UNL A   1      33.164  27.752  26.899  1.00  0.00    -0.036 C 
ATOM     51  H   UNL A   1      33.699  27.362  27.740  1.00  0.00     0.028 H 
ATOM     52  H   UNL A   1      32.272  28.269  27.187  1.00  0.00     0.028 H 
BRANCH  50  53
ATOM     53  C   UNL A   1      34.054  28.763  26.189  1.00  0.00     0.018 C 
ATOM     54  H   UNL A   1      33.826  28.755  25.143  1.00  0.00     0.049 H 
ATOM     55  H   UNL A   1      35.076  28.488  26.355  1.00  0.00     0.049 H 
BRANCH  53  56
ATOM     56  N   UNL A   1      33.851  30.107  26.708  1.00  0.00    -0.352 N 
ATOM     57  C   UNL A   1      34.541  30.766  27.693  1.00  0.00     0.251 C 
ATOM     58  H   UNL A   1      33.114  30.613  26.296  1.00  0.00     0.163 HD
ATOM     59  O   UNL A   1      34.090  31.787  28.197  1.00  0.00    -0.269 OA
BRANCH  57  60
ATOM     60  C   UNL A   1      35.840  30.230  28.143  1.00  0.00     0.039 A 
ATOM     61  C   UNL A   1      36.942  30.301  27.287  1.00  0.00    -0.049 A 
ATOM     62  C   UNL A   1      35.963  29.653  29.410  1.00  0.00    -0.049 A 
ATOM     63  C   UNL A   1      38.183  29.839  27.724  1.00  0.00    -0.053 A 
ATOM     64  H   UNL A   1      36.838  30.693  26.338  1.00  0.00     0.063 H 
ATOM     65  C   UNL A   1      37.214  29.266  29.872  1.00  0.00    -0.053 A 
ATOM     66  H   UNL A   1      35.127  29.515  29.999  1.00  0.00     0.063 H 
ATOM     67  C   UNL A   1      38.334  29.347  29.032  1.00  0.00    -0.014 A 
ATOM     68  H   UNL A   1      38.994  29.861  27.086  1.00  0.00     0.063 H 
ATOM     69  H   UNL A   1      37.320  28.918  30.837  1.00  0.00     0.063 H 
BRANCH  67  70
ATOM     70  C   UNL A   1      39.651  28.895  29.540  1.00  0.00     0.031 A 
ATOM     71  C   UNL A   1      40.404  29.744  30.525  1.00  0.00     0.074 A 
ATOM     72  C   UNL A   1      40.201  27.765  29.057  1.00  0.00     0.049 A 
ATOM     73  N   UNL A   1      41.608  29.580  31.013  1.00  0.00    -0.248 NA
ATOM     74  C   UNL A   1      39.722  30.956  31.007  1.00  0.00    -0.034 C 
ATOM     75  C   UNL A   1      39.582  26.879  28.070  1.00  0.00    -0.036 A 
ATOM     76  N   UNL A   1      41.411  27.175  29.319  1.00  0.00    -0.354 N 
ATOM     77  C   UNL A   1      41.831  30.672  31.840  1.00  0.00     0.074 A 
ATOM     78  C   UNL A   1      40.663  31.521  31.746  1.00  0.00    -0.034 C 
ATOM     79  H   UNL A   1      38.761  31.281  30.816  1.00  0.00     0.065 H 
ATOM     80  C   UNL A   1      40.409  25.850  27.823  1.00  0.00    -0.036 A 
ATOM     81  H   UNL A   1      38.659  27.023  27.632  1.00  0.00     0.065 H 
ATOM     82  C   UNL A   1      41.632  26.028  28.598  1.00  0.00     0.049 A 
ATOM     83  H   UNL A   1      42.061  27.540  29.964  1.00  0.00     0.167 HD
ATOM     84  C   UNL A   1      42.904  30.931  32.623  1.00  0.00     0.037 A 
ATOM     85  H   UNL A   1      40.576  32.446  32.196  1.00  0.00     0.065 H 
ATOM     86  H   UNL A   1      40.211  25.062  27.187  1.00  0.00     0.065 H 
ATOM     87  C   UNL A   1      42.709  25.219  28.557  1.00  0.00     0.037 A 
ATOM     88  C   UNL A   1      44.054  30.071  32.724  1.00  0.00     0.049 A 
ATOM     89  C   UNL A   1      43.900  25.543  29.418  1.00  0.00     0.074 A 
ATOM     90  C   UNL A   1      45.170  30.213  33.530  1.00  0.00    -0.036 A 
ATOM     91  N   UNL A   1      44.236  28.909  31.987  1.00  0.00    -0.354 N 
ATOM     92  N   UNL A   1      44.075  26.543  30.248  1.00  0.00    -0.248 NA
ATOM     93  C   UNL A   1      45.044  24.623  29.340  1.00  0.00    -0.034 C 
ATOM     94  C   UNL A   1      46.052  29.167  33.240  1.00  0.00    -0.036 A 
ATOM     95  H   UNL A   1      45.324  30.960  34.224  1.00  0.00     0.065 H 
ATOM     96  C   UNL A   1      45.460  28.339  32.301  1.00  0.00     0.049 A 
ATOM     97  H   UNL A   1      43.592  28.544  31.338  1.00  0.00     0.167 HD
ATOM     98  C   UNL A   1      45.328  26.355  30.815  1.00  0.00     0.074 A 
ATOM     99  C   UNL A   1      45.867  25.140  30.242  1.00  0.00    -0.034 C 
ATOM    100  H   UNL A   1      45.171  23.793  28.740  1.00  0.00     0.065 H 
ATOM    101  H   UNL A   1      46.987  29.036  33.656  1.00  0.00     0.065 H 
ATOM    102  C   UNL A   1      45.974  27.118  31.730  1.00  0.00     0.037 A 
ATOM    103  H   UNL A   1      46.776  24.727  30.501  1.00  0.00     0.065 H 
BRANCH  84 104
ATOM    104  C   UNL A   1      42.885  32.198  33.432  1.00  0.00     0.064 A 
ATOM    105  C   UNL A   1      42.351  32.237  34.730  1.00  0.00     0.173 A 
ATOM    106  C   UNL A   1      43.434  33.380  32.915  1.00  0.00     0.173 A 
ATOM    107  F   UNL A   1      41.804  31.137  35.269  1.00  0.00    -0.203 F 
ATOM    108  C   UNL A   1      42.337  33.419  35.465  1.00  0.00     0.198 A 
ATOM    109  C   UNL A   1      43.450  34.553  33.666  1.00  0.00     0.198 A 
ATOM    110  F   UNL A   1      43.965  33.399  31.683  1.00  0.00    -0.203 F 
ATOM    111  F   UNL A   1      41.769  33.445  36.678  1.00  0.00    -0.200 F 
ATOM    112  C   UNL A   1      42.892  34.574  34.935  1.00  0.00     0.200 A 
ATOM    113  F   UNL A   1      44.002  35.664  33.159  1.00  0.00    -0.200 F 
ATOM    114  F   UNL A   1      42.884  35.710  35.646  1.00  0.00    -0.200 F 
ENDBRANCH  84 104
BRANCH  87 115
ATOM    115  C   UNL A   1      42.700  24.016  27.684  1.00  0.00     0.064 A 
ATOM    116  C   UNL A   1      42.356  22.758  28.198  1.00  0.00     0.173 A 
ATOM    117  C   UNL A   1      43.037  24.095  26.324  1.00  0.00     0.173 A 
ATOM    118  F   UNL A   1      42.045  22.627  29.496  1.00  0.00    -0.203 F 
ATOM    119  C   UNL A   1      42.369  21.622  27.391  1.00  0.00     0.198 A 
ATOM    120  C   UNL A   1      43.020  22.963  25.511  1.00  0.00     0.198 A 
ATOM    121  F   UNL A   1      43.369  25.275  25.782  1.00  0.00    -0.203 F 
ATOM    122  F   UNL A   1      42.082  20.425  27.919  1.00  0.00    -0.200 F 
ATOM    123  C   UNL A   1      42.695  21.726  26.048  1.00  0.00     0.200 A 
ATOM    124  F   UNL A   1      43.320  23.071  24.210  1.00  0.00    -0.200 F 
ATOM    125  F   UNL A   1      42.704  20.635  25.271  1.00  0.00    -0.200 F 
ENDBRANCH  87 115
BRANCH 102 126
ATOM    126  C   UNL A   1      47.314  26.642  32.210  1.00  0.00     0.064 A 
ATOM    127  C   UNL A   1      48.509  27.091  31.631  1.00  0.00     0.173 A 
ATOM    128  C   UNL A   1      47.401  25.768  33.305  1.00  0.00     0.173 A 
ATOM    129  F   UNL A   1      48.480  27.915  30.573  1.00  0.00    -0.203 F 
ATOM    130  C   UNL A   1      49.743  26.666  32.118  1.00  0.00     0.198 A 
ATOM    131  C   UNL A   1      48.636  25.371  33.810  1.00  0.00     0.198 A 
ATOM    132  F   UNL A   1      46.288  25.314  33.900  1.00  0.00    -0.203 F 
ATOM    133  F   UNL A   1      50.873  27.072  31.522  1.00  0.00    -0.200 F 
ATOM    134  C   UNL A   1      49.806  25.815  33.212  1.00  0.00     0.200 A 
ATOM    135  F   UNL A   1      48.694  24.564  34.878  1.00  0.00    -0.200 F 
ATOM    136  F   UNL A   1      50.995  25.421  33.688  1.00  0.00    -0.200 F 
ENDBRANCH 102 126
ENDBRANCH  67  70
ENDBRANCH  57  60
ENDBRANCH  53  56
ENDBRANCH  50  53
ENDBRANCH  47  50
ENDBRANCH   1  47
TORSDOF 18
ENDMDL
MODEL 7
REMARK VINA RESULT:     -11.9      4.100      6.522
REMARK SMILES CCc1cc(/C=C/C(=O)NCCCCCCNC(=O)c2ccc(-c3c4nc(c(-c5c(F)c(F)c(F)c(F)c5F)c5ccc([nH]5)c(-c5c(F)c(F)c(F)c(F)c5F)c5nc(c(-c6c(F)c(F)c(F)c(F)c6F)c6ccc3[nH]6)C=C5)C=C4)cc2)cc(C(=O)c2ccccc2)c1
REMARK SMILES IDX 13 1 12 4 11 7 10 10 8 11 9 12 7 14 6 15 5 18 3 19 4 20
REMARK SMILES IDX 93 21 84 23 83 25 2 27 1 30 85 34 86 35 87 36 88 37 92 38
REMARK SMILES IDX 89 39 91 41 90 43 14 47 15 50 16 53 17 56 18 57 19 59 20 60
REMARK SMILES IDX 21 61 82 62 22 63 81 65 23 67 24 70 25 71 75 72 26 73 80 74
REMARK SMILES IDX 74 75 76 76 27 77 79 78 73 80 72 82 28 84 60 87 40 88 59 89
REMARK SMILES IDX 41 90 44 91 58 92 77 93 42 94 43 96 57 98 78 99 45 102
REMARK SMILES IDX 29 104 30 105 38 106 31 107 32 108 36 109 39 110 33 111
REMARK SMILES IDX 34 112 37 113 35 114 61 115 62 116 70 117 63 118 64 119
REMARK SMILES IDX 68 120 71 121 65 122 66 123 69 124 67 125 46 126 47 127
REMARK SMILES IDX 55 128 48 129 49 130 53 131 56 132 50 133 51 134 54 135
REMARK SMILES IDX 52 136
REMARK H PARENT 13 2 13 3 12 5 12 6 11 8 11 9 10 13 6 16 7 17 4 22 93 24 83 26
REMARK H PARENT 2 28 2 29 1 31 1 32 1 33 88 40 92 42 89 44 91 45 90 46 14 48
REMARK H PARENT 14 49 15 51 15 52 16 54 16 55 17 58 21 64 82 66 22 68 81 69
REMARK H PARENT 80 79 74 81 76 83 79 85 73 86 41 95 44 97 77 100 42 101 78 103
REMARK Flexibility Score: inf
ROOT
ATOM      1  C   UNL A   1      34.682  32.838  28.942  1.00  0.00    -0.052 C 
ATOM      2  H   UNL A   1      35.088  32.779  29.931  1.00  0.00     0.027 H 
ATOM      3  H   UNL A   1      33.700  32.419  28.868  1.00  0.00     0.027 H 
ENDROOT
BRANCH   1   4
ATOM      4  C   UNL A   1      35.579  32.018  28.005  1.00  0.00    -0.036 C 
ATOM      5  H   UNL A   1      35.666  32.538  27.074  1.00  0.00     0.028 H 
ATOM      6  H   UNL A   1      36.527  31.904  28.489  1.00  0.00     0.028 H 
BRANCH   4   7
ATOM      7  C   UNL A   1      35.033  30.616  27.731  1.00  0.00     0.018 C 
ATOM      8  H   UNL A   1      35.807  30.011  27.306  1.00  0.00     0.049 H 
ATOM      9  H   UNL A   1      34.698  30.182  28.651  1.00  0.00     0.049 H 
BRANCH   7  10
ATOM     10  N   UNL A   1      33.918  30.690  26.808  1.00  0.00    -0.353 N 
ATOM     11  C   UNL A   1      33.267  29.737  26.098  1.00  0.00     0.243 C 
ATOM     12  O   UNL A   1      32.318  30.067  25.387  1.00  0.00    -0.270 OA
ATOM     13  H   UNL A   1      33.571  31.601  26.671  1.00  0.00     0.163 HD
BRANCH  11  14
ATOM     14  C   UNL A   1      33.605  28.300  26.206  1.00  0.00     0.003 C 
ATOM     15  C   UNL A   1      33.086  27.299  25.481  1.00  0.00    -0.049 C 
ATOM     16  H   UNL A   1      32.418  27.549  24.734  1.00  0.00     0.063 H 
ATOM     17  H   UNL A   1      34.313  28.042  26.912  1.00  0.00     0.068 H 
BRANCH  15  18
ATOM     18  C   UNL A   1      33.394  25.875  25.668  1.00  0.00    -0.024 A 
ATOM     19  C   UNL A   1      32.741  23.634  26.375  1.00  0.00    -0.047 A 
ATOM     20  C   UNL A   1      32.530  25.021  26.358  1.00  0.00    -0.052 A 
ATOM     21  C   UNL A   1      33.867  23.105  25.730  1.00  0.00    -0.048 A 
ATOM     22  H   UNL A   1      31.722  25.416  26.864  1.00  0.00     0.063 H 
ATOM     23  C   UNL A   1      34.744  23.948  25.038  1.00  0.00     0.023 A 
ATOM     24  H   UNL A   1      34.049  22.091  25.768  1.00  0.00     0.063 H 
ATOM     25  C   UNL A   1      34.508  25.330  25.019  1.00  0.00    -0.044 A 
ATOM     26  H   UNL A   1      35.163  25.952  24.521  1.00  0.00     0.064 H 
BRANCH  19  27
ATOM     27  C   UNL A   1      31.711  22.731  27.008  1.00  0.00    -0.031 C 
ATOM     28  H   UNL A   1      31.810  21.747  26.599  1.00  0.00     0.031 H 
ATOM     29  H   UNL A   1      31.877  22.714  28.066  1.00  0.00     0.031 H 
BRANCH  27  30
ATOM     30  C   UNL A   1      30.300  23.244  26.744  1.00  0.00    -0.061 C 
ATOM     31  H   UNL A   1      30.172  24.197  27.213  1.00  0.00     0.023 H 
ATOM     32  H   UNL A   1      29.588  22.552  27.143  1.00  0.00     0.023 H 
ATOM     33  H   UNL A   1      30.148  23.342  25.689  1.00  0.00     0.023 H 
ENDBRANCH  27  30
ENDBRANCH  19  27
BRANCH  23  34
ATOM     34  C   UNL A   1      35.932  23.432  24.298  1.00  0.00     0.193 C 
ATOM     35  O   UNL A   1      35.939  23.430  23.070  1.00  0.00    -0.289 OA
BRANCH  34  36
ATOM     36  C   UNL A   1      37.125  22.927  25.012  1.00  0.00     0.022 A 
ATOM     37  C   UNL A   1      37.500  21.593  24.823  1.00  0.00    -0.051 A 
ATOM     38  C   UNL A   1      37.859  23.750  25.874  1.00  0.00    -0.051 A 
ATOM     39  C   UNL A   1      38.640  21.097  25.453  1.00  0.00    -0.062 A 
ATOM     40  H   UNL A   1      36.932  20.977  24.219  1.00  0.00     0.063 H 
ATOM     41  C   UNL A   1      39.000  23.248  26.503  1.00  0.00    -0.062 A 
ATOM     42  H   UNL A   1      37.558  24.722  26.044  1.00  0.00     0.063 H 
ATOM     43  C   UNL A   1      39.394  21.928  26.284  1.00  0.00    -0.062 A 
ATOM     44  H   UNL A   1      38.927  20.118  25.305  1.00  0.00     0.062 H 
ATOM     45  H   UNL A   1      39.553  23.855  27.129  1.00  0.00     0.062 H 
ATOM     46  H   UNL A   1      40.247  21.563  26.739  1.00  0.00     0.062 H 
ENDBRANCH  34  36
ENDBRANCH  23  34
ENDBRANCH  15  18
ENDBRANCH  11  14
ENDBRANCH   7  10
ENDBRANCH   4   7
ENDBRANCH   1   4
BRANCH   1  47
ATOM     47  C   UNL A   1      34.552  34.319  28.566  1.00  0.00    -0.052 C 
ATOM     48  H   UNL A   1      34.676  34.407  27.506  1.00  0.00     0.027 H 
ATOM     49  H   UNL A   1      35.305  34.840  29.120  1.00  0.00     0.027 H 
BRANCH  47  50
ATOM     50  C   UNL A   1      33.214  34.957  28.946  1.00  0.00    -0.036 C 
ATOM     51  H   UNL A   1      32.708  34.302  29.625  1.00  0.00     0.028 H 
ATOM     52  H   UNL A   1      32.668  35.104  28.038  1.00  0.00     0.028 H 
BRANCH  50  53
ATOM     53  C   UNL A   1      33.352  36.322  29.608  1.00  0.00     0.018 C 
ATOM     54  H   UNL A   1      33.058  37.079  28.911  1.00  0.00     0.049 H 
ATOM     55  H   UNL A   1      34.374  36.453  29.900  1.00  0.00     0.049 H 
BRANCH  53  56
ATOM     56  N   UNL A   1      32.519  36.423  30.796  1.00  0.00    -0.352 N 
ATOM     57  C   UNL A   1      32.602  35.722  31.972  1.00  0.00     0.251 C 
ATOM     58  H   UNL A   1      31.793  37.087  30.748  1.00  0.00     0.163 HD
ATOM     59  O   UNL A   1      31.676  35.733  32.773  1.00  0.00    -0.269 OA
BRANCH  57  60
ATOM     60  C   UNL A   1      33.824  34.948  32.263  1.00  0.00     0.039 A 
ATOM     61  C   UNL A   1      35.064  35.591  32.222  1.00  0.00    -0.049 A 
ATOM     62  C   UNL A   1      33.740  33.588  32.571  1.00  0.00    -0.049 A 
ATOM     63  C   UNL A   1      36.219  34.877  32.542  1.00  0.00    -0.053 A 
ATOM     64  H   UNL A   1      35.125  36.586  31.956  1.00  0.00     0.063 H 
ATOM     65  C   UNL A   1      34.879  32.899  32.965  1.00  0.00    -0.053 A 
ATOM     66  H   UNL A   1      32.835  33.097  32.505  1.00  0.00     0.063 H 
ATOM     67  C   UNL A   1      36.131  33.534  32.947  1.00  0.00    -0.014 A 
ATOM     68  H   UNL A   1      37.141  35.337  32.484  1.00  0.00     0.063 H 
ATOM     69  H   UNL A   1      34.806  31.918  33.273  1.00  0.00     0.063 H 
BRANCH  67  70
ATOM     70  C   UNL A   1      37.335  32.764  33.340  1.00  0.00     0.031 A 
ATOM     71  C   UNL A   1      38.041  33.086  34.627  1.00  0.00     0.074 A 
ATOM     72  C   UNL A   1      37.835  31.834  32.505  1.00  0.00     0.049 A 
ATOM     73  N   UNL A   1      39.161  32.604  35.102  1.00  0.00    -0.248 NA
ATOM     74  C   UNL A   1      37.418  34.109  35.482  1.00  0.00    -0.034 C 
ATOM     75  C   UNL A   1      37.259  31.462  31.212  1.00  0.00    -0.036 A 
ATOM     76  N   UNL A   1      38.950  31.043  32.611  1.00  0.00    -0.354 N 
ATOM     77  C   UNL A   1      39.383  33.275  36.297  1.00  0.00     0.074 A 
ATOM     78  C   UNL A   1      38.313  34.237  36.448  1.00  0.00    -0.034 C 
ATOM     79  H   UNL A   1      36.517  34.599  35.360  1.00  0.00     0.065 H 
ATOM     80  C   UNL A   1      38.014  30.504  30.653  1.00  0.00    -0.036 A 
ATOM     81  H   UNL A   1      36.409  31.872  30.795  1.00  0.00     0.065 H 
ATOM     82  C   UNL A   1      39.151  30.226  31.525  1.00  0.00     0.049 A 
ATOM     83  H   UNL A   1      39.550  31.058  33.392  1.00  0.00     0.167 HD
ATOM     84  C   UNL A   1      40.376  33.089  37.197  1.00  0.00     0.037 A 
ATOM     85  H   UNL A   1      38.256  34.933  37.209  1.00  0.00     0.065 H 
ATOM     86  H   UNL A   1      37.823  30.038  29.752  1.00  0.00     0.065 H 
ATOM     87  C   UNL A   1      40.149  29.362  31.259  1.00  0.00     0.037 A 
ATOM     88  C   UNL A   1      41.427  32.116  37.047  1.00  0.00     0.049 A 
ATOM     89  C   UNL A   1      41.257  29.193  32.263  1.00  0.00     0.074 A 
ATOM     90  C   UNL A   1      42.450  31.808  37.926  1.00  0.00    -0.036 A 
ATOM     91  N   UNL A   1      41.590  31.296  35.938  1.00  0.00    -0.354 N 
ATOM     92  N   UNL A   1      41.422  29.783  33.422  1.00  0.00    -0.248 NA
ATOM     93  C   UNL A   1      42.317  28.231  31.925  1.00  0.00    -0.034 C 
ATOM     94  C   UNL A   1      43.264  30.843  37.325  1.00  0.00    -0.036 A 
ATOM     95  H   UNL A   1      42.588  32.219  38.862  1.00  0.00     0.065 H 
ATOM     96  C   UNL A   1      42.714  30.502  36.100  1.00  0.00     0.049 A 
ATOM     97  H   UNL A   1      40.995  31.282  35.153  1.00  0.00     0.167 HD
ATOM     98  C   UNL A   1      42.580  29.243  33.965  1.00  0.00     0.074 A 
ATOM     99  C   UNL A   1      43.073  28.269  33.014  1.00  0.00    -0.034 C 
ATOM    100  H   UNL A   1      42.439  27.674  31.065  1.00  0.00     0.065 H 
ATOM    101  H   UNL A   1      44.130  30.451  37.727  1.00  0.00     0.065 H 
ATOM    102  C   UNL A   1      43.181  29.526  35.147  1.00  0.00     0.037 A 
ATOM    103  H   UNL A   1      43.905  27.679  33.163  1.00  0.00     0.065 H 
BRANCH  84 104
ATOM    104  C   UNL A   1      40.376  33.957  38.424  1.00  0.00     0.064 A 
ATOM    105  C   UNL A   1      39.673  33.596  39.583  1.00  0.00     0.173 A 
ATOM    106  C   UNL A   1      41.112  35.151  38.450  1.00  0.00     0.173 A 
ATOM    107  F   UNL A   1      38.944  32.469  39.609  1.00  0.00    -0.203 F 
ATOM    108  C   UNL A   1      39.678  34.414  40.710  1.00  0.00     0.198 A 
ATOM    109  C   UNL A   1      41.145  35.949  39.591  1.00  0.00     0.198 A 
ATOM    110  F   UNL A   1      41.809  35.542  37.373  1.00  0.00    -0.203 F 
ATOM    111  F   UNL A   1      38.953  34.076  41.784  1.00  0.00    -0.200 F 
ATOM    112  C   UNL A   1      40.420  35.586  40.715  1.00  0.00     0.200 A 
ATOM    113  F   UNL A   1      41.874  37.074  39.600  1.00  0.00    -0.200 F 
ATOM    114  F   UNL A   1      40.430  36.368  41.803  1.00  0.00    -0.200 F 
ENDBRANCH  84 104
BRANCH  87 115
ATOM    115  C   UNL A   1      40.136  28.579  29.995  1.00  0.00     0.064 A 
ATOM    116  C   UNL A   1      40.751  29.074  28.837  1.00  0.00     0.173 A 
ATOM    117  C   UNL A   1      39.510  27.326  29.916  1.00  0.00     0.173 A 
ATOM    118  F   UNL A   1      41.346  30.276  28.856  1.00  0.00    -0.203 F 
ATOM    119  C   UNL A   1      40.723  28.357  27.643  1.00  0.00     0.198 A 
ATOM    120  C   UNL A   1      39.508  26.595  28.729  1.00  0.00     0.198 A 
ATOM    121  F   UNL A   1      38.911  26.805  30.996  1.00  0.00    -0.203 F 
ATOM    122  F   UNL A   1      41.277  28.875  26.539  1.00  0.00    -0.200 F 
ATOM    123  C   UNL A   1      40.106  27.116  27.592  1.00  0.00     0.200 A 
ATOM    124  F   UNL A   1      38.926  25.390  28.688  1.00  0.00    -0.200 F 
ATOM    125  F   UNL A   1      40.082  26.424  26.444  1.00  0.00    -0.200 F 
ENDBRANCH  87 115
BRANCH 102 126
ATOM    126  C   UNL A   1      44.410  28.741  35.506  1.00  0.00     0.064 A 
ATOM    127  C   UNL A   1      45.695  29.182  35.164  1.00  0.00     0.173 A 
ATOM    128  C   UNL A   1      44.297  27.560  36.257  1.00  0.00     0.173 A 
ATOM    129  F   UNL A   1      45.855  30.297  34.434  1.00  0.00    -0.203 F 
ATOM    130  C   UNL A   1      46.824  28.459  35.541  1.00  0.00     0.198 A 
ATOM    131  C   UNL A   1      45.429  26.858  36.662  1.00  0.00     0.198 A 
ATOM    132  F   UNL A   1      43.091  27.098  36.617  1.00  0.00    -0.203 F 
ATOM    133  F   UNL A   1      48.041  28.875  35.166  1.00  0.00    -0.200 F 
ATOM    134  C   UNL A   1      46.690  27.304  36.298  1.00  0.00     0.200 A 
ATOM    135  F   UNL A   1      45.299  25.752  37.407  1.00  0.00    -0.200 F 
ATOM    136  F   UNL A   1      47.779  26.619  36.674  1.00  0.00    -0.200 F 
ENDBRANCH 102 126
ENDBRANCH  67  70
ENDBRANCH  57  60
ENDBRANCH  53  56
ENDBRANCH  50  53
ENDBRANCH  47  50
ENDBRANCH   1  47
TORSDOF 18
ENDMDL
MODEL 8
REMARK VINA RESULT:     -11.8      4.336      7.498
REMARK SMILES CCc1cc(/C=C/C(=O)NCCCCCCNC(=O)c2ccc(-c3c4nc(c(-c5c(F)c(F)c(F)c(F)c5F)c5ccc([nH]5)c(-c5c(F)c(F)c(F)c(F)c5F)c5nc(c(-c6c(F)c(F)c(F)c(F)c6F)c6ccc3[nH]6)C=C5)C=C4)cc2)cc(C(=O)c2ccccc2)c1
REMARK SMILES IDX 13 1 12 4 11 7 10 10 8 11 9 12 7 14 6 15 5 18 3 19 4 20
REMARK SMILES IDX 93 21 84 23 83 25 2 27 1 30 85 34 86 35 87 36 88 37 92 38
REMARK SMILES IDX 89 39 91 41 90 43 14 47 15 50 16 53 17 56 18 57 19 59 20 60
REMARK SMILES IDX 21 61 82 62 22 63 81 65 23 67 24 70 25 71 75 72 26 73 80 74
REMARK SMILES IDX 74 75 76 76 27 77 79 78 73 80 72 82 28 84 60 87 40 88 59 89
REMARK SMILES IDX 41 90 44 91 58 92 77 93 42 94 43 96 57 98 78 99 45 102
REMARK SMILES IDX 29 104 30 105 38 106 31 107 32 108 36 109 39 110 33 111
REMARK SMILES IDX 34 112 37 113 35 114 61 115 62 116 70 117 63 118 64 119
REMARK SMILES IDX 68 120 71 121 65 122 66 123 69 124 67 125 46 126 47 127
REMARK SMILES IDX 55 128 48 129 49 130 53 131 56 132 50 133 51 134 54 135
REMARK SMILES IDX 52 136
REMARK H PARENT 13 2 13 3 12 5 12 6 11 8 11 9 10 13 6 16 7 17 4 22 93 24 83 26
REMARK H PARENT 2 28 2 29 1 31 1 32 1 33 88 40 92 42 89 44 91 45 90 46 14 48
REMARK H PARENT 14 49 15 51 15 52 16 54 16 55 17 58 21 64 82 66 22 68 81 69
REMARK H PARENT 80 79 74 81 76 83 79 85 73 86 41 95 44 97 77 100 42 101 78 103
REMARK Flexibility Score: inf
ROOT
ATOM      1  C   UNL A   1      35.006  34.085  28.091  1.00  0.00    -0.052 C 
ATOM      2  H   UNL A   1      35.208  33.782  27.085  1.00  0.00     0.027 H 
ATOM      3  H   UNL A   1      35.886  34.140  28.696  1.00  0.00     0.027 H 
ENDROOT
BRANCH   1   4
ATOM      4  C   UNL A   1      34.097  33.030  28.736  1.00  0.00    -0.036 C 
ATOM      5  H   UNL A   1      34.522  32.741  29.674  1.00  0.00     0.028 H 
ATOM      6  H   UNL A   1      33.130  33.472  28.857  1.00  0.00     0.028 H 
BRANCH   4   7
ATOM      7  C   UNL A   1      33.926  31.780  27.872  1.00  0.00     0.018 C 
ATOM      8  H   UNL A   1      33.064  31.238  28.200  1.00  0.00     0.049 H 
ATOM      9  H   UNL A   1      33.803  32.073  26.850  1.00  0.00     0.049 H 
BRANCH   7  10
ATOM     10  N   UNL A   1      35.098  30.935  27.986  1.00  0.00    -0.353 N 
ATOM     11  C   UNL A   1      35.368  29.695  27.512  1.00  0.00     0.243 C 
ATOM     12  O   UNL A   1      36.472  29.199  27.736  1.00  0.00    -0.270 OA
ATOM     13  H   UNL A   1      35.833  31.337  28.504  1.00  0.00     0.163 HD
BRANCH  11  14
ATOM     14  C   UNL A   1      34.411  28.944  26.667  1.00  0.00     0.003 C 
ATOM     15  C   UNL A   1      33.349  28.244  27.090  1.00  0.00    -0.049 C 
ATOM     16  H   UNL A   1      33.137  28.264  28.100  1.00  0.00     0.063 H 
ATOM     17  H   UNL A   1      34.579  28.962  25.649  1.00  0.00     0.068 H 
BRANCH  15  18
ATOM     18  C   UNL A   1      32.465  27.451  26.226  1.00  0.00    -0.024 A 
ATOM     19  C   UNL A   1      31.045  25.504  25.853  1.00  0.00    -0.047 A 
ATOM     20  C   UNL A   1      32.029  26.176  26.594  1.00  0.00    -0.052 A 
ATOM     21  C   UNL A   1      30.530  26.103  24.696  1.00  0.00    -0.048 A 
ATOM     22  H   UNL A   1      32.437  25.719  27.425  1.00  0.00     0.063 H 
ATOM     23  C   UNL A   1      30.960  27.379  24.312  1.00  0.00     0.023 A 
ATOM     24  H   UNL A   1      29.833  25.602  24.126  1.00  0.00     0.063 H 
ATOM     25  C   UNL A   1      31.932  28.042  25.074  1.00  0.00    -0.044 A 
ATOM     26  H   UNL A   1      32.260  28.976  24.782  1.00  0.00     0.064 H 
BRANCH  19  27
ATOM     27  C   UNL A   1      30.497  24.193  26.359  1.00  0.00    -0.031 C 
ATOM     28  H   UNL A   1      30.041  24.350  27.315  1.00  0.00     0.031 H 
ATOM     29  H   UNL A   1      29.775  23.831  25.657  1.00  0.00     0.031 H 
BRANCH  27  30
ATOM     30  C   UNL A   1      31.605  23.155  26.498  1.00  0.00    -0.061 C 
ATOM     31  H   UNL A   1      31.788  22.698  25.548  1.00  0.00     0.023 H 
ATOM     32  H   UNL A   1      31.307  22.406  27.201  1.00  0.00     0.023 H 
ATOM     33  H   UNL A   1      32.499  23.632  26.842  1.00  0.00     0.023 H 
ENDBRANCH  27  30
ENDBRANCH  19  27
BRANCH  23  34
ATOM     34  C   UNL A   1      30.412  28.081  23.115  1.00  0.00     0.193 C 
ATOM     35  O   UNL A   1      30.752  27.731  21.988  1.00  0.00    -0.289 OA
BRANCH  34  36
ATOM     36  C   UNL A   1      29.449  29.196  23.249  1.00  0.00     0.022 A 
ATOM     37  C   UNL A   1      29.900  30.406  23.783  1.00  0.00    -0.051 A 
ATOM     38  C   UNL A   1      28.109  29.048  22.870  1.00  0.00    -0.051 A 
ATOM     39  C   UNL A   1      29.026  31.487  23.888  1.00  0.00    -0.062 A 
ATOM     40  H   UNL A   1      30.879  30.499  24.100  1.00  0.00     0.063 H 
ATOM     41  C   UNL A   1      27.238  30.133  22.977  1.00  0.00    -0.062 A 
ATOM     42  H   UNL A   1      27.769  28.142  22.514  1.00  0.00     0.063 H 
ATOM     43  C   UNL A   1      27.698  31.352  23.476  1.00  0.00    -0.062 A 
ATOM     44  H   UNL A   1      29.359  32.386  24.268  1.00  0.00     0.062 H 
ATOM     45  H   UNL A   1      26.252  30.033  22.687  1.00  0.00     0.062 H 
ATOM     46  H   UNL A   1      27.056  32.157  23.541  1.00  0.00     0.062 H 
ENDBRANCH  34  36
ENDBRANCH  23  34
ENDBRANCH  15  18
ENDBRANCH  11  14
ENDBRANCH   7  10
ENDBRANCH   4   7
ENDBRANCH   1   4
BRANCH   1  47
ATOM     47  C   UNL A   1      34.414  35.500  28.054  1.00  0.00    -0.052 C 
ATOM     48  H   UNL A   1      34.134  35.719  27.044  1.00  0.00     0.027 H 
ATOM     49  H   UNL A   1      35.170  36.156  28.431  1.00  0.00     0.027 H 
BRANCH  47  50
ATOM     50  C   UNL A   1      33.184  35.698  28.944  1.00  0.00    -0.036 C 
ATOM     51  H   UNL A   1      32.936  34.758  29.391  1.00  0.00     0.028 H 
ATOM     52  H   UNL A   1      32.401  36.071  28.317  1.00  0.00     0.028 H 
BRANCH  50  53
ATOM     53  C   UNL A   1      33.390  36.720  30.054  1.00  0.00     0.018 C 
ATOM     54  H   UNL A   1      33.265  37.703  29.651  1.00  0.00     0.049 H 
ATOM     55  H   UNL A   1      34.378  36.595  30.448  1.00  0.00     0.049 H 
BRANCH  53  56
ATOM     56  N   UNL A   1      32.437  36.527  31.136  1.00  0.00    -0.352 N 
ATOM     57  C   UNL A   1      32.455  35.602  32.149  1.00  0.00     0.251 C 
ATOM     58  H   UNL A   1      31.672  37.147  31.142  1.00  0.00     0.163 HD
ATOM     59  O   UNL A   1      31.456  35.397  32.826  1.00  0.00    -0.269 OA
BRANCH  57  60
ATOM     60  C   UNL A   1      33.697  34.850  32.414  1.00  0.00     0.039 A 
ATOM     61  C   UNL A   1      34.930  35.483  32.231  1.00  0.00    -0.049 A 
ATOM     62  C   UNL A   1      33.639  33.520  32.839  1.00  0.00    -0.049 A 
ATOM     63  C   UNL A   1      36.106  34.793  32.525  1.00  0.00    -0.053 A 
ATOM     64  H   UNL A   1      34.969  36.452  31.881  1.00  0.00     0.063 H 
ATOM     65  C   UNL A   1      34.805  32.862  33.205  1.00  0.00    -0.053 A 
ATOM     66  H   UNL A   1      32.732  33.029  32.879  1.00  0.00     0.063 H 
ATOM     67  C   UNL A   1      36.050  33.488  33.044  1.00  0.00    -0.014 A 
ATOM     68  H   UNL A   1      37.020  35.244  32.363  1.00  0.00     0.063 H 
ATOM     69  H   UNL A   1      34.756  31.910  33.598  1.00  0.00     0.063 H 
BRANCH  67  70
ATOM     70  C   UNL A   1      37.281  32.749  33.412  1.00  0.00     0.031 A 
ATOM     71  C   UNL A   1      37.984  33.063  34.703  1.00  0.00     0.074 A 
ATOM     72  C   UNL A   1      37.807  31.858  32.551  1.00  0.00     0.049 A 
ATOM     73  N   UNL A   1      39.122  32.606  35.160  1.00  0.00    -0.248 NA
ATOM     74  C   UNL A   1      37.333  34.042  35.587  1.00  0.00    -0.034 C 
ATOM     75  C   UNL A   1      37.236  31.499  31.252  1.00  0.00    -0.036 A 
ATOM     76  N   UNL A   1      38.948  31.101  32.632  1.00  0.00    -0.354 N 
ATOM     77  C   UNL A   1      39.329  33.254  36.371  1.00  0.00     0.074 A 
ATOM     78  C   UNL A   1      38.229  34.176  36.551  1.00  0.00    -0.034 C 
ATOM     79  H   UNL A   1      36.416  34.505  35.481  1.00  0.00     0.065 H 
ATOM     80  C   UNL A   1      38.019  30.580  30.666  1.00  0.00    -0.036 A 
ATOM     81  H   UNL A   1      36.370  31.891  30.851  1.00  0.00     0.065 H 
ATOM     82  C   UNL A   1      39.169  30.319  31.525  1.00  0.00     0.049 A 
ATOM     83  H   UNL A   1      39.552  31.117  33.410  1.00  0.00     0.167 HD
ATOM     84  C   UNL A   1      40.334  33.078  37.260  1.00  0.00     0.037 A 
ATOM     85  H   UNL A   1      38.154  34.850  37.329  1.00  0.00     0.065 H 
ATOM     86  H   UNL A   1      37.837  30.131  29.755  1.00  0.00     0.065 H 
ATOM     87  C   UNL A   1      40.194  29.495  31.232  1.00  0.00     0.037 A 
ATOM     88  C   UNL A   1      41.414  32.145  37.080  1.00  0.00     0.049 A 
ATOM     89  C   UNL A   1      41.313  29.337  32.226  1.00  0.00     0.074 A 
ATOM     90  C   UNL A   1      42.452  31.849  37.946  1.00  0.00    -0.036 A 
ATOM     91  N   UNL A   1      41.598  31.358  35.951  1.00  0.00    -0.354 N 
ATOM     92  N   UNL A   1      41.465  29.903  33.399  1.00  0.00    -0.248 NA
ATOM     93  C   UNL A   1      42.401  28.420  31.858  1.00  0.00    -0.034 C 
ATOM     94  C   UNL A   1      43.294  30.926  37.317  1.00  0.00    -0.036 A 
ATOM     95  H   UNL A   1      42.583  32.241  38.891  1.00  0.00     0.065 H 
ATOM     96  C   UNL A   1      42.748  30.598  36.087  1.00  0.00     0.049 A 
ATOM     97  H   UNL A   1      40.999  31.344  35.169  1.00  0.00     0.167 HD
ATOM     98  C   UNL A   1      42.643  29.389  33.922  1.00  0.00     0.074 A 
ATOM     99  C   UNL A   1      43.162  28.456  32.944  1.00  0.00    -0.034 C 
ATOM    100  H   UNL A   1      42.536  27.888  30.985  1.00  0.00     0.065 H 
ATOM    101  H   UNL A   1      44.175  30.553  37.705  1.00  0.00     0.065 H 
ATOM    102  C   UNL A   1      43.241  29.662  35.108  1.00  0.00     0.037 A 
ATOM    103  H   UNL A   1      44.014  27.890  33.074  1.00  0.00     0.065 H 
BRANCH  84 104
ATOM    104  C   UNL A   1      40.312  33.915  38.508  1.00  0.00     0.064 A 
ATOM    105  C   UNL A   1      39.622  33.505  39.660  1.00  0.00     0.173 A 
ATOM    106  C   UNL A   1      41.014  35.129  38.563  1.00  0.00     0.173 A 
ATOM    107  F   UNL A   1      38.926  32.358  39.659  1.00  0.00    -0.203 F 
ATOM    108  C   UNL A   1      39.608  34.295  40.807  1.00  0.00     0.198 A 
ATOM    109  C   UNL A   1      41.027  35.899  39.724  1.00  0.00     0.198 A 
ATOM    110  F   UNL A   1      41.696  35.566  37.494  1.00  0.00    -0.203 F 
ATOM    111  F   UNL A   1      38.895  33.910  41.874  1.00  0.00    -0.200 F 
ATOM    112  C   UNL A   1      40.316  35.487  40.840  1.00  0.00     0.200 A 
ATOM    113  F   UNL A   1      41.724  37.043  39.759  1.00  0.00    -0.200 F 
ATOM    114  F   UNL A   1      40.306  36.242  41.947  1.00  0.00    -0.200 F 
ENDBRANCH  84 104
BRANCH  87 115
ATOM    115  C   UNL A   1      40.198  28.744  29.949  1.00  0.00     0.064 A 
ATOM    116  C   UNL A   1      40.853  29.254  28.820  1.00  0.00     0.173 A 
ATOM    117  C   UNL A   1      39.550  27.506  29.823  1.00  0.00     0.173 A 
ATOM    118  F   UNL A   1      41.471  30.443  28.885  1.00  0.00    -0.203 F 
ATOM    119  C   UNL A   1      40.843  28.567  27.608  1.00  0.00     0.198 A 
ATOM    120  C   UNL A   1      39.566  26.804  28.619  1.00  0.00     0.198 A 
ATOM    121  F   UNL A   1      38.913  26.971  30.874  1.00  0.00    -0.203 F 
ATOM    122  F   UNL A   1      41.436  29.101  26.532  1.00  0.00    -0.200 F 
ATOM    123  C   UNL A   1      40.204  27.340  27.510  1.00  0.00     0.200 A 
ATOM    124  F   UNL A   1      38.962  25.612  28.532  1.00  0.00    -0.200 F 
ATOM    125  F   UNL A   1      40.197  26.677  26.346  1.00  0.00    -0.200 F 
ENDBRANCH  87 115
BRANCH 102 126
ATOM    126  C   UNL A   1      44.497  28.910  35.441  1.00  0.00     0.064 A 
ATOM    127  C   UNL A   1      45.766  29.408  35.116  1.00  0.00     0.173 A 
ATOM    128  C   UNL A   1      44.427  27.700  36.150  1.00  0.00     0.173 A 
ATOM    129  F   UNL A   1      45.886  30.552  34.426  1.00  0.00    -0.203 F 
ATOM    130  C   UNL A   1      46.920  28.713  35.469  1.00  0.00     0.198 A 
ATOM    131  C   UNL A   1      45.583  27.024  36.531  1.00  0.00     0.198 A 
ATOM    132  F   UNL A   1      43.238  27.183  36.492  1.00  0.00    -0.203 F 
ATOM    133  F   UNL A   1      48.122  29.185  35.109  1.00  0.00    -0.200 F 
ATOM    134  C   UNL A   1      46.828  27.528  36.185  1.00  0.00     0.200 A 
ATOM    135  F   UNL A   1      45.493  25.889  37.238  1.00  0.00    -0.200 F 
ATOM    136  F   UNL A   1      47.940  26.869  36.538  1.00  0.00    -0.200 F 
ENDBRANCH 102 126
ENDBRANCH  67  70
ENDBRANCH  57  60
ENDBRANCH  53  56
ENDBRANCH  50  53
ENDBRANCH  47  50
ENDBRANCH   1  47
TORSDOF 18
ENDMDL
MODEL 9
REMARK VINA RESULT:     -11.8      6.316     11.644
REMARK SMILES CCc1cc(/C=C/C(=O)NCCCCCCNC(=O)c2ccc(-c3c4nc(c(-c5c(F)c(F)c(F)c(F)c5F)c5ccc([nH]5)c(-c5c(F)c(F)c(F)c(F)c5F)c5nc(c(-c6c(F)c(F)c(F)c(F)c6F)c6ccc3[nH]6)C=C5)C=C4)cc2)cc(C(=O)c2ccccc2)c1
REMARK SMILES IDX 13 1 12 4 11 7 10 10 8 11 9 12 7 14 6 15 5 18 3 19 4 20
REMARK SMILES IDX 93 21 84 23 83 25 2 27 1 30 85 34 86 35 87 36 88 37 92 38
REMARK SMILES IDX 89 39 91 41 90 43 14 47 15 50 16 53 17 56 18 57 19 59 20 60
REMARK SMILES IDX 21 61 82 62 22 63 81 65 23 67 24 70 25 71 75 72 26 73 80 74
REMARK SMILES IDX 74 75 76 76 27 77 79 78 73 80 72 82 28 84 60 87 40 88 59 89
REMARK SMILES IDX 41 90 44 91 58 92 77 93 42 94 43 96 57 98 78 99 45 102
REMARK SMILES IDX 29 104 30 105 38 106 31 107 32 108 36 109 39 110 33 111
REMARK SMILES IDX 34 112 37 113 35 114 61 115 62 116 70 117 63 118 64 119
REMARK SMILES IDX 68 120 71 121 65 122 66 123 69 124 67 125 46 126 47 127
REMARK SMILES IDX 55 128 48 129 49 130 53 131 56 132 50 133 51 134 54 135
REMARK SMILES IDX 52 136
REMARK H PARENT 13 2 13 3 12 5 12 6 11 8 11 9 10 13 6 16 7 17 4 22 93 24 83 26
REMARK H PARENT 2 28 2 29 1 31 1 32 1 33 88 40 92 42 89 44 91 45 90 46 14 48
REMARK H PARENT 14 49 15 51 15 52 16 54 16 55 17 58 21 64 82 66 22 68 81 69
REMARK H PARENT 80 79 74 81 76 83 79 85 73 86 41 95 44 97 77 100 42 101 78 103
REMARK Flexibility Score: inf
ROOT
ATOM      1  C   UNL A   1      40.718  20.487  26.345  1.00  0.00    -0.052 C 
ATOM      2  H   UNL A   1      40.497  20.256  27.367  1.00  0.00     0.027 H 
ATOM      3  H   UNL A   1      39.843  20.580  25.738  1.00  0.00     0.027 H 
ENDROOT
BRANCH   1   4
ATOM      4  C   UNL A   1      41.536  19.327  25.759  1.00  0.00    -0.036 C 
ATOM      5  H   UNL A   1      40.969  18.426  25.859  1.00  0.00     0.028 H 
ATOM      6  H   UNL A   1      41.734  19.562  24.734  1.00  0.00     0.028 H 
BRANCH   4   7
ATOM      7  C   UNL A   1      42.884  19.135  26.455  1.00  0.00     0.018 C 
ATOM      8  H   UNL A   1      43.167  20.049  26.936  1.00  0.00     0.049 H 
ATOM      9  H   UNL A   1      42.796  18.355  27.183  1.00  0.00     0.049 H 
BRANCH   7  10
ATOM     10  N   UNL A   1      43.895  18.769  25.484  1.00  0.00    -0.353 N 
ATOM     11  C   UNL A   1      44.872  19.488  24.881  1.00  0.00     0.243 C 
ATOM     12  O   UNL A   1      45.630  18.922  24.094  1.00  0.00    -0.270 OA
ATOM     13  H   UNL A   1      43.867  17.823  25.213  1.00  0.00     0.163 HD
BRANCH  11  14
ATOM     14  C   UNL A   1      45.113  20.915  25.194  1.00  0.00     0.003 C 
ATOM     15  C   UNL A   1      44.743  21.969  24.453  1.00  0.00    -0.049 C 
ATOM     16  H   UNL A   1      44.190  21.783  23.602  1.00  0.00     0.063 H 
ATOM     17  H   UNL A   1      45.617  21.119  26.071  1.00  0.00     0.068 H 
BRANCH  15  18
ATOM     18  C   UNL A   1      45.064  23.369  24.760  1.00  0.00    -0.024 A 
ATOM     19  C   UNL A   1      46.648  25.223  24.818  1.00  0.00    -0.047 A 
ATOM     20  C   UNL A   1      46.374  23.853  24.702  1.00  0.00    -0.052 A 
ATOM     21  C   UNL A   1      45.593  26.115  25.047  1.00  0.00    -0.048 A 
ATOM     22  H   UNL A   1      47.155  23.189  24.571  1.00  0.00     0.063 H 
ATOM     23  C   UNL A   1      44.275  25.647  25.112  1.00  0.00     0.023 A 
ATOM     24  H   UNL A   1      45.788  27.121  25.169  1.00  0.00     0.063 H 
ATOM     25  C   UNL A   1      44.019  24.275  24.978  1.00  0.00    -0.044 A 
ATOM     26  H   UNL A   1      43.049  23.928  25.041  1.00  0.00     0.064 H 
BRANCH  19  27
ATOM     27  C   UNL A   1      48.056  25.722  24.608  1.00  0.00    -0.031 C 
ATOM     28  H   UNL A   1      48.629  25.539  25.493  1.00  0.00     0.031 H 
ATOM     29  H   UNL A   1      48.482  25.202  23.774  1.00  0.00     0.031 H 
BRANCH  27  30
ATOM     30  C   UNL A   1      48.066  27.217  24.306  1.00  0.00    -0.061 C 
ATOM     31  H   UNL A   1      48.180  27.369  23.253  1.00  0.00     0.023 H 
ATOM     32  H   UNL A   1      48.881  27.680  24.823  1.00  0.00     0.023 H 
ATOM     33  H   UNL A   1      47.145  27.652  24.632  1.00  0.00     0.023 H 
ENDBRANCH  27  30
ENDBRANCH  19  27
BRANCH  23  34
ATOM     34  C   UNL A   1      43.111  26.558  25.310  1.00  0.00     0.193 C 
ATOM     35  O   UNL A   1      42.918  27.489  24.531  1.00  0.00    -0.289 OA
BRANCH  34  36
ATOM     36  C   UNL A   1      42.160  26.363  26.426  1.00  0.00     0.022 A 
ATOM     37  C   UNL A   1      40.828  26.066  26.124  1.00  0.00    -0.051 A 
ATOM     38  C   UNL A   1      42.569  26.489  27.759  1.00  0.00    -0.051 A 
ATOM     39  C   UNL A   1      39.917  25.841  27.154  1.00  0.00    -0.062 A 
ATOM     40  H   UNL A   1      40.520  26.015  25.139  1.00  0.00     0.063 H 
ATOM     41  C   UNL A   1      41.652  26.263  28.787  1.00  0.00    -0.062 A 
ATOM     42  H   UNL A   1      43.543  26.748  27.980  1.00  0.00     0.063 H 
ATOM     43  C   UNL A   1      40.332  25.930  28.484  1.00  0.00    -0.062 A 
ATOM     44  H   UNL A   1      38.936  25.608  26.934  1.00  0.00     0.062 H 
ATOM     45  H   UNL A   1      41.952  26.342  29.772  1.00  0.00     0.062 H 
ATOM     46  H   UNL A   1      39.659  25.749  29.246  1.00  0.00     0.062 H 
ENDBRANCH  34  36
ENDBRANCH  23  34
ENDBRANCH  15  18
ENDBRANCH  11  14
ENDBRANCH   7  10
ENDBRANCH   4   7
ENDBRANCH   1   4
BRANCH   1  47
ATOM     47  C   UNL A   1      41.424  21.848  26.305  1.00  0.00    -0.052 C 
ATOM     48  H   UNL A   1      40.888  22.482  25.628  1.00  0.00     0.027 H 
ATOM     49  H   UNL A   1      42.430  21.661  25.995  1.00  0.00     0.027 H 
BRANCH  47  50
ATOM     50  C   UNL A   1      41.512  22.559  27.657  1.00  0.00    -0.036 C 
ATOM     51  H   UNL A   1      40.892  22.035  28.355  1.00  0.00     0.028 H 
ATOM     52  H   UNL A   1      41.188  23.567  27.503  1.00  0.00     0.028 H 
BRANCH  50  53
ATOM     53  C   UNL A   1      42.924  22.627  28.223  1.00  0.00     0.018 C 
ATOM     54  H   UNL A   1      43.411  23.500  27.841  1.00  0.00     0.049 H 
ATOM     55  H   UNL A   1      43.448  21.741  27.928  1.00  0.00     0.049 H 
BRANCH  53  56
ATOM     56  N   UNL A   1      42.911  22.689  29.676  1.00  0.00    -0.352 N 
ATOM     57  C   UNL A   1      43.767  23.348  30.521  1.00  0.00     0.251 C 
ATOM     58  H   UNL A   1      42.186  22.186  30.115  1.00  0.00     0.163 HD
ATOM     59  O   UNL A   1      43.782  23.093  31.719  1.00  0.00    -0.269 OA
BRANCH  57  60
ATOM     60  C   UNL A   1      44.676  24.371  29.969  1.00  0.00     0.039 A 
ATOM     61  C   UNL A   1      45.280  24.149  28.729  1.00  0.00    -0.049 A 
ATOM     62  C   UNL A   1      44.932  25.545  30.683  1.00  0.00    -0.049 A 
ATOM     63  C   UNL A   1      46.102  25.133  28.180  1.00  0.00    -0.053 A 
ATOM     64  H   UNL A   1      45.118  23.264  28.223  1.00  0.00     0.063 H 
ATOM     65  C   UNL A   1      45.686  26.554  30.100  1.00  0.00    -0.053 A 
ATOM     66  H   UNL A   1      44.561  25.661  31.639  1.00  0.00     0.063 H 
ATOM     67  C   UNL A   1      46.286  26.355  28.847  1.00  0.00    -0.014 A 
ATOM     68  H   UNL A   1      46.575  24.962  27.278  1.00  0.00     0.063 H 
ATOM     69  H   UNL A   1      45.807  27.454  30.590  1.00  0.00     0.063 H 
BRANCH  67  70
ATOM     70  C   UNL A   1      47.115  27.437  28.265  1.00  0.00     0.031 A 
ATOM     71  C   UNL A   1      48.568  27.190  27.971  1.00  0.00     0.074 A 
ATOM     72  C   UNL A   1      46.580  28.658  28.075  1.00  0.00     0.049 A 
ATOM     73  N   UNL A   1      49.485  28.029  27.559  1.00  0.00    -0.248 NA
ATOM     74  C   UNL A   1      49.063  25.824  28.199  1.00  0.00    -0.034 C 
ATOM     75  C   UNL A   1      45.193  29.027  28.359  1.00  0.00    -0.036 A 
ATOM     76  N   UNL A   1      47.145  29.820  27.613  1.00  0.00    -0.354 N 
ATOM     77  C   UNL A   1      50.663  27.296  27.495  1.00  0.00     0.074 A 
ATOM     78  C   UNL A   1      50.358  25.962  27.964  1.00  0.00    -0.034 C 
ATOM     79  H   UNL A   1      48.537  24.978  28.471  1.00  0.00     0.065 H 
ATOM     80  C   UNL A   1      45.010  30.321  28.049  1.00  0.00    -0.036 A 
ATOM     81  H   UNL A   1      44.471  28.395  28.738  1.00  0.00     0.065 H 
ATOM     82  C   UNL A   1      46.275  30.883  27.589  1.00  0.00     0.049 A 
ATOM     83  H   UNL A   1      48.085  29.886  27.326  1.00  0.00     0.167 HD
ATOM     84  C   UNL A   1      51.881  27.696  27.063  1.00  0.00     0.037 A 
ATOM     85  H   UNL A   1      51.059  25.216  28.099  1.00  0.00     0.065 H 
ATOM     86  H   UNL A   1      44.118  30.835  28.125  1.00  0.00     0.065 H 
ATOM     87  C   UNL A   1      46.482  32.169  27.247  1.00  0.00     0.037 A 
ATOM     88  C   UNL A   1      52.170  29.021  26.581  1.00  0.00     0.049 A 
ATOM     89  C   UNL A   1      47.853  32.594  26.796  1.00  0.00     0.074 A 
ATOM     90  C   UNL A   1      53.357  29.513  26.068  1.00  0.00    -0.036 A 
ATOM     91  N   UNL A   1      51.259  30.068  26.558  1.00  0.00    -0.354 N 
ATOM     92  N   UNL A   1      48.945  31.879  26.674  1.00  0.00    -0.248 NA
ATOM     93  C   UNL A   1      48.020  34.008  26.427  1.00  0.00    -0.034 C 
ATOM     94  C   UNL A   1      53.181  30.871  25.788  1.00  0.00    -0.036 A 
ATOM     95  H   UNL A   1      54.223  28.971  25.918  1.00  0.00     0.065 H 
ATOM     96  C   UNL A   1      51.867  31.212  26.066  1.00  0.00     0.049 A 
ATOM     97  H   UNL A   1      50.321  30.007  26.850  1.00  0.00     0.167 HD
ATOM     98  C   UNL A   1      49.916  32.742  26.186  1.00  0.00     0.074 A 
ATOM     99  C   UNL A   1      49.283  34.033  26.023  1.00  0.00    -0.034 C 
ATOM    100  H   UNL A   1      47.334  34.777  26.472  1.00  0.00     0.065 H 
ATOM    101  H   UNL A   1      53.908  31.513  25.435  1.00  0.00     0.065 H 
ATOM    102  C   UNL A   1      51.215  32.487  25.896  1.00  0.00     0.037 A 
ATOM    103  H   UNL A   1      49.753  34.868  25.641  1.00  0.00     0.065 H 
BRANCH  84 104
ATOM    104  C   UNL A   1      52.996  26.688  27.095  1.00  0.00     0.064 A 
ATOM    105  C   UNL A   1      53.165  25.742  26.071  1.00  0.00     0.173 A 
ATOM    106  C   UNL A   1      53.923  26.685  28.147  1.00  0.00     0.173 A 
ATOM    107  F   UNL A   1      52.301  25.694  25.046  1.00  0.00    -0.203 F 
ATOM    108  C   UNL A   1      54.200  24.812  26.117  1.00  0.00     0.198 A 
ATOM    109  C   UNL A   1      54.978  25.776  28.173  1.00  0.00     0.198 A 
ATOM    110  F   UNL A   1      53.814  27.571  29.149  1.00  0.00    -0.203 F 
ATOM    111  F   UNL A   1      54.306  23.883  25.158  1.00  0.00    -0.200 F 
ATOM    112  C   UNL A   1      55.109  24.834  27.164  1.00  0.00     0.200 A 
ATOM    113  F   UNL A   1      55.865  25.809  29.177  1.00  0.00    -0.200 F 
ATOM    114  F   UNL A   1      56.108  23.942  27.204  1.00  0.00    -0.200 F 
ENDBRANCH  84 104
BRANCH  87 115
ATOM    115  C   UNL A   1      45.358  33.141  27.302  1.00  0.00     0.064 A 
ATOM    116  C   UNL A   1      44.586  33.412  26.164  1.00  0.00     0.173 A 
ATOM    117  C   UNL A   1      45.035  33.821  28.486  1.00  0.00     0.173 A 
ATOM    118  F   UNL A   1      44.868  32.802  25.003  1.00  0.00    -0.203 F 
ATOM    119  C   UNL A   1      43.547  34.339  26.201  1.00  0.00     0.198 A 
ATOM    120  C   UNL A   1      43.976  34.725  28.531  1.00  0.00     0.198 A 
ATOM    121  F   UNL A   1      45.739  33.595  29.604  1.00  0.00    -0.203 F 
ATOM    122  F   UNL A   1      42.856  34.613  25.087  1.00  0.00    -0.200 F 
ATOM    123  C   UNL A   1      43.239  34.990  27.386  1.00  0.00     0.200 A 
ATOM    124  F   UNL A   1      43.671  35.341  29.681  1.00  0.00    -0.200 F 
ATOM    125  F   UNL A   1      42.237  35.879  27.424  1.00  0.00    -0.200 F 
ENDBRANCH  87 115
BRANCH 102 126
ATOM    126  C   UNL A   1      52.032  33.610  25.325  1.00  0.00     0.064 A 
ATOM    127  C   UNL A   1      52.595  34.602  26.139  1.00  0.00     0.173 A 
ATOM    128  C   UNL A   1      52.302  33.657  23.948  1.00  0.00     0.173 A 
ATOM    129  F   UNL A   1      52.355  34.611  27.459  1.00  0.00    -0.203 F 
ATOM    130  C   UNL A   1      53.382  35.614  25.593  1.00  0.00     0.198 A 
ATOM    131  C   UNL A   1      53.117  34.649  23.410  1.00  0.00     0.198 A 
ATOM    132  F   UNL A   1      51.793  32.727  23.126  1.00  0.00    -0.203 F 
ATOM    133  F   UNL A   1      53.875  36.578  26.383  1.00  0.00    -0.200 F 
ATOM    134  C   UNL A   1      53.651  35.630  24.232  1.00  0.00     0.200 A 
ATOM    135  F   UNL A   1      53.388  34.653  22.098  1.00  0.00    -0.200 F 
ATOM    136  F   UNL A   1      54.421  36.595  23.712  1.00  0.00    -0.200 F 
ENDBRANCH 102 126
ENDBRANCH  67  70
ENDBRANCH  57  60
ENDBRANCH  53  56
ENDBRANCH  50  53
ENDBRANCH  47  50
ENDBRANCH   1  47
TORSDOF 18
ENDMDL
MODEL 10
REMARK VINA RESULT:     -11.8      3.918      8.628
REMARK SMILES CCc1cc(/C=C/C(=O)NCCCCCCNC(=O)c2ccc(-c3c4nc(c(-c5c(F)c(F)c(F)c(F)c5F)c5ccc([nH]5)c(-c5c(F)c(F)c(F)c(F)c5F)c5nc(c(-c6c(F)c(F)c(F)c(F)c6F)c6ccc3[nH]6)C=C5)C=C4)cc2)cc(C(=O)c2ccccc2)c1
REMARK SMILES IDX 13 1 12 4 11 7 10 10 8 11 9 12 7 14 6 15 5 18 3 19 4 20
REMARK SMILES IDX 93 21 84 23 83 25 2 27 1 30 85 34 86 35 87 36 88 37 92 38
REMARK SMILES IDX 89 39 91 41 90 43 14 47 15 50 16 53 17 56 18 57 19 59 20 60
REMARK SMILES IDX 21 61 82 62 22 63 81 65 23 67 24 70 25 71 75 72 26 73 80 74
REMARK SMILES IDX 74 75 76 76 27 77 79 78 73 80 72 82 28 84 60 87 40 88 59 89
REMARK SMILES IDX 41 90 44 91 58 92 77 93 42 94 43 96 57 98 78 99 45 102
REMARK SMILES IDX 29 104 30 105 38 106 31 107 32 108 36 109 39 110 33 111
REMARK SMILES IDX 34 112 37 113 35 114 61 115 62 116 70 117 63 118 64 119
REMARK SMILES IDX 68 120 71 121 65 122 66 123 69 124 67 125 46 126 47 127
REMARK SMILES IDX 55 128 48 129 49 130 53 131 56 132 50 133 51 134 54 135
REMARK SMILES IDX 52 136
REMARK H PARENT 13 2 13 3 12 5 12 6 11 8 11 9 10 13 6 16 7 17 4 22 93 24 83 26
REMARK H PARENT 2 28 2 29 1 31 1 32 1 33 88 40 92 42 89 44 91 45 90 46 14 48
REMARK H PARENT 14 49 15 51 15 52 16 54 16 55 17 58 21 64 82 66 22 68 81 69
REMARK H PARENT 80 79 74 81 76 83 79 85 73 86 41 95 44 97 77 100 42 101 78 103
REMARK Flexibility Score: inf
ROOT
ATOM      1  C   UNL A   1      37.032  21.826  24.405  1.00  0.00    -0.052 C 
ATOM      2  H   UNL A   1      37.974  22.237  24.701  1.00  0.00     0.027 H 
ATOM      3  H   UNL A   1      36.938  21.716  23.345  1.00  0.00     0.027 H 
ENDROOT
BRANCH   1   4
ATOM      4  C   UNL A   1      35.926  22.796  24.844  1.00  0.00    -0.036 C 
ATOM      5  H   UNL A   1      36.050  23.005  25.886  1.00  0.00     0.028 H 
ATOM      6  H   UNL A   1      36.020  23.679  24.247  1.00  0.00     0.028 H 
BRANCH   4   7
ATOM      7  C   UNL A   1      34.520  22.239  24.623  1.00  0.00     0.018 C 
ATOM      8  H   UNL A   1      33.956  22.926  24.026  1.00  0.00     0.049 H 
ATOM      9  H   UNL A   1      34.590  21.297  24.120  1.00  0.00     0.049 H 
BRANCH   7  10
ATOM     10  N   UNL A   1      33.855  22.049  25.896  1.00  0.00    -0.353 N 
ATOM     11  C   UNL A   1      33.165  22.902  26.691  1.00  0.00     0.243 C 
ATOM     12  O   UNL A   1      32.671  22.476  27.735  1.00  0.00    -0.270 OA
ATOM     13  H   UNL A   1      33.917  21.133  26.249  1.00  0.00     0.163 HD
BRANCH  11  14
ATOM     14  C   UNL A   1      32.916  24.312  26.313  1.00  0.00     0.003 C 
ATOM     15  C   UNL A   1      31.791  25.010  26.523  1.00  0.00    -0.049 C 
ATOM     16  H   UNL A   1      31.032  24.545  27.044  1.00  0.00     0.063 H 
ATOM     17  H   UNL A   1      33.688  24.808  25.840  1.00  0.00     0.068 H 
BRANCH  15  18
ATOM     18  C   UNL A   1      31.557  26.386  26.067  1.00  0.00    -0.024 A 
ATOM     19  C   UNL A   1      31.918  28.789  26.284  1.00  0.00    -0.047 A 
ATOM     20  C   UNL A   1      31.982  27.490  26.811  1.00  0.00    -0.052 A 
ATOM     21  C   UNL A   1      31.369  28.985  25.010  1.00  0.00    -0.048 A 
ATOM     22  H   UNL A   1      32.352  27.348  27.764  1.00  0.00     0.063 H 
ATOM     23  C   UNL A   1      30.933  27.890  24.254  1.00  0.00     0.023 A 
ATOM     24  H   UNL A   1      31.284  29.939  24.629  1.00  0.00     0.063 H 
ATOM     25  C   UNL A   1      31.021  26.598  24.791  1.00  0.00    -0.044 A 
ATOM     26  H   UNL A   1      30.687  25.792  24.239  1.00  0.00     0.064 H 
BRANCH  19  27
ATOM     27  C   UNL A   1      32.517  29.937  27.057  1.00  0.00    -0.031 C 
ATOM     28  H   UNL A   1      32.452  29.725  28.105  1.00  0.00     0.031 H 
ATOM     29  H   UNL A   1      33.540  30.050  26.763  1.00  0.00     0.031 H 
BRANCH  27  30
ATOM     30  C   UNL A   1      31.778  31.238  26.763  1.00  0.00    -0.061 C 
ATOM     31  H   UNL A   1      32.090  31.990  27.457  1.00  0.00     0.023 H 
ATOM     32  H   UNL A   1      30.725  31.079  26.858  1.00  0.00     0.023 H 
ATOM     33  H   UNL A   1      32.002  31.557  25.767  1.00  0.00     0.023 H 
ENDBRANCH  27  30
ENDBRANCH  19  27
BRANCH  23  34
ATOM     34  C   UNL A   1      30.383  28.038  22.876  1.00  0.00     0.193 C 
ATOM     35  O   UNL A   1      30.700  27.240  21.997  1.00  0.00    -0.289 OA
BRANCH  34  36
ATOM     36  C   UNL A   1      29.442  29.127  22.534  1.00  0.00     0.022 A 
ATOM     37  C   UNL A   1      28.176  29.125  23.126  1.00  0.00    -0.051 A 
ATOM     38  C   UNL A   1      29.794  30.134  21.627  1.00  0.00    -0.051 A 
ATOM     39  C   UNL A   1      27.281  30.158  22.853  1.00  0.00    -0.062 A 
ATOM     40  H   UNL A   1      27.904  28.359  23.764  1.00  0.00     0.063 H 
ATOM     41  C   UNL A   1      28.894  31.166  21.357  1.00  0.00    -0.062 A 
ATOM     42  H   UNL A   1      30.714  30.112  21.160  1.00  0.00     0.063 H 
ATOM     43  C   UNL A   1      27.644  31.182  21.977  1.00  0.00    -0.062 A 
ATOM     44  H   UNL A   1      26.350  30.167  23.299  1.00  0.00     0.062 H 
ATOM     45  H   UNL A   1      29.154  31.917  20.698  1.00  0.00     0.062 H 
ATOM     46  H   UNL A   1      26.985  31.954  21.786  1.00  0.00     0.062 H 
ENDBRANCH  34  36
ENDBRANCH  23  34
ENDBRANCH  15  18
ENDBRANCH  11  14
ENDBRANCH   7  10
ENDBRANCH   4   7
ENDBRANCH   1   4
BRANCH   1  47
ATOM     47  C   UNL A   1      36.917  20.417  25.001  1.00  0.00    -0.052 C 
ATOM     48  H   UNL A   1      36.139  19.897  24.482  1.00  0.00     0.027 H 
ATOM     49  H   UNL A   1      36.713  20.543  26.043  1.00  0.00     0.027 H 
BRANCH  47  50
ATOM     50  C   UNL A   1      38.196  19.581  24.907  1.00  0.00    -0.036 C 
ATOM     51  H   UNL A   1      38.537  19.598  23.892  1.00  0.00     0.028 H 
ATOM     52  H   UNL A   1      37.949  18.593  25.237  1.00  0.00     0.028 H 
BRANCH  50  53
ATOM     53  C   UNL A   1      39.322  20.081  25.803  1.00  0.00     0.018 C 
ATOM     54  H   UNL A   1      38.916  20.350  26.755  1.00  0.00     0.049 H 
ATOM     55  H   UNL A   1      39.776  20.928  25.332  1.00  0.00     0.049 H 
BRANCH  53  56
ATOM     56  N   UNL A   1      40.341  19.061  25.992  1.00  0.00    -0.352 N 
ATOM     57  C   UNL A   1      41.698  19.209  26.126  1.00  0.00     0.251 C 
ATOM     58  H   UNL A   1      40.010  18.134  26.030  1.00  0.00     0.163 HD
ATOM     59  O   UNL A   1      42.446  18.245  26.017  1.00  0.00    -0.269 OA
BRANCH  57  60
ATOM     60  C   UNL A   1      42.251  20.549  26.401  1.00  0.00     0.039 A 
ATOM     61  C   UNL A   1      42.738  21.316  25.340  1.00  0.00    -0.049 A 
ATOM     62  C   UNL A   1      42.290  21.041  27.709  1.00  0.00    -0.049 A 
ATOM     63  C   UNL A   1      43.218  22.603  25.587  1.00  0.00    -0.053 A 
ATOM     64  H   UNL A   1      42.743  20.935  24.382  1.00  0.00     0.063 H 
ATOM     65  C   UNL A   1      42.694  22.348  27.941  1.00  0.00    -0.053 A 
ATOM     66  H   UNL A   1      42.019  20.434  28.498  1.00  0.00     0.063 H 
ATOM     67  C   UNL A   1      43.170  23.139  26.885  1.00  0.00    -0.014 A 
ATOM     68  H   UNL A   1      43.608  23.163  24.812  1.00  0.00     0.063 H 
ATOM     69  H   UNL A   1      42.644  22.740  28.894  1.00  0.00     0.063 H 
BRANCH  67  70
ATOM     70  C   UNL A   1      43.628  24.520  27.168  1.00  0.00     0.031 A 
ATOM     71  C   UNL A   1      42.649  25.544  27.669  1.00  0.00     0.074 A 
ATOM     72  C   UNL A   1      44.900  24.870  26.900  1.00  0.00     0.049 A 
ATOM     73  N   UNL A   1      42.822  26.825  27.879  1.00  0.00    -0.248 NA
ATOM     74  C   UNL A   1      41.283  25.071  27.944  1.00  0.00    -0.034 C 
ATOM     75  C   UNL A   1      45.931  23.973  26.375  1.00  0.00    -0.036 A 
ATOM     76  N   UNL A   1      45.540  26.078  27.018  1.00  0.00    -0.354 N 
ATOM     77  C   UNL A   1      41.588  27.309  28.293  1.00  0.00     0.074 A 
ATOM     78  C   UNL A   1      40.661  26.198  28.249  1.00  0.00    -0.034 C 
ATOM     79  H   UNL A   1      40.908  24.110  27.907  1.00  0.00     0.065 H 
ATOM     80  C   UNL A   1      47.078  24.656  26.233  1.00  0.00    -0.036 A 
ATOM     81  H   UNL A   1      45.797  22.975  26.150  1.00  0.00     0.065 H 
ATOM     82  C   UNL A   1      46.852  26.047  26.612  1.00  0.00     0.049 A 
ATOM     83  H   UNL A   1      45.101  26.890  27.361  1.00  0.00     0.167 HD
ATOM     84  C   UNL A   1      41.265  28.560  28.693  1.00  0.00     0.037 A 
ATOM     85  H   UNL A   1      39.648  26.276  28.433  1.00  0.00     0.065 H 
ATOM     86  H   UNL A   1      47.974  24.262  25.908  1.00  0.00     0.065 H 
ATOM     87  C   UNL A   1      47.764  27.035  26.541  1.00  0.00     0.037 A 
ATOM     88  C   UNL A   1      42.198  29.654  28.749  1.00  0.00     0.049 A 
ATOM     89  C   UNL A   1      47.372  28.425  26.966  1.00  0.00     0.074 A 
ATOM     90  C   UNL A   1      41.986  30.948  29.193  1.00  0.00    -0.036 A 
ATOM     91  N   UNL A   1      43.524  29.582  28.342  1.00  0.00    -0.354 N 
ATOM     92  N   UNL A   1      46.221  28.859  27.420  1.00  0.00    -0.248 NA
ATOM     93  C   UNL A   1      48.409  29.463  26.875  1.00  0.00    -0.034 C 
ATOM     94  C   UNL A   1      43.167  31.672  29.002  1.00  0.00    -0.036 A 
ATOM     95  H   UNL A   1      41.109  31.314  29.594  1.00  0.00     0.065 H 
ATOM     96  C   UNL A   1      44.133  30.816  28.499  1.00  0.00     0.049 A 
ATOM     97  H   UNL A   1      43.965  28.773  27.994  1.00  0.00     0.167 HD
ATOM     98  C   UNL A   1      46.402  30.206  27.699  1.00  0.00     0.074 A 
ATOM     99  C   UNL A   1      47.778  30.518  27.374  1.00  0.00    -0.034 C 
ATOM    100  H   UNL A   1      49.373  29.389  26.517  1.00  0.00     0.065 H 
ATOM    101  H   UNL A   1      43.295  32.677  29.201  1.00  0.00     0.065 H 
ATOM    102  C   UNL A   1      45.511  31.104  28.184  1.00  0.00     0.037 A 
ATOM    103  H   UNL A   1      48.214  31.442  27.512  1.00  0.00     0.065 H 
BRANCH  84 104
ATOM    104  C   UNL A   1      39.840  28.814  29.098  1.00  0.00     0.064 A 
ATOM    105  C   UNL A   1      39.410  28.651  30.425  1.00  0.00     0.173 A 
ATOM    106  C   UNL A   1      38.899  29.255  28.155  1.00  0.00     0.173 A 
ATOM    107  F   UNL A   1      40.265  28.221  31.365  1.00  0.00    -0.203 F 
ATOM    108  C   UNL A   1      38.085  28.885  30.784  1.00  0.00     0.198 A 
ATOM    109  C   UNL A   1      37.584  29.523  28.525  1.00  0.00     0.198 A 
ATOM    110  F   UNL A   1      39.257  29.436  26.875  1.00  0.00    -0.203 F 
ATOM    111  F   UNL A   1      37.686  28.667  32.044  1.00  0.00    -0.200 F 
ATOM    112  C   UNL A   1      37.175  29.328  29.835  1.00  0.00     0.200 A 
ATOM    113  F   UNL A   1      36.709  29.966  27.610  1.00  0.00    -0.200 F 
ATOM    114  F   UNL A   1      35.903  29.560  30.184  1.00  0.00    -0.200 F 
ENDBRANCH  84 104
BRANCH  87 115
ATOM    115  C   UNL A   1      49.141  26.742  26.064  1.00  0.00     0.064 A 
ATOM    116  C   UNL A   1      49.499  26.954  24.726  1.00  0.00     0.173 A 
ATOM    117  C   UNL A   1      50.126  26.242  26.931  1.00  0.00     0.173 A 
ATOM    118  F   UNL A   1      48.588  27.412  23.854  1.00  0.00    -0.203 F 
ATOM    119  C   UNL A   1      50.781  26.659  24.266  1.00  0.00     0.198 A 
ATOM    120  C   UNL A   1      51.416  25.977  26.477  1.00  0.00     0.198 A 
ATOM    121  F   UNL A   1      49.837  26.026  28.221  1.00  0.00    -0.203 F 
ATOM    122  F   UNL A   1      51.081  26.827  22.972  1.00  0.00    -0.200 F 
ATOM    123  C   UNL A   1      51.740  26.176  25.144  1.00  0.00     0.200 A 
ATOM    124  F   UNL A   1      52.344  25.526  27.331  1.00  0.00    -0.200 F 
ATOM    125  F   UNL A   1      52.974  25.896  24.703  1.00  0.00    -0.200 F 
ENDBRANCH  87 115
BRANCH 102 126
ATOM    126  C   UNL A   1      46.002  32.500  28.442  1.00  0.00     0.064 A 
ATOM    127  C   UNL A   1      45.902  33.509  27.475  1.00  0.00     0.173 A 
ATOM    128  C   UNL A   1      46.526  32.842  29.698  1.00  0.00     0.173 A 
ATOM    129  F   UNL A   1      45.422  33.230  26.253  1.00  0.00    -0.203 F 
ATOM    130  C   UNL A   1      46.328  34.807  27.748  1.00  0.00     0.198 A 
ATOM    131  C   UNL A   1      46.919  34.147  29.980  1.00  0.00     0.198 A 
ATOM    132  F   UNL A   1      46.636  31.915  30.661  1.00  0.00    -0.203 F 
ATOM    133  F   UNL A   1      46.264  35.747  26.795  1.00  0.00    -0.200 F 
ATOM    134  C   UNL A   1      46.826  35.127  29.003  1.00  0.00     0.200 A 
ATOM    135  F   UNL A   1      47.384  34.458  31.198  1.00  0.00    -0.200 F 
ATOM    136  F   UNL A   1      47.220  36.379  29.269  1.00  0.00    -0.200 F 
ENDBRANCH 102 126
ENDBRANCH  67  70
ENDBRANCH  57  60
ENDBRANCH  53  56
ENDBRANCH  50  53
ENDBRANCH  47  50
ENDBRANCH   1  47
TORSDOF 18
ENDMDL
